MODEL 1
REMARK VINA RESULT:      -9.4      0.000      0.000
REMARK  7 active torsions:
REMARK  status: ('A' for Active; 'I' for Inactive)
REMARK    1  A    between atoms: C_2  and  C_3 
REMARK    2  A    between atoms: C_6  and  C_7 
REMARK    3  A    between atoms: N_8  and  N_9 
REMARK    4  A    between atoms: C_20  and  C_21 
REMARK       I    between atoms: C_21  and  N_22 
REMARK    5  A    between atoms: N_22  and  C_23 
REMARK    6  A    between atoms: C_23  and  C_24 
REMARK    7  A    between atoms: C_30  and  N_31 
ROOT
HETATM    1  N   UNL     1      42.356 -13.750   3.198  1.00  0.00    -0.202 N 
HETATM    2  C   UNL     1      42.688 -15.090   3.137  1.00  0.00     0.183 A 
HETATM    3  C   UNL     1      42.158 -15.588   1.947  1.00  0.00     0.124 A 
HETATM    4  N   UNL     1      42.238 -16.911   1.650  1.00  0.00    -0.242 NA
HETATM    5  C   UNL     1      42.913 -17.655   2.536  1.00  0.00     0.086 A 
HETATM    6  C   UNL     1      43.473 -17.116   3.725  1.00  0.00     0.088 A 
HETATM    7  N   UNL     1      43.349 -15.822   4.067  1.00  0.00    -0.225 NA
HETATM    8  C   UNL     1      43.070 -19.010   2.271  1.00  0.00     0.034 A 
HETATM    9  C   UNL     1      43.777 -19.847   3.136  1.00  0.00     0.002 A 
HETATM   10  C   UNL     1      44.337 -19.319   4.289  1.00  0.00     0.002 A 
HETATM   11  C   UNL     1      44.177 -17.962   4.574  1.00  0.00     0.034 A 
HETATM   12  C   UNL     1      41.531 -14.517   1.253  1.00  0.00     0.104 C 
HETATM   13  C   UNL     1      41.875 -13.369   1.951  1.00  0.00     0.123 C 
ENDROOT
BRANCH   1  14
HETATM   14  N   UNL     1      42.287 -12.852   4.228  1.00  0.00    -0.176 NA
HETATM   15  C   UNL     1      43.410 -12.369   4.646  1.00  0.00     0.150 C 
BRANCH  15  16
HETATM   16  C   UNL     1      43.476 -11.774   6.002  1.00  0.00    -0.017 A 
HETATM   17  C   UNL     1      44.609 -11.977   6.793  1.00  0.00     0.013 A 
HETATM   18  C   UNL     1      44.818 -11.205   7.937  1.00  0.00     0.009 A 
HETATM   19  C   UNL     1      43.901 -10.212   8.318  1.00  0.00    -0.051 A 
HETATM   20  C   UNL     1      42.727 -10.082   7.547  1.00  0.00     0.009 A 
HETATM   21  C   UNL     1      42.517 -10.845   6.392  1.00  0.00     0.013 A 
BRANCH  19  22
HETATM   22  C   UNL     1      44.163  -9.275   9.512  1.00  0.00    -0.024 C 
HETATM   23  C   UNL     1      43.027  -9.277  10.563  1.00  0.00     0.019 C 
HETATM   24  C   UNL     1      44.325  -7.835   8.995  1.00  0.00     0.019 C 
HETATM   25  C   UNL     1      45.449  -9.700  10.258  1.00  0.00     0.019 C 
ENDBRANCH  19  22
ENDBRANCH  15  16
ENDBRANCH   1  14
BRANCH  13  26
HETATM   26  N   UNL     1      41.655 -12.046   1.672  1.00  0.00    -0.286 NA
HETATM   27  H   UNL     1      40.815 -11.868   1.110  1.00  0.00     0.125 HD
HETATM   28  H   UNL     1      41.693 -11.396   2.460  1.00  0.00     0.125 HD
ENDBRANCH  13  26
BRANCH  12  29
HETATM   29  C   UNL     1      40.631 -14.580   0.104  1.00  0.00     0.257 C 
HETATM   30  N   UNL     1      40.949 -13.649  -0.866  1.00  0.00    -0.354 N 
HETATM   31  H   UNL     1      41.749 -13.055  -0.667  1.00  0.00     0.162 HD
HETATM   32  O   UNL     1      39.654 -15.313   0.046  1.00  0.00    -0.267 OA
BRANCH  30  33
HETATM   33  C   UNL     1      40.065 -13.239  -1.938  1.00  0.00     0.155 C 
BRANCH  33  34
HETATM   34  C   UNL     1      39.533 -11.799  -1.824  1.00  0.00     0.139 C 
HETATM   35  O   UNL     1      39.912 -11.246  -0.550  1.00  0.00    -0.384 OA
HETATM   36  C   UNL     1      38.732 -10.869   0.167  1.00  0.00     0.168 C 
HETATM   37  C   UNL     1      37.574 -11.573  -0.500  1.00  0.00     0.029 C 
HETATM   38  C   UNL     1      38.022 -11.632  -1.941  1.00  0.00     0.035 C 
ENDBRANCH  33  34
ENDBRANCH  30  33
ENDBRANCH  12  29
TORSDOF 7
ENDMDL
MODEL 2
REMARK VINA RESULT:      -9.1      2.539      8.387
REMARK  7 active torsions:
REMARK  status: ('A' for Active; 'I' for Inactive)
REMARK    1  A    between atoms: C_2  and  C_3 
REMARK    2  A    between atoms: C_6  and  C_7 
REMARK    3  A    between atoms: N_8  and  N_9 
REMARK    4  A    between atoms: C_20  and  C_21 
REMARK       I    between atoms: C_21  and  N_22 
REMARK    5  A    between atoms: N_22  and  C_23 
REMARK    6  A    between atoms: C_23  and  C_24 
REMARK    7  A    between atoms: C_30  and  N_31 
ROOT
HETATM    1  N   UNL     1      40.322 -14.611   2.679  1.00  0.00    -0.202 N 
HETATM    2  C   UNL     1      41.245 -15.592   2.989  1.00  0.00     0.183 A 
HETATM    3  C   UNL     1      41.897 -15.186   4.154  1.00  0.00     0.124 A 
HETATM    4  N   UNL     1      42.934 -15.903   4.656  1.00  0.00    -0.242 NA
HETATM    5  C   UNL     1      43.217 -17.036   3.999  1.00  0.00     0.086 A 
HETATM    6  C   UNL     1      42.515 -17.444   2.834  1.00  0.00     0.088 A 
HETATM    7  N   UNL     1      41.527 -16.715   2.286  1.00  0.00    -0.225 NA
HETATM    8  C   UNL     1      44.240 -17.839   4.486  1.00  0.00     0.034 A 
HETATM    9  C   UNL     1      44.581 -19.043   3.868  1.00  0.00     0.002 A 
HETATM   10  C   UNL     1      43.886 -19.451   2.739  1.00  0.00     0.002 A 
HETATM   11  C   UNL     1      42.864 -18.647   2.232  1.00  0.00     0.034 A 
HETATM   12  C   UNL     1      41.325 -13.955   4.582  1.00  0.00     0.104 C 
HETATM   13  C   UNL     1      40.215 -13.760   3.773  1.00  0.00     0.123 C 
ENDROOT
BRANCH   1  14
HETATM   14  N   UNL     1      39.665 -14.279   1.526  1.00  0.00    -0.176 NA
HETATM   15  C   UNL     1      40.330 -13.580   0.667  1.00  0.00     0.150 C 
BRANCH  15  16
HETATM   16  C   UNL     1      39.589 -12.808  -0.358  1.00  0.00    -0.017 A 
HETATM   17  C   UNL     1      38.838 -13.481  -1.324  1.00  0.00     0.013 A 
HETATM   18  C   UNL     1      37.916 -12.787  -2.110  1.00  0.00     0.009 A 
HETATM   19  C   UNL     1      37.721 -11.406  -1.950  1.00  0.00    -0.051 A 
HETATM   20  C   UNL     1      38.550 -10.736  -1.025  1.00  0.00     0.009 A 
HETATM   21  C   UNL     1      39.468 -11.428  -0.225  1.00  0.00     0.013 A 
BRANCH  19  22
HETATM   22  C   UNL     1      36.635 -10.639  -2.728  1.00  0.00    -0.024 C 
HETATM   23  C   UNL     1      35.652 -11.559  -3.492  1.00  0.00     0.019 C 
HETATM   24  C   UNL     1      37.312  -9.714  -3.756  1.00  0.00     0.019 C 
HETATM   25  C   UNL     1      35.779  -9.791  -1.760  1.00  0.00     0.019 C 
ENDBRANCH  19  22
ENDBRANCH  15  16
ENDBRANCH   1  14
BRANCH  13  26
HETATM   26  N   UNL     1      39.227 -12.811   3.814  1.00  0.00    -0.286 NA
HETATM   27  H   UNL     1      38.708 -12.782   4.698  1.00  0.00     0.125 HD
HETATM   28  H   UNL     1      39.486 -11.865   3.528  1.00  0.00     0.125 HD
ENDBRANCH  13  26
BRANCH  12  29
HETATM   29  C   UNL     1      41.824 -13.020   5.586  1.00  0.00     0.257 C 
HETATM   30  N   UNL     1      43.167 -13.201   5.853  1.00  0.00    -0.354 N 
HETATM   31  H   UNL     1      43.629 -13.940   5.330  1.00  0.00     0.162 HD
HETATM   32  O   UNL     1      41.115 -12.226   6.187  1.00  0.00    -0.267 OA
BRANCH  30  33
HETATM   33  C   UNL     1      43.857 -12.677   7.015  1.00  0.00     0.155 C 
BRANCH  33  34
HETATM   34  C   UNL     1      44.345 -11.224   6.878  1.00  0.00     0.139 C 
HETATM   35  O   UNL     1      45.767 -11.213   6.651  1.00  0.00    -0.384 OA
HETATM   36  C   UNL     1      46.402 -10.468   7.694  1.00  0.00     0.168 C 
HETATM   37  C   UNL     1      45.401 -10.351   8.819  1.00  0.00     0.029 C 
HETATM   38  C   UNL     1      44.087 -10.315   8.075  1.00  0.00     0.035 C 
ENDBRANCH  33  34
ENDBRANCH  30  33
ENDBRANCH  12  29
TORSDOF 7
ENDMDL
MODEL 3
REMARK VINA RESULT:      -8.9      2.903      7.762
REMARK  7 active torsions:
REMARK  status: ('A' for Active; 'I' for Inactive)
REMARK    1  A    between atoms: C_2  and  C_3 
REMARK    2  A    between atoms: C_6  and  C_7 
REMARK    3  A    between atoms: N_8  and  N_9 
REMARK    4  A    between atoms: C_20  and  C_21 
REMARK       I    between atoms: C_21  and  N_22 
REMARK    5  A    between atoms: N_22  and  C_23 
REMARK    6  A    between atoms: C_23  and  C_24 
REMARK    7  A    between atoms: C_30  and  N_31 
ROOT
HETATM    1  N   UNL     1      41.448 -14.166   3.505  1.00  0.00    -0.202 N 
HETATM    2  C   UNL     1      42.071 -15.395   3.602  1.00  0.00     0.183 A 
HETATM    3  C   UNL     1      42.815 -15.385   4.782  1.00  0.00     0.124 A 
HETATM    4  N   UNL     1      43.621 -16.428   5.106  1.00  0.00    -0.242 NA
HETATM    5  C   UNL     1      43.582 -17.465   4.258  1.00  0.00     0.086 A 
HETATM    6  C   UNL     1      42.790 -17.464   3.079  1.00  0.00     0.088 A 
HETATM    7  N   UNL     1      42.034 -16.415   2.710  1.00  0.00    -0.225 NA
HETATM    8  C   UNL     1      44.350 -18.584   4.553  1.00  0.00     0.034 A 
HETATM    9  C   UNL     1      44.348 -19.710   3.729  1.00  0.00     0.002 A 
HETATM   10  C   UNL     1      43.563 -19.717   2.586  1.00  0.00     0.002 A 
HETATM   11  C   UNL     1      42.795 -18.594   2.271  1.00  0.00     0.034 A 
HETATM   12  C   UNL     1      42.601 -14.139   5.435  1.00  0.00     0.104 C 
HETATM   13  C   UNL     1      41.582 -13.519   4.728  1.00  0.00     0.123 C 
ENDROOT
BRANCH   1  14
HETATM   14  N   UNL     1      40.900 -13.477   2.457  1.00  0.00    -0.176 NA
HETATM   15  C   UNL     1      41.714 -13.109   1.524  1.00  0.00     0.150 C 
BRANCH  15  16
HETATM   16  C   UNL     1      41.318 -12.003   0.620  1.00  0.00    -0.017 A 
HETATM   17  C   UNL     1      41.538 -10.680   1.005  1.00  0.00     0.013 A 
HETATM   18  C   UNL     1      41.441  -9.647   0.070  1.00  0.00     0.009 A 
HETATM   19  C   UNL     1      41.124  -9.912  -1.272  1.00  0.00    -0.051 A 
HETATM   20  C   UNL     1      40.828 -11.248  -1.617  1.00  0.00     0.009 A 
HETATM   21  C   UNL     1      40.934 -12.290  -0.687  1.00  0.00     0.013 A 
BRANCH  19  22
HETATM   22  C   UNL     1      41.118  -8.806  -2.343  1.00  0.00    -0.024 C 
HETATM   23  C   UNL     1      39.983  -7.770  -2.160  1.00  0.00     0.019 C 
HETATM   24  C   UNL     1      40.949  -9.451  -3.730  1.00  0.00     0.019 C 
HETATM   25  C   UNL     1      42.445  -8.013  -2.304  1.00  0.00     0.019 C 
ENDBRANCH  19  22
ENDBRANCH  15  16
ENDBRANCH   1  14
BRANCH  13  26
HETATM   26  N   UNL     1      40.889 -12.362   4.975  1.00  0.00    -0.286 NA
HETATM   27  H   UNL     1      41.322 -11.755   5.679  1.00  0.00     0.125 HD
HETATM   28  H   UNL     1      40.609 -11.811   4.162  1.00  0.00     0.125 HD
ENDBRANCH  13  26
BRANCH  12  29
HETATM   29  C   UNL     1      43.340 -13.559   6.553  1.00  0.00     0.257 C 
HETATM   30  N   UNL     1      43.829 -12.300   6.264  1.00  0.00    -0.354 N 
HETATM   31  H   UNL     1      43.619 -11.943   5.335  1.00  0.00     0.162 HD
HETATM   32  O   UNL     1      43.574 -14.153   7.595  1.00  0.00    -0.267 OA
BRANCH  30  33
HETATM   33  C   UNL     1      44.866 -11.623   7.017  1.00  0.00     0.155 C 
BRANCH  33  34
HETATM   34  C   UNL     1      44.371 -10.862   8.261  1.00  0.00     0.139 C 
HETATM   35  O   UNL     1      43.474  -9.811   7.856  1.00  0.00    -0.384 OA
HETATM   36  C   UNL     1      43.993  -8.555   8.302  1.00  0.00     0.168 C 
HETATM   37  C   UNL     1      45.449  -8.780   8.638  1.00  0.00     0.029 C 
HETATM   38  C   UNL     1      45.449 -10.211   9.120  1.00  0.00     0.035 C 
ENDBRANCH  33  34
ENDBRANCH  30  33
ENDBRANCH  12  29
TORSDOF 7
ENDMDL
MODEL 4
REMARK VINA RESULT:      -8.7      5.005     11.280
REMARK  7 active torsions:
REMARK  status: ('A' for Active; 'I' for Inactive)
REMARK    1  A    between atoms: C_2  and  C_3 
REMARK    2  A    between atoms: C_6  and  C_7 
REMARK    3  A    between atoms: N_8  and  N_9 
REMARK    4  A    between atoms: C_20  and  C_21 
REMARK       I    between atoms: C_21  and  N_22 
REMARK    5  A    between atoms: N_22  and  C_23 
REMARK    6  A    between atoms: C_23  and  C_24 
REMARK    7  A    between atoms: C_30  and  N_31 
ROOT
HETATM    1  N   UNL     1      43.324  -9.629   7.875  1.00  0.00    -0.202 N 
HETATM    2  C   UNL     1      42.715  -8.392   7.963  1.00  0.00     0.183 A 
HETATM    3  C   UNL     1      42.260  -8.254   9.274  1.00  0.00     0.124 A 
HETATM    4  N   UNL     1      41.529  -7.172   9.646  1.00  0.00    -0.242 NA
HETATM    5  C   UNL     1      41.353  -6.246   8.694  1.00  0.00     0.086 A 
HETATM    6  C   UNL     1      41.856  -6.397   7.374  1.00  0.00     0.088 A 
HETATM    7  N   UNL     1      42.528  -7.489   6.970  1.00  0.00    -0.225 NA
HETATM    8  C   UNL     1      40.650  -5.094   9.020  1.00  0.00     0.034 A 
HETATM    9  C   UNL     1      40.442  -4.076   8.089  1.00  0.00     0.002 A 
HETATM   10  C   UNL     1      40.947  -4.214   6.804  1.00  0.00     0.002 A 
HETATM   11  C   UNL     1      41.645  -5.372   6.459  1.00  0.00     0.034 A 
HETATM   12  C   UNL     1      42.641  -9.413  10.006  1.00  0.00     0.104 C 
HETATM   13  C   UNL     1      43.485 -10.123   9.164  1.00  0.00     0.123 C 
ENDROOT
BRANCH   1  14
HETATM   14  N   UNL     1      43.633 -10.444   6.820  1.00  0.00    -0.176 NA
HETATM   15  C   UNL     1      42.646 -11.072   6.271  1.00  0.00     0.150 C 
BRANCH  15  16
HETATM   16  C   UNL     1      42.925 -12.282   5.462  1.00  0.00    -0.017 A 
HETATM   17  C   UNL     1      42.969 -13.534   6.079  1.00  0.00     0.013 A 
HETATM   18  C   UNL     1      42.944 -14.700   5.311  1.00  0.00     0.009 A 
HETATM   19  C   UNL     1      42.872 -14.644   3.910  1.00  0.00    -0.051 A 
HETATM   20  C   UNL     1      42.909 -13.368   3.309  1.00  0.00     0.009 A 
HETATM   21  C   UNL     1      42.923 -12.194   4.073  1.00  0.00     0.013 A 
BRANCH  19  22
HETATM   22  C   UNL     1      42.733 -15.913   3.048  1.00  0.00    -0.024 C 
HETATM   23  C   UNL     1      43.392 -17.165   3.676  1.00  0.00     0.019 C 
HETATM   24  C   UNL     1      43.396 -15.666   1.681  1.00  0.00     0.019 C 
HETATM   25  C   UNL     1      41.242 -16.260   2.840  1.00  0.00     0.019 C 
ENDBRANCH  19  22
ENDBRANCH  15  16
ENDBRANCH   1  14
BRANCH  13  26
HETATM   26  N   UNL     1      44.238 -11.246   9.383  1.00  0.00    -0.286 NA
HETATM   27  H   UNL     1      44.569 -11.704   8.527  1.00  0.00     0.125 HD
HETATM   28  H   UNL     1      45.003 -11.164  10.055  1.00  0.00     0.125 HD
ENDBRANCH  13  26
BRANCH  12  29
HETATM   29  C   UNL     1      42.187  -9.847  11.324  1.00  0.00     0.257 C 
HETATM   30  N   UNL     1      40.955  -9.320  11.657  1.00  0.00    -0.354 N 
HETATM   31  H   UNL     1      40.528  -8.714  10.962  1.00  0.00     0.162 HD
HETATM   32  O   UNL     1      42.860 -10.530  12.083  1.00  0.00    -0.267 OA
BRANCH  30  33
HETATM   33  C   UNL     1      40.406  -9.285  12.997  1.00  0.00     0.155 C 
BRANCH  33  34
HETATM   34  C   UNL     1      40.737  -8.014  13.801  1.00  0.00     0.139 C 
HETATM   35  O   UNL     1      41.008  -6.929  12.894  1.00  0.00    -0.384 OA
HETATM   36  C   UNL     1      42.330  -6.438  13.132  1.00  0.00     0.168 C 
HETATM   37  C   UNL     1      43.053  -7.501  13.926  1.00  0.00     0.029 C 
HETATM   38  C   UNL     1      41.935  -8.108  14.739  1.00  0.00     0.035 C 
ENDBRANCH  33  34
ENDBRANCH  30  33
ENDBRANCH  12  29
TORSDOF 7
ENDMDL
MODEL 5
REMARK VINA RESULT:      -8.5      1.643      2.896
REMARK  7 active torsions:
REMARK  status: ('A' for Active; 'I' for Inactive)
REMARK    1  A    between atoms: C_2  and  C_3 
REMARK    2  A    between atoms: C_6  and  C_7 
REMARK    3  A    between atoms: N_8  and  N_9 
REMARK    4  A    between atoms: C_20  and  C_21 
REMARK       I    between atoms: C_21  and  N_22 
REMARK    5  A    between atoms: N_22  and  C_23 
REMARK    6  A    between atoms: C_23  and  C_24 
REMARK    7  A    between atoms: C_30  and  N_31 
ROOT
HETATM    1  N   UNL     1      42.585 -11.883   4.789  1.00  0.00    -0.202 N 
HETATM    2  C   UNL     1      42.853 -13.232   4.667  1.00  0.00     0.183 A 
HETATM    3  C   UNL     1      42.514 -13.600   3.365  1.00  0.00     0.124 A 
HETATM    4  N   UNL     1      42.576 -14.898   2.970  1.00  0.00    -0.242 NA
HETATM    5  C   UNL     1      43.048 -15.752   3.888  1.00  0.00     0.086 A 
HETATM    6  C   UNL     1      43.419 -15.346   5.197  1.00  0.00     0.088 A 
HETATM    7  N   UNL     1      43.304 -14.077   5.627  1.00  0.00    -0.225 NA
HETATM    8  C   UNL     1      43.179 -17.089   3.535  1.00  0.00     0.034 A 
HETATM    9  C   UNL     1      43.681 -18.036   4.429  1.00  0.00     0.002 A 
HETATM   10  C   UNL     1      44.058 -17.638   5.703  1.00  0.00     0.002 A 
HETATM   11  C   UNL     1      43.920 -16.299   6.075  1.00  0.00     0.034 A 
HETATM   12  C   UNL     1      42.073 -12.439   2.672  1.00  0.00     0.104 C 
HETATM   13  C   UNL     1      42.349 -11.374   3.518  1.00  0.00     0.123 C 
ENDROOT
BRANCH   1  14
HETATM   14  N   UNL     1      42.383 -11.065   5.868  1.00  0.00    -0.176 NA
HETATM   15  C   UNL     1      43.442 -10.566   6.416  1.00  0.00     0.150 C 
BRANCH  15  16
HETATM   16  C   UNL     1      43.362 -10.069   7.810  1.00  0.00    -0.017 A 
HETATM   17  C   UNL     1      42.273  -9.290   8.207  1.00  0.00     0.013 A 
HETATM   18  C   UNL     1      42.032  -9.054   9.562  1.00  0.00     0.009 A 
HETATM   19  C   UNL     1      42.871  -9.591  10.552  1.00  0.00    -0.051 A 
HETATM   20  C   UNL     1      44.009 -10.305  10.121  1.00  0.00     0.009 A 
HETATM   21  C   UNL     1      44.251 -10.556   8.764  1.00  0.00     0.013 A 
BRANCH  19  22
HETATM   22  C   UNL     1      42.565  -9.436  12.053  1.00  0.00    -0.024 C 
HETATM   23  C   UNL     1      42.971 -10.666  12.900  1.00  0.00     0.019 C 
HETATM   24  C   UNL     1      41.052  -9.215  12.237  1.00  0.00     0.019 C 
HETATM   25  C   UNL     1      43.334  -8.229  12.638  1.00  0.00     0.019 C 
ENDBRANCH  19  22
ENDBRANCH  15  16
ENDBRANCH   1  14
BRANCH  13  26
HETATM   26  N   UNL     1      42.248 -10.021   3.323  1.00  0.00    -0.286 NA
HETATM   27  H   UNL     1      42.309  -9.732   2.341  1.00  0.00     0.125 HD
HETATM   28  H   UNL     1      41.468  -9.547   3.781  1.00  0.00     0.125 HD
ENDBRANCH  13  26
BRANCH  12  29
HETATM   29  C   UNL     1      41.385 -12.352   1.387  1.00  0.00     0.257 C 
HETATM   30  N   UNL     1      41.186 -13.592   0.811  1.00  0.00    -0.354 N 
HETATM   31  H   UNL     1      41.532 -14.388   1.340  1.00  0.00     0.162 HD
HETATM   32  O   UNL     1      41.094 -11.297   0.841  1.00  0.00    -0.267 OA
BRANCH  30  33
HETATM   33  C   UNL     1      40.851 -13.812  -0.581  1.00  0.00     0.155 C 
BRANCH  33  34
HETATM   34  C   UNL     1      39.343 -13.890  -0.880  1.00  0.00     0.139 C 
HETATM   35  O   UNL     1      39.074 -15.044  -1.699  1.00  0.00    -0.384 OA
HETATM   36  C   UNL     1      38.464 -14.619  -2.921  1.00  0.00     0.168 C 
HETATM   37  C   UNL     1      38.725 -13.136  -3.046  1.00  0.00     0.029 C 
HETATM   38  C   UNL     1      38.740 -12.691  -1.603  1.00  0.00     0.035 C 
ENDBRANCH  33  34
ENDBRANCH  30  33
ENDBRANCH  12  29
TORSDOF 7
ENDMDL
MODEL 6
REMARK VINA RESULT:      -8.2      1.440      2.281
REMARK  7 active torsions:
REMARK  status: ('A' for Active; 'I' for Inactive)
REMARK    1  A    between atoms: C_2  and  C_3 
REMARK    2  A    between atoms: C_6  and  C_7 
REMARK    3  A    between atoms: N_8  and  N_9 
REMARK    4  A    between atoms: C_20  and  C_21 
REMARK       I    between atoms: C_21  and  N_22 
REMARK    5  A    between atoms: N_22  and  C_23 
REMARK    6  A    between atoms: C_23  and  C_24 
REMARK    7  A    between atoms: C_30  and  N_31 
ROOT
HETATM    1  N   UNL     1      42.747 -12.182   2.983  1.00  0.00    -0.202 N 
HETATM    2  C   UNL     1      42.686 -13.549   2.787  1.00  0.00     0.183 A 
HETATM    3  C   UNL     1      41.660 -13.785   1.871  1.00  0.00     0.124 A 
HETATM    4  N   UNL     1      41.294 -15.052   1.549  1.00  0.00    -0.242 NA
HETATM    5  C   UNL     1      42.029 -16.020   2.113  1.00  0.00     0.086 A 
HETATM    6  C   UNL     1      43.091 -15.751   3.016  1.00  0.00     0.088 A 
HETATM    7  N   UNL     1      43.428 -14.506   3.395  1.00  0.00    -0.225 NA
HETATM    8  C   UNL     1      41.735 -17.339   1.791  1.00  0.00     0.034 A 
HETATM    9  C   UNL     1      42.468 -18.401   2.322  1.00  0.00     0.002 A 
HETATM   10  C   UNL     1      43.516 -18.140   3.192  1.00  0.00     0.002 A 
HETATM   11  C   UNL     1      43.815 -16.819   3.533  1.00  0.00     0.034 A 
HETATM   12  C   UNL     1      41.119 -12.532   1.472  1.00  0.00     0.104 C 
HETATM   13  C   UNL     1      41.966 -11.573   2.008  1.00  0.00     0.123 C 
ENDROOT
BRANCH   1  14
HETATM   14  N   UNL     1      43.277 -11.405   3.976  1.00  0.00    -0.176 NA
HETATM   15  C   UNL     1      43.175 -11.862   5.180  1.00  0.00     0.150 C 
BRANCH  15  16
HETATM   16  C   UNL     1      43.294 -10.921   6.319  1.00  0.00    -0.017 A 
HETATM   17  C   UNL     1      42.356  -9.898   6.473  1.00  0.00     0.013 A 
HETATM   18  C   UNL     1      42.278  -9.189   7.674  1.00  0.00     0.009 A 
HETATM   19  C   UNL     1      43.132  -9.485   8.747  1.00  0.00    -0.051 A 
HETATM   20  C   UNL     1      44.123 -10.467   8.537  1.00  0.00     0.009 A 
HETATM   21  C   UNL     1      44.200 -11.191   7.340  1.00  0.00     0.013 A 
BRANCH  19  22
HETATM   22  C   UNL     1      42.993  -8.792  10.116  1.00  0.00    -0.024 C 
HETATM   23  C   UNL     1      44.101  -9.181  11.125  1.00  0.00     0.019 C 
HETATM   24  C   UNL     1      41.636  -9.171  10.735  1.00  0.00     0.019 C 
HETATM   25  C   UNL     1      43.071  -7.257   9.952  1.00  0.00     0.019 C 
ENDBRANCH  19  22
ENDBRANCH  15  16
ENDBRANCH   1  14
BRANCH  13  26
HETATM   26  N   UNL     1      42.002 -10.212   1.847  1.00  0.00    -0.286 NA
HETATM   27  H   UNL     1      42.028  -9.686   2.726  1.00  0.00     0.125 HD
HETATM   28  H   UNL     1      42.698  -9.844   1.196  1.00  0.00     0.125 HD
ENDBRANCH  13  26
BRANCH  12  29
HETATM   29  C   UNL     1      39.884 -12.266   0.738  1.00  0.00     0.257 C 
HETATM   30  N   UNL     1      39.508 -13.327  -0.062  1.00  0.00    -0.354 N 
HETATM   31  H   UNL     1      40.119 -14.140  -0.039  1.00  0.00     0.162 HD
HETATM   32  O   UNL     1      39.297 -11.194   0.762  1.00  0.00    -0.267 OA
BRANCH  30  33
HETATM   33  C   UNL     1      38.547 -13.247  -1.143  1.00  0.00     0.155 C 
BRANCH  33  34
HETATM   34  C   UNL     1      39.156 -12.988  -2.533  1.00  0.00     0.139 C 
HETATM   35  O   UNL     1      40.539 -13.389  -2.535  1.00  0.00    -0.384 OA
HETATM   36  C   UNL     1      41.353 -12.261  -2.869  1.00  0.00     0.168 C 
HETATM   37  C   UNL     1      40.496 -11.032  -2.675  1.00  0.00     0.029 C 
HETATM   38  C   UNL     1      39.119 -11.544  -3.022  1.00  0.00     0.035 C 
ENDBRANCH  33  34
ENDBRANCH  30  33
ENDBRANCH  12  29
TORSDOF 7
ENDMDL
MODEL 7
REMARK VINA RESULT:      -8.2      2.224      3.500
REMARK  7 active torsions:
REMARK  status: ('A' for Active; 'I' for Inactive)
REMARK    1  A    between atoms: C_2  and  C_3 
REMARK    2  A    between atoms: C_6  and  C_7 
REMARK    3  A    between atoms: N_8  and  N_9 
REMARK    4  A    between atoms: C_20  and  C_21 
REMARK       I    between atoms: C_21  and  N_22 
REMARK    5  A    between atoms: N_22  and  C_23 
REMARK    6  A    between atoms: C_23  and  C_24 
REMARK    7  A    between atoms: C_30  and  N_31 
ROOT
HETATM    1  N   UNL     1      42.483 -11.891   4.803  1.00  0.00    -0.202 N 
HETATM    2  C   UNL     1      42.731 -13.171   4.345  1.00  0.00     0.183 A 
HETATM    3  C   UNL     1      42.518 -13.160   2.967  1.00  0.00     0.124 A 
HETATM    4  N   UNL     1      42.590 -14.306   2.243  1.00  0.00    -0.242 NA
HETATM    5  C   UNL     1      42.946 -15.397   2.934  1.00  0.00     0.086 A 
HETATM    6  C   UNL     1      43.191 -15.374   4.333  1.00  0.00     0.088 A 
HETATM    7  N   UNL     1      43.063 -14.262   5.077  1.00  0.00    -0.225 NA
HETATM    8  C   UNL     1      43.082 -16.595   2.245  1.00  0.00     0.034 A 
HETATM    9  C   UNL     1      43.468 -17.770   2.891  1.00  0.00     0.002 A 
HETATM   10  C   UNL     1      43.723 -17.747   4.255  1.00  0.00     0.002 A 
HETATM   11  C   UNL     1      43.579 -16.551   4.961  1.00  0.00     0.034 A 
HETATM   12  C   UNL     1      42.176 -11.835   2.577  1.00  0.00     0.104 C 
HETATM   13  C   UNL     1      42.389 -11.050   3.701  1.00  0.00     0.123 C 
ENDROOT
BRANCH   1  14
HETATM   14  N   UNL     1      42.191 -11.383   6.040  1.00  0.00    -0.176 NA
HETATM   15  C   UNL     1      40.956 -11.073   6.257  1.00  0.00     0.150 C 
BRANCH  15  16
HETATM   16  C   UNL     1      40.634 -10.123   7.348  1.00  0.00    -0.017 A 
HETATM   17  C   UNL     1      39.346 -10.097   7.887  1.00  0.00     0.013 A 
HETATM   18  C   UNL     1      39.098  -9.428   9.087  1.00  0.00     0.009 A 
HETATM   19  C   UNL     1      40.128  -8.771   9.778  1.00  0.00    -0.051 A 
HETATM   20  C   UNL     1      41.402  -8.744   9.171  1.00  0.00     0.009 A 
HETATM   21  C   UNL     1      41.661  -9.422   7.974  1.00  0.00     0.013 A 
BRANCH  19  22
HETATM   22  C   UNL     1      39.902  -8.120  11.155  1.00  0.00    -0.024 C 
HETATM   23  C   UNL     1      41.026  -7.140  11.571  1.00  0.00     0.019 C 
HETATM   24  C   UNL     1      39.819  -9.224  12.225  1.00  0.00     0.019 C 
HETATM   25  C   UNL     1      38.588  -7.306  11.156  1.00  0.00     0.019 C 
ENDBRANCH  19  22
ENDBRANCH  15  16
ENDBRANCH   1  14
BRANCH  13  26
HETATM   26  N   UNL     1      42.340  -9.691   3.872  1.00  0.00    -0.286 NA
HETATM   27  H   UNL     1      43.253  -9.256   4.040  1.00  0.00     0.125 HD
HETATM   28  H   UNL     1      41.820  -9.158   3.173  1.00  0.00     0.125 HD
ENDBRANCH  13  26
BRANCH  12  29
HETATM   29  C   UNL     1      41.625 -11.374   1.306  1.00  0.00     0.257 C 
HETATM   30  N   UNL     1      40.784 -12.305   0.728  1.00  0.00    -0.354 N 
HETATM   31  H   UNL     1      40.655 -13.170   1.246  1.00  0.00     0.162 HD
HETATM   32  O   UNL     1      41.938 -10.320   0.771  1.00  0.00    -0.267 OA
BRANCH  30  33
HETATM   33  C   UNL     1      40.363 -12.291  -0.659  1.00  0.00     0.155 C 
BRANCH  33  34
HETATM   34  C   UNL     1      39.052 -13.044  -0.946  1.00  0.00     0.139 C 
HETATM   35  O   UNL     1      39.328 -14.449  -1.097  1.00  0.00    -0.384 OA
HETATM   36  C   UNL     1      38.901 -14.874  -2.395  1.00  0.00     0.168 C 
HETATM   37  C   UNL     1      38.727 -13.625  -3.226  1.00  0.00     0.029 C 
HETATM   38  C   UNL     1      38.291 -12.612  -2.195  1.00  0.00     0.035 C 
ENDBRANCH  33  34
ENDBRANCH  30  33
ENDBRANCH  12  29
TORSDOF 7
ENDMDL
MODEL 8
REMARK VINA RESULT:      -8.1      3.187      8.956
REMARK  7 active torsions:
REMARK  status: ('A' for Active; 'I' for Inactive)
REMARK    1  A    between atoms: C_2  and  C_3 
REMARK    2  A    between atoms: C_6  and  C_7 
REMARK    3  A    between atoms: N_8  and  N_9 
REMARK    4  A    between atoms: C_20  and  C_21 
REMARK       I    between atoms: C_21  and  N_22 
REMARK    5  A    between atoms: N_22  and  C_23 
REMARK    6  A    between atoms: C_23  and  C_24 
REMARK    7  A    between atoms: C_30  and  N_31 
ROOT
HETATM    1  N   UNL     1      41.825 -12.128   4.742  1.00  0.00    -0.202 N 
HETATM    2  C   UNL     1      42.354 -13.383   4.972  1.00  0.00     0.183 A 
HETATM    3  C   UNL     1      43.146 -13.288   6.117  1.00  0.00     0.124 A 
HETATM    4  N   UNL     1      43.882 -14.346   6.544  1.00  0.00    -0.242 NA
HETATM    5  C   UNL     1      43.726 -15.473   5.835  1.00  0.00     0.086 A 
HETATM    6  C   UNL     1      42.887 -15.552   4.693  1.00  0.00     0.088 A 
HETATM    7  N   UNL     1      42.200 -14.498   4.218  1.00  0.00    -0.225 NA
HETATM    8  C   UNL     1      44.417 -16.606   6.244  1.00  0.00     0.034 A 
HETATM    9  C   UNL     1      44.292 -17.821   5.570  1.00  0.00     0.002 A 
HETATM   10  C   UNL     1      43.461 -17.904   4.463  1.00  0.00     0.002 A 
HETATM   11  C   UNL     1      42.770 -16.770   4.034  1.00  0.00     0.034 A 
HETATM   12  C   UNL     1      43.058 -11.958   6.614  1.00  0.00     0.104 C 
HETATM   13  C   UNL     1      42.061 -11.347   5.867  1.00  0.00     0.123 C 
ENDROOT
BRANCH   1  14
HETATM   14  N   UNL     1      41.288 -11.531   3.633  1.00  0.00    -0.176 NA
HETATM   15  C   UNL     1      40.208 -12.061   3.162  1.00  0.00     0.150 C 
BRANCH  15  16
HETATM   16  C   UNL     1      39.827 -11.787   1.756  1.00  0.00    -0.017 A 
HETATM   17  C   UNL     1      40.783 -11.899   0.744  1.00  0.00     0.013 A 
HETATM   18  C   UNL     1      40.392 -11.928  -0.596  1.00  0.00     0.009 A 
HETATM   19  C   UNL     1      39.038 -11.846  -0.957  1.00  0.00    -0.051 A 
HETATM   20  C   UNL     1      38.100 -11.652   0.079  1.00  0.00     0.009 A 
HETATM   21  C   UNL     1      38.484 -11.634   1.425  1.00  0.00     0.013 A 
BRANCH  19  22
HETATM   22  C   UNL     1      38.574 -11.984  -2.419  1.00  0.00    -0.024 C 
HETATM   23  C   UNL     1      37.053 -12.231  -2.568  1.00  0.00     0.019 C 
HETATM   24  C   UNL     1      39.310 -13.170  -3.070  1.00  0.00     0.019 C 
HETATM   25  C   UNL     1      38.887 -10.692  -3.207  1.00  0.00     0.019 C 
ENDBRANCH  19  22
ENDBRANCH  15  16
ENDBRANCH   1  14
BRANCH  13  26
HETATM   26  N   UNL     1      41.471 -10.116   5.989  1.00  0.00    -0.286 NA
HETATM   27  H   UNL     1      40.802 -10.044   6.763  1.00  0.00     0.125 HD
HETATM   28  H   UNL     1      42.093  -9.306   5.987  1.00  0.00     0.125 HD
ENDBRANCH  13  26
BRANCH  12  29
HETATM   29  C   UNL     1      43.887 -11.306   7.624  1.00  0.00     0.257 C 
HETATM   30  N   UNL     1      43.189 -10.361   8.349  1.00  0.00    -0.354 N 
HETATM   31  H   UNL     1      42.211 -10.241   8.099  1.00  0.00     0.162 HD
HETATM   32  O   UNL     1      45.086 -11.512   7.755  1.00  0.00    -0.267 OA
BRANCH  30  33
HETATM   33  C   UNL     1      43.797  -9.331   9.166  1.00  0.00     0.155 C 
BRANCH  33  34
HETATM   34  C   UNL     1      44.316  -9.809  10.534  1.00  0.00     0.139 C 
HETATM   35  O   UNL     1      43.659 -11.039  10.894  1.00  0.00    -0.384 OA
HETATM   36  C   UNL     1      42.970 -10.856  12.134  1.00  0.00     0.168 C 
HETATM   37  C   UNL     1      42.855  -9.366  12.354  1.00  0.00     0.029 C 
HETATM   38  C   UNL     1      44.114  -8.848  11.701  1.00  0.00     0.035 C 
ENDBRANCH  33  34
ENDBRANCH  30  33
ENDBRANCH  12  29
TORSDOF 7
ENDMDL
MODEL 9
REMARK VINA RESULT:      -8.1      1.929      2.524
REMARK  7 active torsions:
REMARK  status: ('A' for Active; 'I' for Inactive)
REMARK    1  A    between atoms: C_2  and  C_3 
REMARK    2  A    between atoms: C_6  and  C_7 
REMARK    3  A    between atoms: N_8  and  N_9 
REMARK    4  A    between atoms: C_20  and  C_21 
REMARK       I    between atoms: C_21  and  N_22 
REMARK    5  A    between atoms: N_22  and  C_23 
REMARK    6  A    between atoms: C_23  and  C_24 
REMARK    7  A    between atoms: C_30  and  N_31 
ROOT
HETATM    1  N   UNL     1      42.177 -12.817   3.331  1.00  0.00    -0.202 N 
HETATM    2  C   UNL     1      42.488 -14.155   3.179  1.00  0.00     0.183 A 
HETATM    3  C   UNL     1      41.897 -14.579   1.989  1.00  0.00     0.124 A 
HETATM    4  N   UNL     1      41.946 -15.883   1.613  1.00  0.00    -0.242 NA
HETATM    5  C   UNL     1      42.653 -16.684   2.422  1.00  0.00     0.086 A 
HETATM    6  C   UNL     1      43.274 -16.219   3.612  1.00  0.00     0.088 A 
HETATM    7  N   UNL     1      43.184 -14.945   4.032  1.00  0.00    -0.225 NA
HETATM    8  C   UNL     1      42.780 -18.022   2.073  1.00  0.00     0.034 A 
HETATM    9  C   UNL     1      43.516 -18.914   2.854  1.00  0.00     0.002 A 
HETATM   10  C   UNL     1      44.136 -18.459   4.008  1.00  0.00     0.002 A 
HETATM   11  C   UNL     1      44.007 -17.119   4.377  1.00  0.00     0.034 A 
HETATM   12  C   UNL     1      41.252 -13.463   1.387  1.00  0.00     0.104 C 
HETATM   13  C   UNL     1      41.643 -12.361   2.133  1.00  0.00     0.123 C 
ENDROOT
BRANCH   1  14
HETATM   14  N   UNL     1      42.167 -11.979   4.413  1.00  0.00    -0.176 NA
HETATM   15  C   UNL     1      41.192 -12.128   5.247  1.00  0.00     0.150 C 
BRANCH  15  16
HETATM   16  C   UNL     1      40.849 -11.012   6.159  1.00  0.00    -0.017 A 
HETATM   17  C   UNL     1      39.585 -10.963   6.751  1.00  0.00     0.013 A 
HETATM   18  C   UNL     1      39.339 -10.097   7.819  1.00  0.00     0.009 A 
HETATM   19  C   UNL     1      40.349  -9.261   8.321  1.00  0.00    -0.051 A 
HETATM   20  C   UNL     1      41.592  -9.271   7.654  1.00  0.00     0.009 A 
HETATM   21  C   UNL     1      41.850 -10.145   6.590  1.00  0.00     0.013 A 
BRANCH  19  22
HETATM   22  C   UNL     1      40.134  -8.378   9.564  1.00  0.00    -0.024 C 
HETATM   23  C   UNL     1      39.140  -7.214   9.336  1.00  0.00     0.019 C 
HETATM   24  C   UNL     1      41.483  -7.771   9.988  1.00  0.00     0.019 C 
HETATM   25  C   UNL     1      39.562  -9.220  10.729  1.00  0.00     0.019 C 
ENDBRANCH  19  22
ENDBRANCH  15  16
ENDBRANCH   1  14
BRANCH  13  26
HETATM   26  N   UNL     1      41.426 -11.021   1.940  1.00  0.00    -0.286 NA
HETATM   27  H   UNL     1      40.770 -10.806   1.182  1.00  0.00     0.125 HD
HETATM   28  H   UNL     1      41.199 -10.468   2.768  1.00  0.00     0.125 HD
ENDBRANCH  13  26
BRANCH  12  29
HETATM   29  C   UNL     1      40.298 -13.451   0.281  1.00  0.00     0.257 C 
HETATM   30  N   UNL     1      40.835 -13.964  -0.883  1.00  0.00    -0.354 N 
HETATM   31  H   UNL     1      41.800 -14.279  -0.827  1.00  0.00     0.162 HD
HETATM   32  O   UNL     1      39.179 -12.962   0.354  1.00  0.00    -0.267 OA
BRANCH  30  33
HETATM   33  C   UNL     1      40.272 -13.776  -2.205  1.00  0.00     0.155 C 
BRANCH  33  34
HETATM   34  C   UNL     1      40.690 -12.473  -2.909  1.00  0.00     0.139 C 
HETATM   35  O   UNL     1      41.720 -11.821  -2.143  1.00  0.00    -0.384 OA
HETATM   36  C   UNL     1      41.271 -10.515  -1.770  1.00  0.00     0.168 C 
HETATM   37  C   UNL     1      39.772 -10.500  -1.959  1.00  0.00     0.029 C 
HETATM   38  C   UNL     1      39.586 -11.443  -3.123  1.00  0.00     0.035 C 
ENDBRANCH  33  34
ENDBRANCH  30  33
ENDBRANCH  12  29
TORSDOF 7
ENDMDL
MODEL 10
REMARK VINA RESULT:      -8.0     17.316     19.159
REMARK  7 active torsions:
REMARK  status: ('A' for Active; 'I' for Inactive)
REMARK    1  A    between atoms: C_2  and  C_3 
REMARK    2  A    between atoms: C_6  and  C_7 
REMARK    3  A    between atoms: N_8  and  N_9 
REMARK    4  A    between atoms: C_20  and  C_21 
REMARK       I    between atoms: C_21  and  N_22 
REMARK    5  A    between atoms: N_22  and  C_23 
REMARK    6  A    between atoms: C_23  and  C_24 
REMARK    7  A    between atoms: C_30  and  N_31 
ROOT
HETATM    1  N   UNL     1      46.764 -29.887   2.371  1.00  0.00    -0.202 N 
HETATM    2  C   UNL     1      46.215 -29.612   1.133  1.00  0.00     0.183 A 
HETATM    3  C   UNL     1      44.907 -30.097   1.149  1.00  0.00     0.124 A 
HETATM    4  N   UNL     1      44.137 -30.059   0.032  1.00  0.00    -0.242 NA
HETATM    5  C   UNL     1      44.700 -29.466  -1.030  1.00  0.00     0.086 A 
HETATM    6  C   UNL     1      46.022 -28.949  -1.010  1.00  0.00     0.088 A 
HETATM    7  N   UNL     1      46.822 -29.034   0.068  1.00  0.00    -0.225 NA
HETATM    8  C   UNL     1      43.950 -29.354  -2.193  1.00  0.00     0.034 A 
HETATM    9  C   UNL     1      44.459 -28.733  -3.334  1.00  0.00     0.002 A 
HETATM   10  C   UNL     1      45.745 -28.214  -3.312  1.00  0.00     0.002 A 
HETATM   11  C   UNL     1      46.514 -28.330  -2.152  1.00  0.00     0.034 A 
HETATM   12  C   UNL     1      44.646 -30.638   2.439  1.00  0.00     0.104 C 
HETATM   13  C   UNL     1      45.737 -30.282   3.219  1.00  0.00     0.123 C 
ENDROOT
BRANCH   1  14
HETATM   14  N   UNL     1      48.054 -29.973   2.821  1.00  0.00    -0.176 NA
HETATM   15  C   UNL     1      48.651 -31.104   2.640  1.00  0.00     0.150 C 
BRANCH  15  16
HETATM   16  C   UNL     1      49.833 -31.434   3.472  1.00  0.00    -0.017 A 
HETATM   17  C   UNL     1      50.402 -30.454   4.287  1.00  0.00     0.013 A 
HETATM   18  C   UNL     1      51.319 -30.807   5.280  1.00  0.00     0.009 A 
HETATM   19  C   UNL     1      51.687 -32.147   5.482  1.00  0.00    -0.051 A 
HETATM   20  C   UNL     1      51.160 -33.107   4.593  1.00  0.00     0.009 A 
HETATM   21  C   UNL     1      50.231 -32.761   3.603  1.00  0.00     0.013 A 
BRANCH  19  22
HETATM   22  C   UNL     1      52.611 -32.573   6.638  1.00  0.00    -0.024 C 
HETATM   23  C   UNL     1      53.733 -33.549   6.209  1.00  0.00     0.019 C 
HETATM   24  C   UNL     1      51.769 -33.268   7.723  1.00  0.00     0.019 C 
HETATM   25  C   UNL     1      53.314 -31.338   7.248  1.00  0.00     0.019 C 
ENDBRANCH  19  22
ENDBRANCH  15  16
ENDBRANCH   1  14
BRANCH  13  26
HETATM   26  N   UNL     1      45.970 -30.429   4.562  1.00  0.00    -0.286 NA
HETATM   27  H   UNL     1      46.422 -31.314   4.816  1.00  0.00     0.125 HD
HETATM   28  H   UNL     1      46.430 -29.651   5.037  1.00  0.00     0.125 HD
ENDBRANCH  13  26
BRANCH  12  29
HETATM   29  C   UNL     1      43.529 -31.476   2.866  1.00  0.00     0.257 C 
HETATM   30  N   UNL     1      42.793 -30.896   3.880  1.00  0.00    -0.354 N 
HETATM   31  H   UNL     1      43.110 -29.982   4.193  1.00  0.00     0.162 HD
HETATM   32  O   UNL     1      43.320 -32.601   2.435  1.00  0.00    -0.267 OA
BRANCH  30  33
HETATM   33  C   UNL     1      41.857 -31.603   4.731  1.00  0.00     0.155 C 
BRANCH  33  34
HETATM   34  C   UNL     1      40.377 -31.440   4.342  1.00  0.00     0.139 C 
HETATM   35  O   UNL     1      39.544 -31.804   5.459  1.00  0.00    -0.384 OA
HETATM   36  C   UNL     1      38.682 -32.877   5.071  1.00  0.00     0.168 C 
HETATM   37  C   UNL     1      39.266 -33.472   3.811  1.00  0.00     0.029 C 
HETATM   38  C   UNL     1      39.900 -32.269   3.154  1.00  0.00     0.035 C 
ENDBRANCH  33  34
ENDBRANCH  30  33
ENDBRANCH  12  29
TORSDOF 7
ENDMDL
