MODEL 1
REMARK VINA RESULT:      -9.4      0.000      0.000
REMARK  6 active torsions:
REMARK  status: ('A' for Active; 'I' for Inactive)
REMARK    1  A    between atoms: N_6  and  C_7 
REMARK    2  A    between atoms: C_8  and  N_9 
REMARK    3  A    between atoms: C_10  and  N_11 
REMARK       I    between atoms: N_11  and  C_12 
REMARK    4  A    between atoms: C_12  and  C_13 
REMARK    5  A    between atoms: C_14  and  C_15 
REMARK    6  A    between atoms: C_17  and  C_18 
ROOT
HETATM    1  N   UNL     1      42.655 -11.338   4.630  1.00  0.00    -0.300 N 
HETATM    2  C   UNL     1      44.011 -11.438   4.896  1.00  0.00     0.247 C 
HETATM    3  O   UNL     1      44.895 -11.447   4.049  1.00  0.00    -0.268 OA
HETATM    4  H   UNL     1      42.053 -11.095   5.402  1.00  0.00     0.171 HD
ENDROOT
BRANCH   1   5
HETATM    5  C   UNL     1      41.991 -11.801   3.519  1.00  0.00     0.179 C 
HETATM    6  N   UNL     1      41.494 -13.072   3.569  1.00  0.00    -0.331 N 
HETATM    7  H   UNL     1      41.155 -13.404   2.668  1.00  0.00     0.168 HD
HETATM    8  S   UNL     1      41.829 -11.005   2.055  1.00  0.00    -0.040 SA
BRANCH   6   9
HETATM    9  C   UNL     1      41.155 -13.945   4.627  1.00  0.00     0.061 A 
HETATM   10  C   UNL     1      41.682 -15.269   4.548  1.00  0.00     0.057 A 
HETATM   11  C   UNL     1      41.241 -16.203   5.499  1.00  0.00     0.031 A 
HETATM   12  C   UNL     1      40.352 -15.842   6.514  1.00  0.00     0.002 A 
HETATM   13  C   UNL     1      39.862 -14.544   6.584  1.00  0.00     0.002 A 
HETATM   14  C   UNL     1      40.249 -13.600   5.635  1.00  0.00     0.032 A 
BRANCH  10  15
HETATM   15  N   UNL     1      42.605 -15.600   3.534  1.00  0.00    -0.376 N 
HETATM   16  C   UNL     1      42.116 -16.061   2.218  1.00  0.00     0.150 C 
HETATM   17  C   UNL     1      42.054 -17.601   2.099  1.00  0.00     0.254 C 
HETATM   18  N   UNL     1      43.364 -18.243   2.547  1.00  0.00    -0.072 N 
HETATM   19  C   UNL     1      43.323 -19.738   2.446  1.00  0.00     0.269 C 
HETATM   20  H   UNL     1      44.098 -17.907   1.908  1.00  0.00     0.279 HD
HETATM   21  C   UNL     1      43.747 -17.782   3.951  1.00  0.00     0.254 C 
HETATM   22  C   UNL     1      43.853 -16.247   4.001  1.00  0.00     0.150 C 
ENDBRANCH  10  15
ENDBRANCH   6   9
ENDBRANCH   1   5
BRANCH   2  23
HETATM   23  C   UNL     1      44.330 -11.329   6.344  1.00  0.00     0.077 C 
HETATM   24  C   UNL     1      43.923 -10.226   6.989  1.00  0.00     0.042 C 
BRANCH  24  25
HETATM   25  C   UNL     1      44.212 -10.002   8.362  1.00  0.00     0.076 A 
HETATM   26  O   UNL     1      43.276  -9.707   9.330  1.00  0.00    -0.310 OA
HETATM   27  C   UNL     1      43.910  -9.625  10.539  1.00  0.00     0.086 A 
HETATM   28  C   UNL     1      45.262  -9.813  10.361  1.00  0.00     0.041 A 
HETATM   29  C   UNL     1      45.451 -10.066   8.985  1.00  0.00     0.040 A 
BRANCH  27  30
HETATM   30  C   UNL     1      43.072  -9.383  11.711  1.00  0.00     0.001 A 
HETATM   31  C   UNL     1      43.403  -8.401  12.655  1.00  0.00     0.038 A 
HETATM   32  C   UNL     1      42.564  -8.153  13.744  1.00  0.00     0.036 A 
HETATM   33 CL   UNL     1      42.988  -6.933  14.883  1.00  0.00    -0.084 Cl
HETATM   34  C   UNL     1      41.387  -8.874  13.917  1.00  0.00     0.047 A 
HETATM   35  C   UNL     1      41.056  -9.855  12.988  1.00  0.00     0.036 A 
HETATM   36 CL   UNL     1      39.605 -10.760  13.185  1.00  0.00    -0.084 Cl
HETATM   37  C   UNL     1      41.885 -10.110  11.894  1.00  0.00     0.038 A 
ENDBRANCH  27  30
ENDBRANCH  24  25
ENDBRANCH   2  23
TORSDOF 6
ENDMDL
MODEL 2
REMARK VINA RESULT:      -9.2      4.870     10.079
REMARK  6 active torsions:
REMARK  status: ('A' for Active; 'I' for Inactive)
REMARK    1  A    between atoms: N_6  and  C_7 
REMARK    2  A    between atoms: C_8  and  N_9 
REMARK    3  A    between atoms: C_10  and  N_11 
REMARK       I    between atoms: N_11  and  C_12 
REMARK    4  A    between atoms: C_12  and  C_13 
REMARK    5  A    between atoms: C_14  and  C_15 
REMARK    6  A    between atoms: C_17  and  C_18 
ROOT
HETATM    1  N   UNL     1      41.902  -8.640   6.506  1.00  0.00    -0.300 N 
HETATM    2  C   UNL     1      40.819  -9.486   6.680  1.00  0.00     0.247 C 
HETATM    3  O   UNL     1      39.669  -9.123   6.889  1.00  0.00    -0.268 OA
HETATM    4  H   UNL     1      42.735  -9.040   6.101  1.00  0.00     0.171 HD
ENDROOT
BRANCH   1   5
HETATM    5  C   UNL     1      42.085  -7.399   7.068  1.00  0.00     0.179 C 
HETATM    6  N   UNL     1      42.743  -7.343   8.264  1.00  0.00    -0.331 N 
HETATM    7  H   UNL     1      42.707  -6.422   8.698  1.00  0.00     0.168 HD
HETATM    8  S   UNL     1      41.478  -5.948   6.495  1.00  0.00    -0.040 SA
BRANCH   6   9
HETATM    9  C   UNL     1      43.633  -8.217   8.928  1.00  0.00     0.061 A 
HETATM   10  C   UNL     1      43.277  -8.592  10.259  1.00  0.00     0.057 A 
HETATM   11  C   UNL     1      44.213  -9.331  10.999  1.00  0.00     0.031 A 
HETATM   12  C   UNL     1      45.431  -9.727  10.442  1.00  0.00     0.002 A 
HETATM   13  C   UNL     1      45.753  -9.367   9.140  1.00  0.00     0.002 A 
HETATM   14  C   UNL     1      44.865  -8.601   8.388  1.00  0.00     0.032 A 
BRANCH  10  15
HETATM   15  N   UNL     1      42.027  -8.209  10.788  1.00  0.00    -0.376 N 
HETATM   16  C   UNL     1      41.909  -6.957  11.564  1.00  0.00     0.150 C 
HETATM   17  C   UNL     1      42.028  -7.177  13.089  1.00  0.00     0.254 C 
HETATM   18  N   UNL     1      41.109  -8.300  13.560  1.00  0.00    -0.072 N 
HETATM   19  C   UNL     1      41.215  -8.534  15.037  1.00  0.00     0.269 C 
HETATM   20  H   UNL     1      40.144  -8.004  13.359  1.00  0.00     0.279 HD
HETATM   21  C   UNL     1      41.361  -9.580  12.766  1.00  0.00     0.254 C 
HETATM   22  C   UNL     1      41.172  -9.322  11.260  1.00  0.00     0.150 C 
ENDBRANCH  10  15
ENDBRANCH   6   9
ENDBRANCH   1   5
BRANCH   2  23
HETATM   23  C   UNL     1      41.138 -10.908   6.386  1.00  0.00     0.077 C 
HETATM   24  C   UNL     1      42.382 -11.333   6.648  1.00  0.00     0.042 C 
BRANCH  24  25
HETATM   25  C   UNL     1      42.804 -12.660   6.365  1.00  0.00     0.076 A 
HETATM   26  O   UNL     1      42.305 -13.451   5.352  1.00  0.00    -0.310 OA
HETATM   27  C   UNL     1      42.994 -14.633   5.343  1.00  0.00     0.086 A 
HETATM   28  C   UNL     1      43.905 -14.641   6.374  1.00  0.00     0.041 A 
HETATM   29  C   UNL     1      43.794 -13.387   7.013  1.00  0.00     0.040 A 
BRANCH  27  30
HETATM   30  C   UNL     1      42.655 -15.588   4.290  1.00  0.00     0.001 A 
HETATM   31  C   UNL     1      41.565 -15.374   3.435  1.00  0.00     0.038 A 
HETATM   32  C   UNL     1      41.284 -16.274   2.404  1.00  0.00     0.036 A 
HETATM   33 CL   UNL     1      39.945 -15.982   1.361  1.00  0.00    -0.084 Cl
HETATM   34  C   UNL     1      42.077 -17.400   2.206  1.00  0.00     0.047 A 
HETATM   35  C   UNL     1      43.156 -17.622   3.054  1.00  0.00     0.036 A 
HETATM   36 CL   UNL     1      44.148 -19.011   2.827  1.00  0.00    -0.084 Cl
HETATM   37  C   UNL     1      43.448 -16.728   4.086  1.00  0.00     0.038 A 
ENDBRANCH  27  30
ENDBRANCH  24  25
ENDBRANCH   2  23
TORSDOF 6
ENDMDL
MODEL 3
REMARK VINA RESULT:      -9.2      4.861     10.052
REMARK  6 active torsions:
REMARK  status: ('A' for Active; 'I' for Inactive)
REMARK    1  A    between atoms: N_6  and  C_7 
REMARK    2  A    between atoms: C_8  and  N_9 
REMARK    3  A    between atoms: C_10  and  N_11 
REMARK       I    between atoms: N_11  and  C_12 
REMARK    4  A    between atoms: C_12  and  C_13 
REMARK    5  A    between atoms: C_14  and  C_15 
REMARK    6  A    between atoms: C_17  and  C_18 
ROOT
HETATM    1  N   UNL     1      41.906  -8.666   6.503  1.00  0.00    -0.300 N 
HETATM    2  C   UNL     1      40.821  -9.513   6.666  1.00  0.00     0.247 C 
HETATM    3  O   UNL     1      39.667  -9.149   6.851  1.00  0.00    -0.268 OA
HETATM    4  H   UNL     1      42.747  -9.068   6.118  1.00  0.00     0.171 HD
ENDROOT
BRANCH   1   5
HETATM    5  C   UNL     1      42.078  -7.420   7.058  1.00  0.00     0.179 C 
HETATM    6  N   UNL     1      42.736  -7.350   8.253  1.00  0.00    -0.331 N 
HETATM    7  H   UNL     1      42.692  -6.427   8.681  1.00  0.00     0.168 HD
HETATM    8  S   UNL     1      41.455  -5.979   6.477  1.00  0.00    -0.040 SA
BRANCH   6   9
HETATM    9  C   UNL     1      43.636  -8.211   8.921  1.00  0.00     0.061 A 
HETATM   10  C   UNL     1      43.284  -8.583  10.254  1.00  0.00     0.057 A 
HETATM   11  C   UNL     1      44.227  -9.309  10.998  1.00  0.00     0.031 A 
HETATM   12  C   UNL     1      45.450  -9.693  10.443  1.00  0.00     0.002 A 
HETATM   13  C   UNL     1      45.769  -9.336   9.139  1.00  0.00     0.002 A 
HETATM   14  C   UNL     1      44.872  -8.584   8.383  1.00  0.00     0.032 A 
BRANCH  10  15
HETATM   15  N   UNL     1      42.029  -8.212  10.780  1.00  0.00    -0.376 N 
HETATM   16  C   UNL     1      41.901  -6.968  11.567  1.00  0.00     0.150 C 
HETATM   17  C   UNL     1      42.015  -7.201  13.091  1.00  0.00     0.254 C 
HETATM   18  N   UNL     1      41.099  -8.334  13.547  1.00  0.00    -0.072 N 
HETATM   19  C   UNL     1      41.200  -8.580  15.023  1.00  0.00     0.269 C 
HETATM   20  H   UNL     1      40.134  -8.041  13.344  1.00  0.00     0.279 HD
HETATM   21  C   UNL     1      41.361  -9.605  12.742  1.00  0.00     0.254 C 
HETATM   22  C   UNL     1      41.178  -9.334  11.238  1.00  0.00     0.150 C 
ENDBRANCH  10  15
ENDBRANCH   6   9
ENDBRANCH   1   5
BRANCH   2  23
HETATM   23  C   UNL     1      41.148 -10.936   6.391  1.00  0.00     0.077 C 
HETATM   24  C   UNL     1      42.404 -11.342   6.621  1.00  0.00     0.042 C 
BRANCH  24  25
HETATM   25  C   UNL     1      42.833 -12.670   6.352  1.00  0.00     0.076 A 
HETATM   26  O   UNL     1      42.366 -13.460   5.323  1.00  0.00    -0.310 OA
HETATM   27  C   UNL     1      43.051 -14.643   5.335  1.00  0.00     0.086 A 
HETATM   28  C   UNL     1      43.928 -14.654   6.396  1.00  0.00     0.041 A 
HETATM   29  C   UNL     1      43.799 -13.399   7.032  1.00  0.00     0.040 A 
BRANCH  27  30
HETATM   30  C   UNL     1      42.745 -15.597   4.271  1.00  0.00     0.001 A 
HETATM   31  C   UNL     1      43.514 -16.754   4.086  1.00  0.00     0.038 A 
HETATM   32  C   UNL     1      43.177 -17.677   3.093  1.00  0.00     0.036 A 
HETATM   33 CL   UNL     1      44.132 -19.096   2.893  1.00  0.00    -0.084 Cl
HETATM   34  C   UNL     1      42.076 -17.468   2.269  1.00  0.00     0.047 A 
HETATM   35  C   UNL     1      41.312 -16.319   2.444  1.00  0.00     0.036 A 
HETATM   36 CL   UNL     1      39.947 -16.041   1.432  1.00  0.00    -0.084 Cl
HETATM   37  C   UNL     1      41.637 -15.390   3.434  1.00  0.00     0.038 A 
ENDBRANCH  27  30
ENDBRANCH  24  25
ENDBRANCH   2  23
TORSDOF 6
ENDMDL
MODEL 4
REMARK VINA RESULT:      -9.1      4.426     10.339
REMARK  6 active torsions:
REMARK  status: ('A' for Active; 'I' for Inactive)
REMARK    1  A    between atoms: N_6  and  C_7 
REMARK    2  A    between atoms: C_8  and  N_9 
REMARK    3  A    between atoms: C_10  and  N_11 
REMARK       I    between atoms: N_11  and  C_12 
REMARK    4  A    between atoms: C_12  and  C_13 
REMARK    5  A    between atoms: C_14  and  C_15 
REMARK    6  A    between atoms: C_17  and  C_18 
ROOT
HETATM    1  N   UNL     1      41.663 -10.495   6.268  1.00  0.00    -0.300 N 
HETATM    2  C   UNL     1      41.917 -10.094   4.965  1.00  0.00     0.247 C 
HETATM    3  O   UNL     1      42.034  -8.932   4.598  1.00  0.00    -0.268 OA
HETATM    4  H   UNL     1      41.832 -11.464   6.489  1.00  0.00     0.171 HD
ENDROOT
BRANCH   1   5
HETATM    5  C   UNL     1      40.947  -9.813   7.221  1.00  0.00     0.179 C 
HETATM    6  N   UNL     1      41.497  -9.714   8.468  1.00  0.00    -0.331 N 
HETATM    7  H   UNL     1      40.852  -9.337   9.161  1.00  0.00     0.168 HD
HETATM    8  S   UNL     1      39.405  -9.184   7.046  1.00  0.00    -0.040 SA
BRANCH   6   9
HETATM    9  C   UNL     1      42.816  -9.824   8.963  1.00  0.00     0.061 A 
HETATM   10  C   UNL     1      43.039  -9.332  10.285  1.00  0.00     0.057 A 
HETATM   11  C   UNL     1      44.364  -9.284  10.746  1.00  0.00     0.031 A 
HETATM   12  C   UNL     1      45.424  -9.741   9.959  1.00  0.00     0.002 A 
HETATM   13  C   UNL     1      45.186 -10.230   8.682  1.00  0.00     0.002 A 
HETATM   14  C   UNL     1      43.888 -10.259   8.176  1.00  0.00     0.032 A 
BRANCH  10  15
HETATM   15  N   UNL     1      41.948  -8.908  11.071  1.00  0.00    -0.376 N 
HETATM   16  C   UNL     1      41.663  -7.466  11.216  1.00  0.00     0.150 C 
HETATM   17  C   UNL     1      42.293  -6.848  12.485  1.00  0.00     0.254 C 
HETATM   18  N   UNL     1      41.975  -7.682  13.723  1.00  0.00    -0.072 N 
HETATM   19  C   UNL     1      42.583  -7.103  14.965  1.00  0.00     0.269 C 
HETATM   20  H   UNL     1      40.952  -7.669  13.840  1.00  0.00     0.279 HD
HETATM   21  C   UNL     1      42.384  -9.139  13.520  1.00  0.00     0.254 C 
HETATM   22  C   UNL     1      41.684  -9.724  12.279  1.00  0.00     0.150 C 
ENDBRANCH  10  15
ENDBRANCH   6   9
ENDBRANCH   1   5
BRANCH   2  23
HETATM   23  C   UNL     1      42.243 -11.227   4.060  1.00  0.00     0.077 C 
HETATM   24  C   UNL     1      42.432 -12.432   4.616  1.00  0.00     0.042 C 
BRANCH  24  25
HETATM   25  C   UNL     1      42.789 -13.573   3.847  1.00  0.00     0.076 A 
HETATM   26  O   UNL     1      43.008 -14.835   4.358  1.00  0.00    -0.310 OA
HETATM   27  C   UNL     1      43.266 -15.687   3.319  1.00  0.00     0.086 A 
HETATM   28  C   UNL     1      43.267 -14.981   2.138  1.00  0.00     0.041 A 
HETATM   29  C   UNL     1      42.952 -13.646   2.471  1.00  0.00     0.040 A 
BRANCH  27  30
HETATM   30  C   UNL     1      43.460 -17.096   3.653  1.00  0.00     0.001 A 
HETATM   31  C   UNL     1      43.437 -17.541   4.981  1.00  0.00     0.038 A 
HETATM   32  C   UNL     1      43.578 -18.899   5.277  1.00  0.00     0.036 A 
HETATM   33 CL   UNL     1      43.534 -19.421   6.917  1.00  0.00    -0.084 Cl
HETATM   34  C   UNL     1      43.746 -19.836   4.262  1.00  0.00     0.047 A 
HETATM   35  C   UNL     1      43.776 -19.401   2.942  1.00  0.00     0.036 A 
HETATM   36 CL   UNL     1      43.986 -20.544   1.672  1.00  0.00    -0.084 Cl
HETATM   37  C   UNL     1      43.634 -18.047   2.634  1.00  0.00     0.038 A 
ENDBRANCH  27  30
ENDBRANCH  24  25
ENDBRANCH   2  23
TORSDOF 6
ENDMDL
MODEL 5
REMARK VINA RESULT:      -9.0      4.402     10.391
REMARK  6 active torsions:
REMARK  status: ('A' for Active; 'I' for Inactive)
REMARK    1  A    between atoms: N_6  and  C_7 
REMARK    2  A    between atoms: C_8  and  N_9 
REMARK    3  A    between atoms: C_10  and  N_11 
REMARK       I    between atoms: N_11  and  C_12 
REMARK    4  A    between atoms: C_12  and  C_13 
REMARK    5  A    between atoms: C_14  and  C_15 
REMARK    6  A    between atoms: C_17  and  C_18 
ROOT
HETATM    1  N   UNL     1      41.943 -10.236   6.131  1.00  0.00    -0.300 N 
HETATM    2  C   UNL     1      41.871 -10.010   4.765  1.00  0.00     0.247 C 
HETATM    3  O   UNL     1      41.520  -8.959   4.244  1.00  0.00    -0.268 OA
HETATM    4  H   UNL     1      42.472 -11.039   6.434  1.00  0.00     0.171 HD
ENDROOT
BRANCH   1   5
HETATM    5  C   UNL     1      41.158  -9.672   7.108  1.00  0.00     0.179 C 
HETATM    6  N   UNL     1      41.638  -9.688   8.386  1.00  0.00    -0.331 N 
HETATM    7  H   UNL     1      40.947  -9.400   9.077  1.00  0.00     0.168 HD
HETATM    8  S   UNL     1      39.608  -9.068   6.912  1.00  0.00    -0.040 SA
BRANCH   6   9
HETATM    9  C   UNL     1      42.932  -9.814   8.939  1.00  0.00     0.061 A 
HETATM   10  C   UNL     1      43.115  -9.283  10.252  1.00  0.00     0.057 A 
HETATM   11  C   UNL     1      44.420  -9.253  10.766  1.00  0.00     0.031 A 
HETATM   12  C   UNL     1      45.499  -9.765  10.041  1.00  0.00     0.002 A 
HETATM   13  C   UNL     1      45.300 -10.292   8.772  1.00  0.00     0.002 A 
HETATM   14  C   UNL     1      44.023 -10.305   8.214  1.00  0.00     0.032 A 
BRANCH  10  15
HETATM   15  N   UNL     1      42.005  -8.804  10.977  1.00  0.00    -0.376 N 
HETATM   16  C   UNL     1      41.814  -7.348  11.153  1.00  0.00     0.150 C 
HETATM   17  C   UNL     1      42.396  -6.818  12.484  1.00  0.00     0.254 C 
HETATM   18  N   UNL     1      41.933  -7.664  13.666  1.00  0.00    -0.072 N 
HETATM   19  C   UNL     1      42.492  -7.170  14.966  1.00  0.00     0.269 C 
HETATM   20  H   UNL     1      40.908  -7.578  13.715  1.00  0.00     0.279 HD
HETATM   21  C   UNL     1      42.249  -9.141  13.440  1.00  0.00     0.254 C 
HETATM   22  C   UNL     1      41.598  -9.634  12.134  1.00  0.00     0.150 C 
ENDBRANCH  10  15
ENDBRANCH   6   9
ENDBRANCH   1   5
BRANCH   2  23
HETATM   23  C   UNL     1      42.462 -11.111   3.961  1.00  0.00     0.077 C 
HETATM   24  C   UNL     1      42.074 -12.363   4.242  1.00  0.00     0.042 C 
BRANCH  24  25
HETATM   25  C   UNL     1      42.608 -13.491   3.563  1.00  0.00     0.076 A 
HETATM   26  O   UNL     1      42.739 -14.753   4.105  1.00  0.00    -0.310 OA
HETATM   27  C   UNL     1      43.227 -15.593   3.141  1.00  0.00     0.086 A 
HETATM   28  C   UNL     1      43.463 -14.879   1.988  1.00  0.00     0.041 A 
HETATM   29  C   UNL     1      43.059 -13.552   2.252  1.00  0.00     0.040 A 
BRANCH  27  30
HETATM   30  C   UNL     1      43.374 -17.001   3.504  1.00  0.00     0.001 A 
HETATM   31  C   UNL     1      43.550 -17.990   2.528  1.00  0.00     0.038 A 
HETATM   32  C   UNL     1      43.736 -19.325   2.896  1.00  0.00     0.036 A 
HETATM   33 CL   UNL     1      43.961 -20.520   1.677  1.00  0.00    -0.084 Cl
HETATM   34  C   UNL     1      43.749 -19.700   4.236  1.00  0.00     0.047 A 
HETATM   35  C   UNL     1      43.569 -18.724   5.210  1.00  0.00     0.036 A 
HETATM   36 CL   UNL     1      43.579 -19.167   6.873  1.00  0.00    -0.084 Cl
HETATM   37  C   UNL     1      43.385 -17.386   4.854  1.00  0.00     0.038 A 
ENDBRANCH  27  30
ENDBRANCH  24  25
ENDBRANCH   2  23
TORSDOF 6
ENDMDL
MODEL 6
REMARK VINA RESULT:      -8.9      1.267      1.979
REMARK  6 active torsions:
REMARK  status: ('A' for Active; 'I' for Inactive)
REMARK    1  A    between atoms: N_6  and  C_7 
REMARK    2  A    between atoms: C_8  and  N_9 
REMARK    3  A    between atoms: C_10  and  N_11 
REMARK       I    between atoms: N_11  and  C_12 
REMARK    4  A    between atoms: C_12  and  C_13 
REMARK    5  A    between atoms: C_14  and  C_15 
REMARK    6  A    between atoms: C_17  and  C_18 
ROOT
HETATM    1  N   UNL     1      42.057 -11.919   3.540  1.00  0.00    -0.300 N 
HETATM    2  C   UNL     1      43.359 -11.645   3.927  1.00  0.00     0.247 C 
HETATM    3  O   UNL     1      44.347 -11.778   3.217  1.00  0.00    -0.268 OA
HETATM    4  H   UNL     1      41.319 -11.542   4.116  1.00  0.00     0.171 HD
ENDROOT
BRANCH   1   5
HETATM    5  C   UNL     1      41.642 -12.868   2.637  1.00  0.00     0.179 C 
HETATM    6  N   UNL     1      41.521 -14.152   3.087  1.00  0.00    -0.331 N 
HETATM    7  H   UNL     1      41.363 -14.825   2.339  1.00  0.00     0.168 HD
HETATM    8  S   UNL     1      41.379 -12.636   1.000  1.00  0.00    -0.040 SA
BRANCH   6   9
HETATM    9  C   UNL     1      41.360 -14.724   4.369  1.00  0.00     0.061 A 
HETATM   10  C   UNL     1      42.163 -15.869   4.658  1.00  0.00     0.057 A 
HETATM   11  C   UNL     1      41.916 -16.551   5.859  1.00  0.00     0.031 A 
HETATM   12  C   UNL     1      40.950 -16.103   6.764  1.00  0.00     0.002 A 
HETATM   13  C   UNL     1      40.189 -14.978   6.473  1.00  0.00     0.002 A 
HETATM   14  C   UNL     1      40.381 -14.297   5.273  1.00  0.00     0.032 A 
BRANCH  10  15
HETATM   15  N   UNL     1      43.154 -16.281   3.744  1.00  0.00    -0.376 N 
HETATM   16  C   UNL     1      42.766 -16.728   2.390  1.00  0.00     0.150 C 
HETATM   17  C   UNL     1      42.606 -18.262   2.281  1.00  0.00     0.254 C 
HETATM   18  N   UNL     1      43.816 -18.987   2.862  1.00  0.00    -0.072 N 
HETATM   19  C   UNL     1      43.677 -20.477   2.772  1.00  0.00     0.269 C 
HETATM   20  H   UNL     1      44.631 -18.714   2.296  1.00  0.00     0.279 HD
HETATM   21  C   UNL     1      44.091 -18.530   4.294  1.00  0.00     0.254 C 
HETATM   22  C   UNL     1      44.301 -17.006   4.338  1.00  0.00     0.150 C 
ENDBRANCH  10  15
ENDBRANCH   6   9
ENDBRANCH   1   5
BRANCH   2  23
HETATM   23  C   UNL     1      43.443 -10.967   5.248  1.00  0.00     0.077 C 
HETATM   24  C   UNL     1      44.463 -11.297   6.052  1.00  0.00     0.042 C 
BRANCH  24  25
HETATM   25  C   UNL     1      44.614 -10.741   7.351  1.00  0.00     0.076 A 
HETATM   26  O   UNL     1      43.611 -10.127   8.071  1.00  0.00    -0.310 OA
HETATM   27  C   UNL     1      44.105  -9.778   9.298  1.00  0.00     0.086 A 
HETATM   28  C   UNL     1      45.438 -10.114   9.367  1.00  0.00     0.041 A 
HETATM   29  C   UNL     1      45.756 -10.736   8.139  1.00  0.00     0.040 A 
BRANCH  27  30
HETATM   30  C   UNL     1      43.169  -9.170  10.240  1.00  0.00     0.001 A 
HETATM   31  C   UNL     1      41.790  -9.153   9.989  1.00  0.00     0.038 A 
HETATM   32  C   UNL     1      40.906  -8.609  10.924  1.00  0.00     0.036 A 
HETATM   33 CL   UNL     1      39.215  -8.611  10.596  1.00  0.00    -0.084 Cl
HETATM   34  C   UNL     1      41.374  -8.071  12.118  1.00  0.00     0.047 A 
HETATM   35  C   UNL     1      42.741  -8.078  12.371  1.00  0.00     0.036 A 
HETATM   36 CL   UNL     1      43.340  -7.414  13.842  1.00  0.00    -0.084 Cl
HETATM   37  C   UNL     1      43.634  -8.622  11.446  1.00  0.00     0.038 A 
ENDBRANCH  27  30
ENDBRANCH  24  25
ENDBRANCH   2  23
TORSDOF 6
ENDMDL
MODEL 7
REMARK VINA RESULT:      -8.7      4.405     10.043
REMARK  6 active torsions:
REMARK  status: ('A' for Active; 'I' for Inactive)
REMARK    1  A    between atoms: N_6  and  C_7 
REMARK    2  A    between atoms: C_8  and  N_9 
REMARK    3  A    between atoms: C_10  and  N_11 
REMARK       I    between atoms: N_11  and  C_12 
REMARK    4  A    between atoms: C_12  and  C_13 
REMARK    5  A    between atoms: C_14  and  C_15 
REMARK    6  A    between atoms: C_17  and  C_18 
ROOT
HETATM    1  N   UNL     1      41.861  -8.019   6.613  1.00  0.00    -0.300 N 
HETATM    2  C   UNL     1      41.117  -9.114   7.022  1.00  0.00     0.247 C 
HETATM    3  O   UNL     1      40.133  -9.064   7.748  1.00  0.00    -0.268 OA
HETATM    4  H   UNL     1      42.485  -8.156   5.832  1.00  0.00     0.171 HD
ENDROOT
BRANCH   1   5
HETATM    5  C   UNL     1      42.069  -6.851   7.306  1.00  0.00     0.179 C 
HETATM    6  N   UNL     1      42.685  -6.943   8.522  1.00  0.00    -0.331 N 
HETATM    7  H   UNL     1      42.667  -6.070   9.046  1.00  0.00     0.168 HD
HETATM    8  S   UNL     1      41.535  -5.326   6.866  1.00  0.00    -0.040 SA
BRANCH   6   9
HETATM    9  C   UNL     1      43.518  -7.915   9.120  1.00  0.00     0.061 A 
HETATM   10  C   UNL     1      43.200  -8.281  10.463  1.00  0.00     0.057 A 
HETATM   11  C   UNL     1      44.096  -9.125  11.137  1.00  0.00     0.031 A 
HETATM   12  C   UNL     1      45.237  -9.627  10.506  1.00  0.00     0.002 A 
HETATM   13  C   UNL     1      45.522  -9.272   9.194  1.00  0.00     0.002 A 
HETATM   14  C   UNL     1      44.674  -8.406   8.505  1.00  0.00     0.032 A 
BRANCH  10  15
HETATM   15  N   UNL     1      42.024  -7.789  11.067  1.00  0.00    -0.376 N 
HETATM   16  C   UNL     1      42.090  -6.598  11.940  1.00  0.00     0.150 C 
HETATM   17  C   UNL     1      42.223  -6.954  13.439  1.00  0.00     0.254 C 
HETATM   18  N   UNL     1      41.182  -7.988  13.857  1.00  0.00    -0.072 N 
HETATM   19  C   UNL     1      41.299  -8.351  15.307  1.00  0.00     0.269 C 
HETATM   20  H   UNL     1      40.258  -7.558  13.717  1.00  0.00     0.279 HD
HETATM   21  C   UNL     1      41.245  -9.221  12.959  1.00  0.00     0.254 C 
HETATM   22  C   UNL     1      41.048  -8.821  11.485  1.00  0.00     0.150 C 
ENDBRANCH  10  15
ENDBRANCH   6   9
ENDBRANCH   1   5
BRANCH   2  23
HETATM   23  C   UNL     1      41.501 -10.371   6.328  1.00  0.00     0.077 C 
HETATM   24  C   UNL     1      42.082 -10.265   5.125  1.00  0.00     0.042 C 
BRANCH  24  25
HETATM   25  C   UNL     1      42.449 -11.403   4.357  1.00  0.00     0.076 A 
HETATM   26  O   UNL     1      42.603 -12.679   4.857  1.00  0.00    -0.310 OA
HETATM   27  C   UNL     1      42.894 -13.521   3.819  1.00  0.00     0.086 A 
HETATM   28  C   UNL     1      42.981 -12.798   2.652  1.00  0.00     0.041 A 
HETATM   29  C   UNL     1      42.687 -11.459   2.991  1.00  0.00     0.040 A 
BRANCH  27  30
HETATM   30  C   UNL     1      43.029 -14.941   4.138  1.00  0.00     0.001 A 
HETATM   31  C   UNL     1      42.989 -15.920   3.136  1.00  0.00     0.038 A 
HETATM   32  C   UNL     1      43.167 -17.269   3.454  1.00  0.00     0.036 A 
HETATM   33 CL   UNL     1      43.123 -18.450   2.203  1.00  0.00    -0.084 Cl
HETATM   34  C   UNL     1      43.385 -17.668   4.769  1.00  0.00     0.047 A 
HETATM   35  C   UNL     1      43.420 -16.703   5.769  1.00  0.00     0.036 A 
HETATM   36 CL   UNL     1      43.687 -17.177   7.402  1.00  0.00    -0.084 Cl
HETATM   37  C   UNL     1      43.246 -15.352   5.463  1.00  0.00     0.038 A 
ENDBRANCH  27  30
ENDBRANCH  24  25
ENDBRANCH   2  23
TORSDOF 6
ENDMDL
MODEL 8
REMARK VINA RESULT:      -8.6      2.950      4.323
REMARK  6 active torsions:
REMARK  status: ('A' for Active; 'I' for Inactive)
REMARK    1  A    between atoms: N_6  and  C_7 
REMARK    2  A    between atoms: C_8  and  N_9 
REMARK    3  A    between atoms: C_10  and  N_11 
REMARK       I    between atoms: N_11  and  C_12 
REMARK    4  A    between atoms: C_12  and  C_13 
REMARK    5  A    between atoms: C_14  and  C_15 
REMARK    6  A    between atoms: C_17  and  C_18 
ROOT
HETATM    1  N   UNL     1      43.987 -16.147   5.031  1.00  0.00    -0.300 N 
HETATM    2  C   UNL     1      43.921 -15.931   6.399  1.00  0.00     0.247 C 
HETATM    3  O   UNL     1      43.561 -16.759   7.225  1.00  0.00    -0.268 OA
HETATM    4  H   UNL     1      44.523 -15.487   4.489  1.00  0.00     0.171 HD
ENDROOT
BRANCH   1   5
HETATM    5  C   UNL     1      43.190 -16.979   4.283  1.00  0.00     0.179 C 
HETATM    6  N   UNL     1      41.843 -16.754   4.315  1.00  0.00    -0.331 N 
HETATM    7  H   UNL     1      41.303 -17.494   3.869  1.00  0.00     0.168 HD
HETATM    8  S   UNL     1      43.689 -18.325   3.422  1.00  0.00    -0.040 SA
BRANCH   6   9
HETATM    9  C   UNL     1      41.051 -15.631   4.641  1.00  0.00     0.061 A 
HETATM   10  C   UNL     1      40.949 -14.616   3.642  1.00  0.00     0.057 A 
HETATM   11  C   UNL     1      40.300 -13.421   3.991  1.00  0.00     0.031 A 
HETATM   12  C   UNL     1      39.733 -13.245   5.256  1.00  0.00     0.002 A 
HETATM   13  C   UNL     1      39.829 -14.250   6.210  1.00  0.00     0.002 A 
HETATM   14  C   UNL     1      40.498 -15.434   5.912  1.00  0.00     0.032 A 
BRANCH  10  15
HETATM   15  N   UNL     1      41.499 -14.831   2.362  1.00  0.00    -0.376 N 
HETATM   16  C   UNL     1      42.422 -13.834   1.781  1.00  0.00     0.150 C 
HETATM   17  C   UNL     1      41.713 -12.818   0.857  1.00  0.00     0.254 C 
HETATM   18  N   UNL     1      40.823 -13.524  -0.162  1.00  0.00    -0.072 N 
HETATM   19  C   UNL     1      40.120 -12.554  -1.064  1.00  0.00     0.269 C 
HETATM   20  H   UNL     1      41.438 -14.105  -0.747  1.00  0.00     0.279 HD
HETATM   21  C   UNL     1      39.841 -14.466   0.531  1.00  0.00     0.254 C 
HETATM   22  C   UNL     1      40.600 -15.494   1.390  1.00  0.00     0.150 C 
ENDBRANCH  10  15
ENDBRANCH   6   9
ENDBRANCH   1   5
BRANCH   2  23
HETATM   23  C   UNL     1      44.529 -14.639   6.814  1.00  0.00     0.077 C 
HETATM   24  C   UNL     1      43.765 -13.540   6.739  1.00  0.00     0.042 C 
BRANCH  24  25
HETATM   25  C   UNL     1      44.261 -12.250   7.071  1.00  0.00     0.076 A 
HETATM   26  O   UNL     1      43.573 -11.300   7.796  1.00  0.00    -0.310 OA
HETATM   27  C   UNL     1      44.385 -10.214   7.974  1.00  0.00     0.086 A 
HETATM   28  C   UNL     1      45.582 -10.427   7.328  1.00  0.00     0.041 A 
HETATM   29  C   UNL     1      45.507 -11.722   6.768  1.00  0.00     0.040 A 
BRANCH  27  30
HETATM   30  C   UNL     1      43.857  -9.117   8.782  1.00  0.00     0.001 A 
HETATM   31  C   UNL     1      43.237  -8.009   8.189  1.00  0.00     0.038 A 
HETATM   32  C   UNL     1      42.696  -6.992   8.980  1.00  0.00     0.036 A 
HETATM   33 CL   UNL     1      41.930  -5.646   8.227  1.00  0.00    -0.084 Cl
HETATM   34  C   UNL     1      42.763  -7.057  10.368  1.00  0.00     0.047 A 
HETATM   35  C   UNL     1      43.382  -8.151  10.962  1.00  0.00     0.036 A 
HETATM   36 CL   UNL     1      43.477  -8.249  12.679  1.00  0.00    -0.084 Cl
HETATM   37  C   UNL     1      43.924  -9.175  10.183  1.00  0.00     0.038 A 
ENDBRANCH  27  30
ENDBRANCH  24  25
ENDBRANCH   2  23
TORSDOF 6
ENDMDL
MODEL 9
REMARK VINA RESULT:      -8.6      4.412     10.002
REMARK  6 active torsions:
REMARK  status: ('A' for Active; 'I' for Inactive)
REMARK    1  A    between atoms: N_6  and  C_7 
REMARK    2  A    between atoms: C_8  and  N_9 
REMARK    3  A    between atoms: C_10  and  N_11 
REMARK       I    between atoms: N_11  and  C_12 
REMARK    4  A    between atoms: C_12  and  C_13 
REMARK    5  A    between atoms: C_14  and  C_15 
REMARK    6  A    between atoms: C_17  and  C_18 
ROOT
HETATM    1  N   UNL     1      41.911  -7.998   6.565  1.00  0.00    -0.300 N 
HETATM    2  C   UNL     1      41.086  -9.074   6.852  1.00  0.00     0.247 C 
HETATM    3  O   UNL     1      40.014  -9.002   7.438  1.00  0.00    -0.268 OA
HETATM    4  H   UNL     1      42.631  -8.144   5.874  1.00  0.00     0.171 HD
ENDROOT
BRANCH   1   5
HETATM    5  C   UNL     1      42.055  -6.845   7.298  1.00  0.00     0.179 C 
HETATM    6  N   UNL     1      42.640  -6.952   8.528  1.00  0.00    -0.331 N 
HETATM    7  H   UNL     1      42.576  -6.097   9.077  1.00  0.00     0.168 HD
HETATM    8  S   UNL     1      41.479  -5.327   6.888  1.00  0.00    -0.040 SA
BRANCH   6   9
HETATM    9  C   UNL     1      43.491  -7.911   9.121  1.00  0.00     0.061 A 
HETATM   10  C   UNL     1      43.197  -8.269  10.472  1.00  0.00     0.057 A 
HETATM   11  C   UNL     1      44.112  -9.099  11.139  1.00  0.00     0.031 A 
HETATM   12  C   UNL     1      45.247  -9.595  10.494  1.00  0.00     0.002 A 
HETATM   13  C   UNL     1      45.509  -9.249   9.175  1.00  0.00     0.002 A 
HETATM   14  C   UNL     1      44.643  -8.397   8.492  1.00  0.00     0.032 A 
BRANCH  10  15
HETATM   15  N   UNL     1      42.027  -7.782  11.090  1.00  0.00    -0.376 N 
HETATM   16  C   UNL     1      42.094  -6.583  11.951  1.00  0.00     0.150 C 
HETATM   17  C   UNL     1      42.255  -6.923  13.450  1.00  0.00     0.254 C 
HETATM   18  N   UNL     1      41.231  -7.963  13.895  1.00  0.00    -0.072 N 
HETATM   19  C   UNL     1      41.375  -8.311  15.346  1.00  0.00     0.269 C 
HETATM   20  H   UNL     1      40.300  -7.543  13.765  1.00  0.00     0.279 HD
HETATM   21  C   UNL     1      41.292  -9.204  13.007  1.00  0.00     0.254 C 
HETATM   22  C   UNL     1      41.067  -8.819  11.533  1.00  0.00     0.150 C 
ENDBRANCH  10  15
ENDBRANCH   6   9
ENDBRANCH   1   5
BRANCH   2  23
HETATM   23  C   UNL     1      41.525 -10.334   6.197  1.00  0.00     0.077 C 
HETATM   24  C   UNL     1      41.924 -10.264   4.919  1.00  0.00     0.042 C 
BRANCH  24  25
HETATM   25  C   UNL     1      42.322 -11.415   4.186  1.00  0.00     0.076 A 
HETATM   26  O   UNL     1      42.546 -12.662   4.729  1.00  0.00    -0.310 OA
HETATM   27  C   UNL     1      42.847 -13.531   3.717  1.00  0.00     0.086 A 
HETATM   28  C   UNL     1      42.872 -12.851   2.521  1.00  0.00     0.041 A 
HETATM   29  C   UNL     1      42.527 -11.513   2.817  1.00  0.00     0.040 A 
BRANCH  27  30
HETATM   30  C   UNL     1      43.053 -14.930   4.086  1.00  0.00     0.001 A 
HETATM   31  C   UNL     1      43.281 -15.308   5.416  1.00  0.00     0.038 A 
HETATM   32  C   UNL     1      43.429 -16.655   5.756  1.00  0.00     0.036 A 
HETATM   33 CL   UNL     1      43.698 -17.092   7.399  1.00  0.00    -0.084 Cl
HETATM   34  C   UNL     1      43.356 -17.647   4.783  1.00  0.00     0.047 A 
HETATM   35  C   UNL     1      43.137 -17.279   3.460  1.00  0.00     0.036 A 
HETATM   36 CL   UNL     1      43.046 -18.492   2.242  1.00  0.00    -0.084 Cl
HETATM   37  C   UNL     1      42.984 -15.937   3.109  1.00  0.00     0.038 A 
ENDBRANCH  27  30
ENDBRANCH  24  25
ENDBRANCH   2  23
TORSDOF 6
ENDMDL
MODEL 10
REMARK VINA RESULT:      -8.3      4.334      9.711
REMARK  6 active torsions:
REMARK  status: ('A' for Active; 'I' for Inactive)
REMARK    1  A    between atoms: N_6  and  C_7 
REMARK    2  A    between atoms: C_8  and  N_9 
REMARK    3  A    between atoms: C_10  and  N_11 
REMARK       I    between atoms: N_11  and  C_12 
REMARK    4  A    between atoms: C_12  and  C_13 
REMARK    5  A    between atoms: C_14  and  C_15 
REMARK    6  A    between atoms: C_17  and  C_18 
ROOT
HETATM    1  N   UNL     1      41.547  -9.286   3.761  1.00  0.00    -0.300 N 
HETATM    2  C   UNL     1      40.549  -9.853   2.984  1.00  0.00     0.247 C 
HETATM    3  O   UNL     1      39.483  -9.318   2.708  1.00  0.00    -0.268 OA
HETATM    4  H   UNL     1      42.461  -9.711   3.714  1.00  0.00     0.171 HD
ENDROOT
BRANCH   1   5
HETATM    5  C   UNL     1      41.387  -8.400   4.800  1.00  0.00     0.179 C 
HETATM    6  N   UNL     1      41.704  -8.839   6.054  1.00  0.00    -0.331 N 
HETATM    7  H   UNL     1      41.418  -8.193   6.788  1.00  0.00     0.168 HD
HETATM    8  S   UNL     1      40.729  -6.864   4.703  1.00  0.00    -0.040 SA
BRANCH   6   9
HETATM    9  C   UNL     1      42.520  -9.883   6.544  1.00  0.00     0.061 A 
HETATM   10  C   UNL     1      42.969  -9.756   7.893  1.00  0.00     0.057 A 
HETATM   11  C   UNL     1      43.904 -10.694   8.358  1.00  0.00     0.031 A 
HETATM   12  C   UNL     1      44.347 -11.742   7.548  1.00  0.00     0.002 A 
HETATM   13  C   UNL     1      43.886 -11.859   6.243  1.00  0.00     0.002 A 
HETATM   14  C   UNL     1      42.987 -10.925   5.735  1.00  0.00     0.032 A 
BRANCH  10  15
HETATM   15  N   UNL     1      42.481  -8.709   8.701  1.00  0.00    -0.376 N 
HETATM   16  C   UNL     1      43.423  -7.896   9.500  1.00  0.00     0.150 C 
HETATM   17  C   UNL     1      43.575  -8.400  10.953  1.00  0.00     0.254 C 
HETATM   18  N   UNL     1      42.215  -8.617  11.609  1.00  0.00    -0.072 N 
HETATM   19  C   UNL     1      42.341  -9.113  13.018  1.00  0.00     0.269 C 
HETATM   20  H   UNL     1      41.746  -7.701  11.641  1.00  0.00     0.279 HD
HETATM   21  C   UNL     1      41.341  -9.539  10.762  1.00  0.00     0.254 C 
HETATM   22  C   UNL     1      41.172  -8.963   9.344  1.00  0.00     0.150 C 
ENDBRANCH  10  15
ENDBRANCH   6   9
ENDBRANCH   1   5
BRANCH   2  23
HETATM   23  C   UNL     1      40.970 -11.118   2.327  1.00  0.00     0.077 C 
HETATM   24  C   UNL     1      40.853 -12.253   3.031  1.00  0.00     0.042 C 
BRANCH  24  25
HETATM   25  C   UNL     1      41.266 -13.511   2.514  1.00  0.00     0.076 A 
HETATM   26  O   UNL     1      41.918 -14.488   3.235  1.00  0.00    -0.310 OA
HETATM   27  C   UNL     1      42.095 -15.580   2.431  1.00  0.00     0.086 A 
HETATM   28  C   UNL     1      41.608 -15.305   1.173  1.00  0.00     0.041 A 
HETATM   29  C   UNL     1      41.071 -14.000   1.230  1.00  0.00     0.040 A 
BRANCH  27  30
HETATM   30  C   UNL     1      42.714 -16.756   3.038  1.00  0.00     0.001 A 
HETATM   31  C   UNL     1      42.936 -16.832   4.419  1.00  0.00     0.038 A 
HETATM   32  C   UNL     1      43.486 -17.983   4.987  1.00  0.00     0.036 A 
HETATM   33 CL   UNL     1      43.738 -18.055   6.689  1.00  0.00    -0.084 Cl
HETATM   34  C   UNL     1      43.827 -19.076   4.196  1.00  0.00     0.047 A 
HETATM   35  C   UNL     1      43.615 -19.005   2.823  1.00  0.00     0.036 A 
HETATM   36 CL   UNL     1      44.032 -20.345   1.826  1.00  0.00    -0.084 Cl
HETATM   37  C   UNL     1      43.064 -17.860   2.245  1.00  0.00     0.038 A 
ENDBRANCH  27  30
ENDBRANCH  24  25
ENDBRANCH   2  23
TORSDOF 6
ENDMDL
