MODEL 1
REMARK VINA RESULT:      -8.7      0.000      0.000
REMARK  7 active torsions:
REMARK  status: ('A' for Active; 'I' for Inactive)
REMARK    1  A    between atoms: C_2  and  N_3 
REMARK    2  A    between atoms: C_2  and  C_12 
REMARK       I    between atoms: N_3  and  C_4 
REMARK    3  A    between atoms: C_4  and  C_5 
REMARK    4  A    between atoms: N_17  and  C_19 
REMARK    5  A    between atoms: C_19  and  C_20 
REMARK    6  A    between atoms: C_22  and  C_23 
REMARK    7  A    between atoms: C_23  and  N_24 
ROOT
HETATM    1  C   UNL     1      41.894 -12.316   6.006  1.00  0.00     0.152 A 
HETATM    2  N   UNL     1      41.968 -13.683   6.164  1.00  0.00    -0.317 N 
HETATM    3  C   UNL     1      40.680 -14.106   6.380  1.00  0.00     0.131 A 
HETATM    4  C   UNL     1      40.215 -15.514   6.445  1.00  0.00     0.108 C 
HETATM    5  C   UNL     1      40.747 -16.307   5.257  1.00  0.00     0.243 C 
HETATM    6  N   UNL     1      42.184 -16.792   5.451  1.00  0.00    -0.065 N 
HETATM    7  H   UNL     1      42.098 -17.703   5.922  1.00  0.00     0.280 HD
HETATM    8  C   UNL     1      43.056 -15.962   6.393  1.00  0.00     0.255 C 
HETATM    9  C   UNL     1      43.165 -14.481   6.025  1.00  0.00     0.159 C 
HETATM   10  N   UNL     1      39.891 -13.058   6.422  1.00  0.00    -0.135 NA
HETATM   11  N   UNL     1      40.645 -11.943   6.194  1.00  0.00    -0.133 NA
ENDROOT
BRANCH   6  12
HETATM   12  C   UNL     1      42.881 -17.098   4.129  1.00  0.00     0.280 C 
BRANCH  12  13
HETATM   13  C   UNL     1      42.530 -16.155   3.012  1.00  0.00     0.009 A 
HETATM   14  S   UNL     1      41.036 -16.323   2.179  1.00  0.00    -0.096 SA
HETATM   15  C   UNL     1      41.355 -14.985   1.155  1.00  0.00     0.009 A 
HETATM   16  C   UNL     1      42.578 -14.415   1.453  1.00  0.00     0.017 A 
HETATM   17  C   UNL     1      43.247 -15.078   2.528  1.00  0.00     0.017 A 
BRANCH  15  18
HETATM   18  C   UNL     1      40.371 -14.585   0.091  1.00  0.00     0.280 C 
BRANCH  18  19
HETATM   19  N   UNL     1      40.863 -13.469  -0.808  1.00  0.00    -0.067 N 
HETATM   20  H   UNL     1      41.888 -13.525  -0.807  1.00  0.00     0.280 HD
HETATM   21  C   UNL     1      40.394 -13.619  -2.239  1.00  0.00     0.235 C 
HETATM   22  C   UNL     1      41.010 -12.523  -3.098  1.00  0.00     0.028 C 
HETATM   23  C   UNL     1      40.693 -11.135  -2.555  1.00  0.00     0.003 C 
HETATM   24  C   UNL     1      41.108 -11.013  -1.094  1.00  0.00     0.028 C 
HETATM   25  C   UNL     1      40.492 -12.112  -0.240  1.00  0.00     0.235 C 
ENDBRANCH  18  19
ENDBRANCH  15  18
ENDBRANCH  12  13
ENDBRANCH   6  12
BRANCH   1  26
HETATM   26  C   UNL     1      43.032 -11.420   5.627  1.00  0.00     0.152 C 
HETATM   27  C   UNL     1      42.755 -10.735   4.290  1.00  0.00     0.040 C 
BRANCH  26  28
HETATM   28  N   UNL     1      43.218 -10.448   6.682  1.00  0.00    -0.349 N 
HETATM   29  C   UNL     1      44.142 -10.669   7.679  1.00  0.00     0.222 C 
HETATM   30  O   UNL     1      44.699 -11.754   7.807  1.00  0.00    -0.273 OA
HETATM   31  H   UNL     1      42.893  -9.502   6.504  1.00  0.00     0.163 HD
BRANCH  29  32
HETATM   32  C   UNL     1      44.401  -9.462   8.580  1.00  0.00     0.082 C 
HETATM   33  C   UNL     1      43.130  -8.636   8.796  1.00  0.00     0.040 C 
HETATM   34  C   UNL     1      42.187  -9.318   9.778  1.00  0.00     0.168 C 
HETATM   35  O   UNL     1      42.851  -9.573  11.011  1.00  0.00    -0.391 OA
HETATM   36  C   UNL     1      43.951 -10.469  10.863  1.00  0.00     0.168 C 
HETATM   37  C   UNL     1      45.001  -9.883   9.927  1.00  0.00     0.040 C 
ENDBRANCH  29  32
ENDBRANCH  26  28
ENDBRANCH   1  26
TORSDOF 7
ENDMDL
MODEL 2
REMARK VINA RESULT:      -8.6      3.525      9.943
REMARK  7 active torsions:
REMARK  status: ('A' for Active; 'I' for Inactive)
REMARK    1  A    between atoms: C_2  and  N_3 
REMARK    2  A    between atoms: C_2  and  C_12 
REMARK       I    between atoms: N_3  and  C_4 
REMARK    3  A    between atoms: C_4  and  C_5 
REMARK    4  A    between atoms: N_17  and  C_19 
REMARK    5  A    between atoms: C_19  and  C_20 
REMARK    6  A    between atoms: C_22  and  C_23 
REMARK    7  A    between atoms: C_23  and  N_24 
ROOT
HETATM    1  C   UNL     1      41.464 -15.151   2.782  1.00  0.00     0.152 A 
HETATM    2  N   UNL     1      41.413 -14.295   3.862  1.00  0.00    -0.317 N 
HETATM    3  C   UNL     1      40.890 -15.029   4.897  1.00  0.00     0.131 A 
HETATM    4  C   UNL     1      40.789 -14.602   6.315  1.00  0.00     0.108 C 
HETATM    5  C   UNL     1      42.120 -14.039   6.800  1.00  0.00     0.243 C 
HETATM    6  N   UNL     1      42.340 -12.581   6.395  1.00  0.00    -0.065 N 
HETATM    7  H   UNL     1      41.918 -12.027   7.154  1.00  0.00     0.280 HD
HETATM    8  C   UNL     1      41.613 -12.112   5.135  1.00  0.00     0.255 C 
HETATM    9  C   UNL     1      41.909 -12.938   3.881  1.00  0.00     0.159 C 
HETATM   10  N   UNL     1      40.580 -16.225   4.456  1.00  0.00    -0.135 NA
HETATM   11  N   UNL     1      40.932 -16.302   3.139  1.00  0.00    -0.133 NA
ENDROOT
BRANCH   6  12
HETATM   12  C   UNL     1      43.814 -12.190   6.398  1.00  0.00     0.280 C 
BRANCH  12  13
HETATM   13  C   UNL     1      44.174 -11.138   7.411  1.00  0.00     0.009 A 
HETATM   14  S   UNL     1      42.966 -10.079   8.020  1.00  0.00    -0.096 SA
HETATM   15  C   UNL     1      44.074  -9.261   9.042  1.00  0.00     0.009 A 
HETATM   16  C   UNL     1      45.342  -9.797   8.927  1.00  0.00     0.017 A 
HETATM   17  C   UNL     1      45.397 -10.884   8.000  1.00  0.00     0.017 A 
BRANCH  15  18
HETATM   18  C   UNL     1      43.619  -8.110   9.896  1.00  0.00     0.280 C 
BRANCH  18  19
HETATM   19  N   UNL     1      43.459  -8.462  11.362  1.00  0.00    -0.067 N 
HETATM   20  H   UNL     1      44.398  -8.688  11.711  1.00  0.00     0.280 HD
HETATM   21  C   UNL     1      42.925  -7.311  12.186  1.00  0.00     0.235 C 
HETATM   22  C   UNL     1      42.890  -7.707  13.656  1.00  0.00     0.028 C 
HETATM   23  C   UNL     1      42.073  -8.973  13.881  1.00  0.00     0.003 C 
HETATM   24  C   UNL     1      42.574 -10.109  12.998  1.00  0.00     0.028 C 
HETATM   25  C   UNL     1      42.611  -9.708  11.531  1.00  0.00     0.235 C 
ENDBRANCH  18  19
ENDBRANCH  15  18
ENDBRANCH  12  13
ENDBRANCH   6  12
BRANCH   1  26
HETATM   26  C   UNL     1      42.076 -14.839   1.452  1.00  0.00     0.152 C 
HETATM   27  C   UNL     1      43.206 -15.816   1.137  1.00  0.00     0.040 C 
BRANCH  26  28
HETATM   28  N   UNL     1      41.037 -14.901   0.447  1.00  0.00    -0.349 N 
HETATM   29  C   UNL     1      40.434 -13.748  -0.006  1.00  0.00     0.222 C 
HETATM   30  O   UNL     1      40.624 -12.668   0.544  1.00  0.00    -0.273 OA
HETATM   31  H   UNL     1      40.987 -15.744  -0.118  1.00  0.00     0.163 HD
BRANCH  29  32
HETATM   32  C   UNL     1      39.537 -13.941  -1.228  1.00  0.00     0.082 C 
HETATM   33  C   UNL     1      38.459 -12.856  -1.312  1.00  0.00     0.040 C 
HETATM   34  C   UNL     1      39.040 -11.534  -1.797  1.00  0.00     0.168 C 
HETATM   35  O   UNL     1      39.695 -11.708  -3.049  1.00  0.00    -0.391 OA
HETATM   36  C   UNL     1      40.806 -12.599  -2.964  1.00  0.00     0.168 C 
HETATM   37  C   UNL     1      40.353 -13.986  -2.525  1.00  0.00     0.040 C 
ENDBRANCH  29  32
ENDBRANCH  26  28
ENDBRANCH   1  26
TORSDOF 7
ENDMDL
MODEL 3
REMARK VINA RESULT:      -8.6      3.500      6.129
REMARK  7 active torsions:
REMARK  status: ('A' for Active; 'I' for Inactive)
REMARK    1  A    between atoms: C_2  and  N_3 
REMARK    2  A    between atoms: C_2  and  C_12 
REMARK       I    between atoms: N_3  and  C_4 
REMARK    3  A    between atoms: C_4  and  C_5 
REMARK    4  A    between atoms: N_17  and  C_19 
REMARK    5  A    between atoms: C_19  and  C_20 
REMARK    6  A    between atoms: C_22  and  C_23 
REMARK    7  A    between atoms: C_23  and  N_24 
ROOT
HETATM    1  C   UNL     1      43.471  -9.499   9.589  1.00  0.00     0.152 A 
HETATM    2  N   UNL     1      43.521 -10.064   8.332  1.00  0.00    -0.317 N 
HETATM    3  C   UNL     1      44.712 -10.744   8.274  1.00  0.00     0.131 A 
HETATM    4  C   UNL     1      45.155 -11.652   7.187  1.00  0.00     0.108 C 
HETATM    5  C   UNL     1      44.057 -12.653   6.848  1.00  0.00     0.243 C 
HETATM    6  N   UNL     1      42.990 -12.084   5.913  1.00  0.00    -0.065 N 
HETATM    7  H   UNL     1      43.342 -12.266   4.963  1.00  0.00     0.280 HD
HETATM    8  C   UNL     1      42.791 -10.569   5.958  1.00  0.00     0.255 C 
HETATM    9  C   UNL     1      42.468 -10.007   7.344  1.00  0.00     0.159 C 
HETATM   10  N   UNL     1      45.370 -10.545   9.392  1.00  0.00    -0.135 NA
HETATM   11  N   UNL     1      44.601  -9.768  10.210  1.00  0.00    -0.133 NA
ENDROOT
BRANCH   6  12
HETATM   12  C   UNL     1      41.673 -12.848   5.995  1.00  0.00     0.280 C 
BRANCH  12  13
HETATM   13  C   UNL     1      41.605 -14.062   5.109  1.00  0.00     0.009 A 
HETATM   14  S   UNL     1      42.802 -14.318   3.904  1.00  0.00    -0.096 SA
HETATM   15  C   UNL     1      42.089 -15.787   3.382  1.00  0.00     0.009 A 
HETATM   16  C   UNL     1      40.961 -16.081   4.125  1.00  0.00     0.017 A 
HETATM   17  C   UNL     1      40.690 -15.097   5.126  1.00  0.00     0.017 A 
BRANCH  15  18
HETATM   18  C   UNL     1      42.685 -16.563   2.241  1.00  0.00     0.280 C 
BRANCH  18  19
HETATM   19  N   UNL     1      43.464 -17.788   2.676  1.00  0.00    -0.067 N 
HETATM   20  H   UNL     1      44.387 -17.720   2.230  1.00  0.00     0.280 HD
HETATM   21  C   UNL     1      43.679 -17.846   4.173  1.00  0.00     0.235 C 
HETATM   22  C   UNL     1      44.553 -19.044   4.520  1.00  0.00     0.028 C 
HETATM   23  C   UNL     1      43.960 -20.345   3.996  1.00  0.00     0.003 C 
HETATM   24  C   UNL     1      43.685 -20.257   2.500  1.00  0.00     0.028 C 
HETATM   25  C   UNL     1      42.814 -19.056   2.158  1.00  0.00     0.235 C 
ENDBRANCH  18  19
ENDBRANCH  15  18
ENDBRANCH  12  13
ENDBRANCH   6  12
BRANCH   1  26
HETATM   26  C   UNL     1      42.304  -8.760  10.165  1.00  0.00     0.152 C 
HETATM   27  C   UNL     1      41.230  -9.737  10.639  1.00  0.00     0.040 C 
BRANCH  26  28
HETATM   28  N   UNL     1      42.780  -7.938  11.257  1.00  0.00    -0.349 N 
HETATM   29  C   UNL     1      41.999  -6.918  11.753  1.00  0.00     0.222 C 
HETATM   30  O   UNL     1      40.973  -6.561  11.183  1.00  0.00    -0.273 OA
HETATM   31  H   UNL     1      43.531  -8.314  11.829  1.00  0.00     0.163 HD
BRANCH  29  32
HETATM   32  C   UNL     1      42.518  -6.296  13.049  1.00  0.00     0.082 C 
HETATM   33  C   UNL     1      41.419  -5.523  13.783  1.00  0.00     0.040 C 
HETATM   34  C   UNL     1      40.450  -6.468  14.483  1.00  0.00     0.168 C 
HETATM   35  O   UNL     1      41.151  -7.332  15.369  1.00  0.00    -0.391 OA
HETATM   36  C   UNL     1      42.076  -8.179  14.689  1.00  0.00     0.168 C 
HETATM   37  C   UNL     1      43.137  -7.352  13.972  1.00  0.00     0.040 C 
ENDBRANCH  29  32
ENDBRANCH  26  28
ENDBRANCH   1  26
TORSDOF 7
ENDMDL
MODEL 4
REMARK VINA RESULT:      -8.4      3.699      6.844
REMARK  7 active torsions:
REMARK  status: ('A' for Active; 'I' for Inactive)
REMARK    1  A    between atoms: C_2  and  N_3 
REMARK    2  A    between atoms: C_2  and  C_12 
REMARK       I    between atoms: N_3  and  C_4 
REMARK    3  A    between atoms: C_4  and  C_5 
REMARK    4  A    between atoms: N_17  and  C_19 
REMARK    5  A    between atoms: C_19  and  C_20 
REMARK    6  A    between atoms: C_22  and  C_23 
REMARK    7  A    between atoms: C_23  and  N_24 
ROOT
HETATM    1  C   UNL     1      42.001  -9.879  11.384  1.00  0.00     0.152 A 
HETATM    2  N   UNL     1      42.522  -9.666  10.125  1.00  0.00    -0.317 N 
HETATM    3  C   UNL     1      43.743 -10.292  10.114  1.00  0.00     0.131 A 
HETATM    4  C   UNL     1      44.620 -10.489   8.932  1.00  0.00     0.108 C 
HETATM    5  C   UNL     1      43.823 -11.054   7.763  1.00  0.00     0.243 C 
HETATM    6  N   UNL     1      43.049  -9.987   6.989  1.00  0.00    -0.065 N 
HETATM    7  H   UNL     1      43.707  -9.646   6.274  1.00  0.00     0.280 HD
HETATM    8  C   UNL     1      42.660  -8.733   7.771  1.00  0.00     0.255 C 
HETATM    9  C   UNL     1      41.842  -8.999   9.038  1.00  0.00     0.159 C 
HETATM   10  N   UNL     1      43.977 -10.788  11.306  1.00  0.00    -0.135 NA
HETATM   11  N   UNL     1      42.897 -10.529  12.099  1.00  0.00    -0.133 NA
ENDROOT
BRANCH   6  12
HETATM   12  C   UNL     1      41.881 -10.568   6.200  1.00  0.00     0.280 C 
BRANCH  12  13
HETATM   13  C   UNL     1      42.278 -11.585   5.165  1.00  0.00     0.009 A 
HETATM   14  S   UNL     1      41.361 -13.025   4.973  1.00  0.00    -0.096 SA
HETATM   15  C   UNL     1      42.361 -13.598   3.704  1.00  0.00     0.009 A 
HETATM   16  C   UNL     1      43.371 -12.698   3.425  1.00  0.00     0.017 A 
HETATM   17  C   UNL     1      43.317 -11.536   4.256  1.00  0.00     0.017 A 
BRANCH  15  18
HETATM   18  C   UNL     1      42.092 -14.931   3.062  1.00  0.00     0.280 C 
BRANCH  18  19
HETATM   19  N   UNL     1      43.116 -15.994   3.408  1.00  0.00    -0.067 N 
HETATM   20  H   UNL     1      44.014 -15.666   3.031  1.00  0.00     0.280 HD
HETATM   21  C   UNL     1      43.284 -16.183   4.899  1.00  0.00     0.235 C 
HETATM   22  C   UNL     1      44.396 -17.187   5.167  1.00  0.00     0.028 C 
HETATM   23  C   UNL     1      44.138 -18.515   4.467  1.00  0.00     0.003 C 
HETATM   24  C   UNL     1      43.905 -18.310   2.975  1.00  0.00     0.028 C 
HETATM   25  C   UNL     1      42.794 -17.303   2.713  1.00  0.00     0.235 C 
ENDBRANCH  18  19
ENDBRANCH  15  18
ENDBRANCH  12  13
ENDBRANCH   6  12
BRANCH   1  26
HETATM   26  C   UNL     1      40.629  -9.489  11.836  1.00  0.00     0.152 C 
HETATM   27  C   UNL     1      40.186 -10.352  13.016  1.00  0.00     0.040 C 
BRANCH  26  28
HETATM   28  N   UNL     1      40.648  -8.087  12.192  1.00  0.00    -0.349 N 
HETATM   29  C   UNL     1      39.733  -7.216  11.646  1.00  0.00     0.222 C 
HETATM   30  O   UNL     1      39.000  -7.553  10.721  1.00  0.00    -0.273 OA
HETATM   31  H   UNL     1      41.126  -7.833  13.053  1.00  0.00     0.163 HD
BRANCH  29  32
HETATM   32  C   UNL     1      39.715  -5.830  12.290  1.00  0.00     0.082 C 
HETATM   33  C   UNL     1      38.506  -5.010  11.829  1.00  0.00     0.040 C 
HETATM   34  C   UNL     1      37.227  -5.476  12.513  1.00  0.00     0.168 C 
HETATM   35  O   UNL     1      37.373  -5.428  13.927  1.00  0.00    -0.391 OA
HETATM   36  C   UNL     1      38.394  -6.305  14.401  1.00  0.00     0.168 C 
HETATM   37  C   UNL     1      39.749  -5.918  13.820  1.00  0.00     0.040 C 
ENDBRANCH  29  32
ENDBRANCH  26  28
ENDBRANCH   1  26
TORSDOF 7
ENDMDL
MODEL 5
REMARK VINA RESULT:      -8.4      3.174      8.643
REMARK  7 active torsions:
REMARK  status: ('A' for Active; 'I' for Inactive)
REMARK    1  A    between atoms: C_2  and  N_3 
REMARK    2  A    between atoms: C_2  and  C_12 
REMARK       I    between atoms: N_3  and  C_4 
REMARK    3  A    between atoms: C_4  and  C_5 
REMARK    4  A    between atoms: N_17  and  C_19 
REMARK    5  A    between atoms: C_19  and  C_20 
REMARK    6  A    between atoms: C_22  and  C_23 
REMARK    7  A    between atoms: C_23  and  N_24 
ROOT
HETATM    1  C   UNL     1      40.463 -12.563  -1.053  1.00  0.00     0.152 A 
HETATM    2  N   UNL     1      41.004 -11.592  -0.237  1.00  0.00    -0.317 N 
HETATM    3  C   UNL     1      41.409 -10.583  -1.074  1.00  0.00     0.131 A 
HETATM    4  C   UNL     1      41.904  -9.245  -0.664  1.00  0.00     0.108 C 
HETATM    5  C   UNL     1      40.967  -8.619   0.360  1.00  0.00     0.243 C 
HETATM    6  N   UNL     1      41.206  -9.124   1.784  1.00  0.00    -0.065 N 
HETATM    7  H   UNL     1      41.924  -8.496   2.173  1.00  0.00     0.280 HD
HETATM    8  C   UNL     1      41.815 -10.520   1.912  1.00  0.00     0.255 C 
HETATM    9  C   UNL     1      41.029 -11.628   1.207  1.00  0.00     0.159 C 
HETATM   10  N   UNL     1      41.194 -10.949  -2.316  1.00  0.00    -0.135 NA
HETATM   11  N   UNL     1      40.609 -12.182  -2.305  1.00  0.00    -0.133 NA
ENDROOT
BRANCH   6  12
HETATM   12  C   UNL     1      39.990  -8.933   2.684  1.00  0.00     0.280 C 
BRANCH  12  13
HETATM   13  C   UNL     1      40.163  -9.466   4.080  1.00  0.00     0.009 A 
HETATM   14  S   UNL     1      41.262  -8.708   5.162  1.00  0.00    -0.096 SA
HETATM   15  C   UNL     1      40.902  -9.802   6.433  1.00  0.00     0.009 A 
HETATM   16  C   UNL     1      39.950 -10.723   6.039  1.00  0.00     0.017 A 
HETATM   17  C   UNL     1      39.517 -10.523   4.691  1.00  0.00     0.017 A 
BRANCH  15  18
HETATM   18  C   UNL     1      41.605  -9.692   7.757  1.00  0.00     0.280 C 
BRANCH  18  19
HETATM   19  N   UNL     1      42.904 -10.470   7.826  1.00  0.00    -0.067 N 
HETATM   20  H   UNL     1      42.864 -11.028   8.688  1.00  0.00     0.280 HD
HETATM   21  C   UNL     1      43.078 -11.426   6.666  1.00  0.00     0.235 C 
HETATM   22  C   UNL     1      44.350 -12.240   6.858  1.00  0.00     0.028 C 
HETATM   23  C   UNL     1      45.572 -11.346   7.026  1.00  0.00     0.003 C 
HETATM   24  C   UNL     1      45.364 -10.343   8.153  1.00  0.00     0.028 C 
HETATM   25  C   UNL     1      44.090  -9.534   7.958  1.00  0.00     0.235 C 
ENDBRANCH  18  19
ENDBRANCH  15  18
ENDBRANCH  12  13
ENDBRANCH   6  12
BRANCH   1  26
HETATM   26  C   UNL     1      39.775 -13.807  -0.586  1.00  0.00     0.152 C 
HETATM   27  C   UNL     1      39.158 -14.556  -1.766  1.00  0.00     0.040 C 
BRANCH  26  28
HETATM   28  N   UNL     1      40.742 -14.631   0.106  1.00  0.00    -0.349 N 
HETATM   29  C   UNL     1      40.459 -15.141   1.354  1.00  0.00     0.222 C 
HETATM   30  O   UNL     1      39.473 -14.775   1.986  1.00  0.00    -0.273 OA
HETATM   31  H   UNL     1      41.470 -15.064  -0.456  1.00  0.00     0.163 HD
BRANCH  29  32
HETATM   32  C   UNL     1      41.460 -16.180   1.855  1.00  0.00     0.082 C 
HETATM   33  C   UNL     1      42.902 -15.778   1.528  1.00  0.00     0.040 C 
HETATM   34  C   UNL     1      43.395 -14.678   2.459  1.00  0.00     0.168 C 
HETATM   35  O   UNL     1      43.269 -15.083   3.818  1.00  0.00    -0.391 OA
HETATM   36  C   UNL     1      41.913 -15.315   4.194  1.00  0.00     0.168 C 
HETATM   37  C   UNL     1      41.304 -16.435   3.359  1.00  0.00     0.040 C 
ENDBRANCH  29  32
ENDBRANCH  26  28
ENDBRANCH   1  26
TORSDOF 7
ENDMDL
MODEL 6
REMARK VINA RESULT:      -8.3      4.304     10.591
REMARK  7 active torsions:
REMARK  status: ('A' for Active; 'I' for Inactive)
REMARK    1  A    between atoms: C_2  and  N_3 
REMARK    2  A    between atoms: C_2  and  C_12 
REMARK       I    between atoms: N_3  and  C_4 
REMARK    3  A    between atoms: C_4  and  C_5 
REMARK    4  A    between atoms: N_17  and  C_19 
REMARK    5  A    between atoms: C_19  and  C_20 
REMARK    6  A    between atoms: C_22  and  C_23 
REMARK    7  A    between atoms: C_23  and  N_24 
ROOT
HETATM    1  C   UNL     1      43.644 -11.313   5.250  1.00  0.00     0.152 A 
HETATM    2  N   UNL     1      44.081 -11.069   6.535  1.00  0.00    -0.317 N 
HETATM    3  C   UNL     1      45.447 -10.963   6.452  1.00  0.00     0.131 A 
HETATM    4  C   UNL     1      46.364 -10.540   7.540  1.00  0.00     0.108 C 
HETATM    5  C   UNL     1      45.860  -9.261   8.198  1.00  0.00     0.243 C 
HETATM    6  N   UNL     1      44.767  -9.509   9.239  1.00  0.00    -0.065 N 
HETATM    7  H   UNL     1      45.272  -9.672  10.121  1.00  0.00     0.280 HD
HETATM    8  C   UNL     1      43.925 -10.770   9.047  1.00  0.00     0.255 C 
HETATM    9  C   UNL     1      43.231 -10.875   7.687  1.00  0.00     0.159 C 
HETATM   10  N   UNL     1      45.817 -11.197   5.215  1.00  0.00    -0.135 NA
HETATM   11  N   UNL     1      44.697 -11.419   4.467  1.00  0.00    -0.133 NA
ENDROOT
BRANCH   6  12
HETATM   12  C   UNL     1      43.915  -8.271   9.497  1.00  0.00     0.280 C 
BRANCH  12  13
HETATM   13  C   UNL     1      43.132  -8.316  10.781  1.00  0.00     0.009 A 
HETATM   14  S   UNL     1      41.415  -8.278  10.745  1.00  0.00    -0.096 SA
HETATM   15  C   UNL     1      41.289  -8.370  12.453  1.00  0.00     0.009 A 
HETATM   16  C   UNL     1      42.539  -8.439  13.038  1.00  0.00     0.017 A 
HETATM   17  C   UNL     1      43.597  -8.421  12.077  1.00  0.00     0.017 A 
BRANCH  15  18
HETATM   18  C   UNL     1      39.943  -8.350  13.123  1.00  0.00     0.280 C 
BRANCH  18  19
HETATM   19  N   UNL     1      39.560  -6.995  13.684  1.00  0.00    -0.067 N 
HETATM   20  H   UNL     1      40.075  -6.296  13.134  1.00  0.00     0.280 HD
HETATM   21  C   UNL     1      38.084  -6.697  13.539  1.00  0.00     0.235 C 
HETATM   22  C   UNL     1      37.795  -5.284  14.030  1.00  0.00     0.028 C 
HETATM   23  C   UNL     1      38.264  -5.078  15.465  1.00  0.00     0.003 C 
HETATM   24  C   UNL     1      39.735  -5.443  15.616  1.00  0.00     0.028 C 
HETATM   25  C   UNL     1      40.018  -6.855  15.122  1.00  0.00     0.235 C 
ENDBRANCH  18  19
ENDBRANCH  15  18
ENDBRANCH  12  13
ENDBRANCH   6  12
BRANCH   1  26
HETATM   26  C   UNL     1      42.214 -11.384   4.815  1.00  0.00     0.152 C 
HETATM   27  C   UNL     1      41.906 -10.289   3.795  1.00  0.00     0.040 C 
BRANCH  26  28
HETATM   28  N   UNL     1      41.970 -12.697   4.260  1.00  0.00    -0.349 N 
HETATM   29  C   UNL     1      41.382 -13.680   5.025  1.00  0.00     0.222 C 
HETATM   30  O   UNL     1      41.212 -13.537   6.232  1.00  0.00    -0.273 OA
HETATM   31  H   UNL     1      41.954 -12.778   3.247  1.00  0.00     0.163 HD
BRANCH  29  32
HETATM   32  C   UNL     1      40.968 -14.927   4.245  1.00  0.00     0.082 C 
HETATM   33  C   UNL     1      41.989 -15.276   3.157  1.00  0.00     0.040 C 
HETATM   34  C   UNL     1      43.236 -15.917   3.754  1.00  0.00     0.168 C 
HETATM   35  O   UNL     1      42.888 -17.064   4.521  1.00  0.00    -0.391 OA
HETATM   36  C   UNL     1      42.060 -16.742   5.638  1.00  0.00     0.168 C 
HETATM   37  C   UNL     1      40.745 -16.126   5.174  1.00  0.00     0.040 C 
ENDBRANCH  29  32
ENDBRANCH  26  28
ENDBRANCH   1  26
TORSDOF 7
ENDMDL
MODEL 7
REMARK VINA RESULT:      -8.1      1.694      2.429
REMARK  7 active torsions:
REMARK  status: ('A' for Active; 'I' for Inactive)
REMARK    1  A    between atoms: C_2  and  N_3 
REMARK    2  A    between atoms: C_2  and  C_12 
REMARK       I    between atoms: N_3  and  C_4 
REMARK    3  A    between atoms: C_4  and  C_5 
REMARK    4  A    between atoms: N_17  and  C_19 
REMARK    5  A    between atoms: C_19  and  C_20 
REMARK    6  A    between atoms: C_22  and  C_23 
REMARK    7  A    between atoms: C_23  and  N_24 
ROOT
HETATM    1  C   UNL     1      41.333 -12.604   6.236  1.00  0.00     0.152 A 
HETATM    2  N   UNL     1      41.623 -13.939   6.043  1.00  0.00    -0.317 N 
HETATM    3  C   UNL     1      40.434 -14.606   6.199  1.00  0.00     0.131 A 
HETATM    4  C   UNL     1      40.190 -16.045   5.927  1.00  0.00     0.108 C 
HETATM    5  C   UNL     1      40.737 -16.430   4.558  1.00  0.00     0.243 C 
HETATM    6  N   UNL     1      42.241 -16.705   4.565  1.00  0.00    -0.065 N 
HETATM    7  H   UNL     1      42.329 -17.704   4.795  1.00  0.00     0.280 HD
HETATM    8  C   UNL     1      43.052 -15.995   5.648  1.00  0.00     0.255 C 
HETATM    9  C   UNL     1      42.910 -14.471   5.659  1.00  0.00     0.159 C 
HETATM   10  N   UNL     1      39.503 -13.744   6.534  1.00  0.00    -0.135 NA
HETATM   11  N   UNL     1      40.062 -12.498   6.562  1.00  0.00    -0.133 NA
ENDROOT
BRANCH   6  12
HETATM   12  C   UNL     1      42.867 -16.565   3.181  1.00  0.00     0.280 C 
BRANCH  12  13
HETATM   13  C   UNL     1      42.061 -15.737   2.219  1.00  0.00     0.009 A 
HETATM   14  S   UNL     1      42.559 -14.141   1.826  1.00  0.00    -0.096 SA
HETATM   15  C   UNL     1      41.242 -13.898   0.756  1.00  0.00     0.009 A 
HETATM   16  C   UNL     1      40.442 -15.022   0.692  1.00  0.00     0.017 A 
HETATM   17  C   UNL     1      40.919 -16.084   1.523  1.00  0.00     0.017 A 
BRANCH  15  18
HETATM   18  C   UNL     1      41.066 -12.584   0.046  1.00  0.00     0.280 C 
BRANCH  18  19
HETATM   19  N   UNL     1      40.232 -11.580   0.815  1.00  0.00    -0.067 N 
HETATM   20  H   UNL     1      40.888 -10.885   1.194  1.00  0.00     0.280 HD
HETATM   21  C   UNL     1      39.240 -10.847  -0.061  1.00  0.00     0.235 C 
HETATM   22  C   UNL     1      38.515  -9.789   0.760  1.00  0.00     0.028 C 
HETATM   23  C   UNL     1      37.833 -10.391   1.982  1.00  0.00     0.003 C 
HETATM   24  C   UNL     1      38.825 -11.182   2.825  1.00  0.00     0.028 C 
HETATM   25  C   UNL     1      39.550 -12.237   2.000  1.00  0.00     0.235 C 
ENDBRANCH  18  19
ENDBRANCH  15  18
ENDBRANCH  12  13
ENDBRANCH   6  12
BRANCH   1  26
HETATM   26  C   UNL     1      42.291 -11.470   6.047  1.00  0.00     0.152 C 
HETATM   27  C   UNL     1      41.670 -10.382   5.172  1.00  0.00     0.040 C 
BRANCH  26  28
HETATM   28  N   UNL     1      42.647 -10.952   7.350  1.00  0.00    -0.349 N 
HETATM   29  C   UNL     1      43.887 -11.212   7.890  1.00  0.00     0.222 C 
HETATM   30  O   UNL     1      44.651 -12.024   7.377  1.00  0.00    -0.273 OA
HETATM   31  H   UNL     1      42.105 -10.167   7.701  1.00  0.00     0.163 HD
BRANCH  29  32
HETATM   32  C   UNL     1      44.211 -10.409   9.149  1.00  0.00     0.082 C 
HETATM   33  C   UNL     1      45.694 -10.033   9.211  1.00  0.00     0.040 C 
HETATM   34  C   UNL     1      46.016  -8.891   8.255  1.00  0.00     0.168 C 
HETATM   35  O   UNL     1      45.187  -7.767   8.526  1.00  0.00    -0.391 OA
HETATM   36  C   UNL     1      43.803  -8.047   8.324  1.00  0.00     0.168 C 
HETATM   37  C   UNL     1      43.335  -9.156   9.259  1.00  0.00     0.040 C 
ENDBRANCH  29  32
ENDBRANCH  26  28
ENDBRANCH   1  26
TORSDOF 7
ENDMDL
MODEL 8
REMARK VINA RESULT:      -7.9      2.126      3.757
REMARK  7 active torsions:
REMARK  status: ('A' for Active; 'I' for Inactive)
REMARK    1  A    between atoms: C_2  and  N_3 
REMARK    2  A    between atoms: C_2  and  C_12 
REMARK       I    between atoms: N_3  and  C_4 
REMARK    3  A    between atoms: C_4  and  C_5 
REMARK    4  A    between atoms: N_17  and  C_19 
REMARK    5  A    between atoms: C_19  and  C_20 
REMARK    6  A    between atoms: C_22  and  C_23 
REMARK    7  A    between atoms: C_23  and  N_24 
ROOT
HETATM    1  C   UNL     1      42.765 -13.981   5.379  1.00  0.00     0.152 A 
HETATM    2  N   UNL     1      42.721 -14.412   4.070  1.00  0.00    -0.317 N 
HETATM    3  C   UNL     1      43.136 -15.720   4.092  1.00  0.00     0.131 A 
HETATM    4  C   UNL     1      43.106 -16.673   2.954  1.00  0.00     0.108 C 
HETATM    5  C   UNL     1      41.741 -16.654   2.278  1.00  0.00     0.243 C 
HETATM    6  N   UNL     1      41.573 -15.497   1.291  1.00  0.00    -0.065 N 
HETATM    7  H   UNL     1      41.926 -15.858   0.394  1.00  0.00     0.280 HD
HETATM    8  C   UNL     1      42.420 -14.253   1.558  1.00  0.00     0.255 C 
HETATM    9  C   UNL     1      42.237 -13.641   2.948  1.00  0.00     0.159 C 
HETATM   10  N   UNL     1      43.476 -16.037   5.319  1.00  0.00    -0.135 NA
HETATM   11  N   UNL     1      43.249 -14.955   6.121  1.00  0.00    -0.133 NA
ENDROOT
BRANCH   6  12
HETATM   12  C   UNL     1      40.108 -15.161   1.029  1.00  0.00     0.280 C 
BRANCH  12  13
HETATM   13  C   UNL     1      39.892 -14.143  -0.057  1.00  0.00     0.009 A 
HETATM   14  S   UNL     1      39.361 -12.558   0.340  1.00  0.00    -0.096 SA
HETATM   15  C   UNL     1      39.369 -12.050  -1.297  1.00  0.00     0.009 A 
HETATM   16  C   UNL     1      39.781 -13.072  -2.131  1.00  0.00     0.017 A 
HETATM   17  C   UNL     1      40.094 -14.270  -1.417  1.00  0.00     0.017 A 
BRANCH  15  18
HETATM   18  C   UNL     1      38.943 -10.656  -1.667  1.00  0.00     0.280 C 
BRANCH  18  19
HETATM   19  N   UNL     1      39.998  -9.602  -1.394  1.00  0.00    -0.067 N 
HETATM   20  H   UNL     1      39.923  -9.368  -0.396  1.00  0.00     0.280 HD
HETATM   21  C   UNL     1      41.404 -10.099  -1.647  1.00  0.00     0.235 C 
HETATM   22  C   UNL     1      42.407  -9.023  -1.254  1.00  0.00     0.028 C 
HETATM   23  C   UNL     1      42.144  -7.713  -1.984  1.00  0.00     0.003 C 
HETATM   24  C   UNL     1      40.707  -7.252  -1.778  1.00  0.00     0.028 C 
HETATM   25  C   UNL     1      39.708  -8.332  -2.170  1.00  0.00     0.235 C 
ENDBRANCH  18  19
ENDBRANCH  15  18
ENDBRANCH  12  13
ENDBRANCH   6  12
BRANCH   1  26
HETATM   26  C   UNL     1      42.284 -12.653   5.875  1.00  0.00     0.152 C 
HETATM   27  C   UNL     1      40.807 -12.723   6.257  1.00  0.00     0.040 C 
BRANCH  26  28
HETATM   28  N   UNL     1      43.099 -12.268   7.006  1.00  0.00    -0.349 N 
HETATM   29  C   UNL     1      43.435 -10.947   7.207  1.00  0.00     0.222 C 
HETATM   30  O   UNL     1      43.213 -10.093   6.354  1.00  0.00    -0.273 OA
HETATM   31  H   UNL     1      43.149 -12.919   7.785  1.00  0.00     0.163 HD
BRANCH  29  32
HETATM   32  C   UNL     1      44.086 -10.658   8.558  1.00  0.00     0.082 C 
HETATM   33  C   UNL     1      45.611 -10.570   8.443  1.00  0.00     0.040 C 
HETATM   34  C   UNL     1      46.044  -9.251   7.816  1.00  0.00     0.168 C 
HETATM   35  O   UNL     1      45.520  -8.154   8.555  1.00  0.00    -0.391 OA
HETATM   36  C   UNL     1      44.094  -8.123   8.549  1.00  0.00     0.168 C 
HETATM   37  C   UNL     1      43.524  -9.381   9.194  1.00  0.00     0.040 C 
ENDBRANCH  29  32
ENDBRANCH  26  28
ENDBRANCH   1  26
TORSDOF 7
ENDMDL
MODEL 9
REMARK VINA RESULT:      -7.9      3.205      4.988
REMARK  7 active torsions:
REMARK  status: ('A' for Active; 'I' for Inactive)
REMARK    1  A    between atoms: C_2  and  N_3 
REMARK    2  A    between atoms: C_2  and  C_12 
REMARK       I    between atoms: N_3  and  C_4 
REMARK    3  A    between atoms: C_4  and  C_5 
REMARK    4  A    between atoms: N_17  and  C_19 
REMARK    5  A    between atoms: C_19  and  C_20 
REMARK    6  A    between atoms: C_22  and  C_23 
REMARK    7  A    between atoms: C_23  and  N_24 
ROOT
HETATM    1  C   UNL     1      43.090  -9.594   9.778  1.00  0.00     0.152 A 
HETATM    2  N   UNL     1      43.111 -10.035   8.472  1.00  0.00    -0.317 N 
HETATM    3  C   UNL     1      44.204 -10.859   8.372  1.00  0.00     0.131 A 
HETATM    4  C   UNL     1      44.562 -11.708   7.208  1.00  0.00     0.108 C 
HETATM    5  C   UNL     1      43.356 -12.515   6.745  1.00  0.00     0.243 C 
HETATM    6  N   UNL     1      42.407 -11.719   5.848  1.00  0.00    -0.065 N 
HETATM    7  H   UNL     1      42.766 -11.853   4.893  1.00  0.00     0.280 HD
HETATM    8  C   UNL     1      42.406 -10.203   6.043  1.00  0.00     0.255 C 
HETATM    9  C   UNL     1      42.111  -9.741   7.471  1.00  0.00     0.159 C 
HETATM   10  N   UNL     1      44.841 -10.860   9.519  1.00  0.00    -0.135 NA
HETATM   11  N   UNL     1      44.152 -10.071  10.394  1.00  0.00    -0.133 NA
ENDROOT
BRANCH   6  12
HETATM   12  C   UNL     1      40.998 -12.304   5.823  1.00  0.00     0.280 C 
BRANCH  12  13
HETATM   13  C   UNL     1      40.456 -12.551   4.442  1.00  0.00     0.009 A 
HETATM   14  S   UNL     1      39.957 -11.232   3.462  1.00  0.00    -0.096 SA
HETATM   15  C   UNL     1      39.519 -12.253   2.156  1.00  0.00     0.009 A 
HETATM   16  C   UNL     1      39.760 -13.579   2.462  1.00  0.00     0.017 A 
HETATM   17  C   UNL     1      40.310 -13.750   3.770  1.00  0.00     0.017 A 
BRANCH  15  18
HETATM   18  C   UNL     1      38.937 -11.675   0.896  1.00  0.00     0.280 C 
BRANCH  18  19
HETATM   19  N   UNL     1      38.853 -12.664  -0.249  1.00  0.00    -0.067 N 
HETATM   20  H   UNL     1      38.598 -13.569   0.166  1.00  0.00     0.280 HD
HETATM   21  C   UNL     1      37.786 -12.304  -1.259  1.00  0.00     0.235 C 
HETATM   22  C   UNL     1      37.695 -13.394  -2.319  1.00  0.00     0.028 C 
HETATM   23  C   UNL     1      39.037 -13.638  -2.996  1.00  0.00     0.003 C 
HETATM   24  C   UNL     1      40.121 -13.935  -1.968  1.00  0.00     0.028 C 
HETATM   25  C   UNL     1      40.207 -12.845  -0.909  1.00  0.00     0.235 C 
ENDBRANCH  18  19
ENDBRANCH  15  18
ENDBRANCH  12  13
ENDBRANCH   6  12
BRANCH   1  26
HETATM   26  C   UNL     1      42.010  -8.765  10.400  1.00  0.00     0.152 C 
HETATM   27  C   UNL     1      40.881  -9.654  10.918  1.00  0.00     0.040 C 
BRANCH  26  28
HETATM   28  N   UNL     1      42.594  -7.986  11.470  1.00  0.00    -0.349 N 
HETATM   29  C   UNL     1      42.024  -6.792  11.855  1.00  0.00     0.222 C 
HETATM   30  O   UNL     1      41.128  -6.270  11.200  1.00  0.00    -0.273 OA
HETATM   31  H   UNL     1      43.217  -8.469  12.111  1.00  0.00     0.163 HD
BRANCH  29  32
HETATM   32  C   UNL     1      42.596  -6.203  13.144  1.00  0.00     0.082 C 
HETATM   33  C   UNL     1      41.569  -5.329  13.870  1.00  0.00     0.040 C 
HETATM   34  C   UNL     1      40.523  -6.180  14.580  1.00  0.00     0.168 C 
HETATM   35  O   UNL     1      41.149  -7.092  15.476  1.00  0.00    -0.391 OA
HETATM   36  C   UNL     1      41.996  -8.022  14.805  1.00  0.00     0.168 C 
HETATM   37  C   UNL     1      43.124  -7.298  14.079  1.00  0.00     0.040 C 
ENDBRANCH  29  32
ENDBRANCH  26  28
ENDBRANCH   1  26
TORSDOF 7
ENDMDL
MODEL 10
REMARK VINA RESULT:      -7.8      4.875     11.561
REMARK  7 active torsions:
REMARK  status: ('A' for Active; 'I' for Inactive)
REMARK    1  A    between atoms: C_2  and  N_3 
REMARK    2  A    between atoms: C_2  and  C_12 
REMARK       I    between atoms: N_3  and  C_4 
REMARK    3  A    between atoms: C_4  and  C_5 
REMARK    4  A    between atoms: N_17  and  C_19 
REMARK    5  A    between atoms: C_19  and  C_20 
REMARK    6  A    between atoms: C_22  and  C_23 
REMARK    7  A    between atoms: C_23  and  N_24 
ROOT
HETATM    1  C   UNL     1      44.185 -11.707   5.996  1.00  0.00     0.152 A 
HETATM    2  N   UNL     1      44.480 -11.152   7.223  1.00  0.00    -0.317 N 
HETATM    3  C   UNL     1      45.711 -10.564   7.082  1.00  0.00     0.131 A 
HETATM    4  C   UNL     1      46.390  -9.694   8.075  1.00  0.00     0.108 C 
HETATM    5  C   UNL     1      45.440  -8.616   8.580  1.00  0.00     0.243 C 
HETATM    6  N   UNL     1      44.499  -9.108   9.680  1.00  0.00    -0.065 N 
HETATM    7  H   UNL     1      45.013  -8.956  10.559  1.00  0.00     0.280 HD
HETATM    8  C   UNL     1      44.183 -10.603   9.681  1.00  0.00     0.255 C 
HETATM    9  C   UNL     1      43.600 -11.134   8.370  1.00  0.00     0.159 C 
HETATM   10  N   UNL     1      46.162 -10.807   5.874  1.00  0.00    -0.135 NA
HETATM   11  N   UNL     1      45.216 -11.522   5.198  1.00  0.00    -0.133 NA
ENDROOT
BRANCH   6  12
HETATM   12  C   UNL     1      43.246  -8.247   9.806  1.00  0.00     0.280 C 
BRANCH  12  13
HETATM   13  C   UNL     1      42.745  -8.086  11.215  1.00  0.00     0.009 A 
HETATM   14  S   UNL     1      41.080  -7.780  11.509  1.00  0.00    -0.096 SA
HETATM   15  C   UNL     1      41.297  -7.742  13.209  1.00  0.00     0.009 A 
HETATM   16  C   UNL     1      42.618  -7.969  13.545  1.00  0.00     0.017 A 
HETATM   17  C   UNL     1      43.448  -8.179  12.400  1.00  0.00     0.017 A 
BRANCH  15  18
HETATM   18  C   UNL     1      40.134  -7.467  14.122  1.00  0.00     0.280 C 
BRANCH  18  19
HETATM   19  N   UNL     1      40.528  -6.835  15.442  1.00  0.00    -0.067 N 
HETATM   20  H   UNL     1      41.333  -6.227  15.245  1.00  0.00     0.280 HD
HETATM   21  C   UNL     1      39.433  -5.974  16.031  1.00  0.00     0.235 C 
HETATM   22  C   UNL     1      39.938  -5.296  17.297  1.00  0.00     0.028 C 
HETATM   23  C   UNL     1      40.452  -6.308  18.313  1.00  0.00     0.003 C 
HETATM   24  C   UNL     1      41.508  -7.215  17.694  1.00  0.00     0.028 C 
HETATM   25  C   UNL     1      40.999  -7.888  16.427  1.00  0.00     0.235 C 
ENDBRANCH  18  19
ENDBRANCH  15  18
ENDBRANCH  12  13
ENDBRANCH   6  12
BRANCH   1  26
HETATM   26  C   UNL     1      42.888 -12.355   5.623  1.00  0.00     0.152 C 
HETATM   27  C   UNL     1      41.927 -11.330   5.023  1.00  0.00     0.040 C 
BRANCH  26  28
HETATM   28  N   UNL     1      43.165 -13.421   4.685  1.00  0.00    -0.349 N 
HETATM   29  C   UNL     1      42.406 -14.570   4.691  1.00  0.00     0.222 C 
HETATM   30  O   UNL     1      41.602 -14.802   5.588  1.00  0.00    -0.273 OA
HETATM   31  H   UNL     1      43.702 -13.183   3.856  1.00  0.00     0.163 HD
BRANCH  29  32
HETATM   32  C   UNL     1      42.651 -15.497   3.501  1.00  0.00     0.082 C 
HETATM   33  C   UNL     1      41.454 -16.421   3.250  1.00  0.00     0.040 C 
HETATM   34  C   UNL     1      40.307 -15.671   2.584  1.00  0.00     0.168 C 
HETATM   35  O   UNL     1      40.747 -15.058   1.377  1.00  0.00    -0.391 OA
HETATM   36  C   UNL     1      41.757 -14.077   1.600  1.00  0.00     0.168 C 
HETATM   37  C   UNL     1      42.993 -14.708   2.232  1.00  0.00     0.040 C 
ENDBRANCH  29  32
ENDBRANCH  26  28
ENDBRANCH   1  26
TORSDOF 7
ENDMDL
