MODEL 1
REMARK VINA RESULT:      -7.6      0.000      0.000
REMARK  11 active torsions:
REMARK  status: ('A' for Active; 'I' for Inactive)
REMARK    1  A    between atoms: O_1  and  C_2 
REMARK    2  A    between atoms: C_2  and  C_3 
REMARK    3  A    between atoms: C_3  and  O_4 
REMARK    4  A    between atoms: O_4  and  C_5 
REMARK    5  A    between atoms: C_7  and  C_25 
REMARK    6  A    between atoms: C_10  and  N_11 
REMARK       I    between atoms: N_11  and  C_12 
REMARK       I    between atoms: C_12  and  N_14 
REMARK    7  A    between atoms: N_14  and  C_15 
REMARK    8  A    between atoms: N_14  and  C_18 
REMARK    9  A    between atoms: C_15  and  C_16 
REMARK   10  A    between atoms: C_16  and  O_17 
REMARK   11  A    between atoms: C_18  and  C_19 
ROOT
HETATM    1  C   UNL     1      42.108 -11.813   5.257  1.00  0.00     0.096 A 
HETATM    2  C   UNL     1      42.801 -10.797   5.927  1.00  0.00     0.051 A 
HETATM    3  C   UNL     1      43.817 -11.106   6.845  1.00  0.00    -0.020 A 
HETATM    4  C   UNL     1      44.109 -12.448   7.116  1.00  0.00     0.015 A 
HETATM    5  C   UNL     1      43.430 -13.467   6.446  1.00  0.00     0.033 A 
HETATM    6  C   UNL     1      42.474 -13.152   5.475  1.00  0.00     0.069 A 
ENDROOT
BRANCH   6   7
HETATM    7  N   UNL     1      41.908 -14.225   4.745  1.00  0.00    -0.306 N 
HETATM    8  C   UNL     1      42.574 -14.757   3.651  1.00  0.00     0.323 C 
HETATM    9  O   UNL     1      43.678 -14.378   3.264  1.00  0.00    -0.247 OA
HETATM   10  N   UNL     1      41.934 -15.853   3.075  1.00  0.00    -0.328 N 
HETATM   11  H   UNL     1      41.473 -14.950   5.308  1.00  0.00     0.171 HD
BRANCH  10  12
HETATM   12  C   UNL     1      40.534 -16.218   3.335  1.00  0.00     0.153 C 
BRANCH  12  13
HETATM   13  C   UNL     1      39.567 -15.565   2.347  1.00  0.00     0.184 C 
BRANCH  13  14
HETATM   14  O   UNL     1      39.139 -14.289   2.828  1.00  0.00    -0.399 OA
HETATM   15  H   UNL     1      39.957 -13.797   3.040  1.00  0.00     0.209 HD
ENDBRANCH  13  14
ENDBRANCH  12  13
ENDBRANCH  10  12
BRANCH  10  16
HETATM   16  C   UNL     1      42.708 -16.704   2.173  1.00  0.00     0.166 C 
BRANCH  16  17
HETATM   17  C   UNL     1      43.123 -18.042   2.739  1.00  0.00    -0.040 A 
HETATM   18  C   UNL     1      43.011 -19.229   2.003  1.00  0.00     0.009 A 
HETATM   19  C   UNL     1      43.470 -20.439   2.530  1.00  0.00     0.001 A 
HETATM   20  C   UNL     1      44.065 -20.472   3.790  1.00  0.00     0.000 A 
HETATM   21  C   UNL     1      44.202 -19.297   4.525  1.00  0.00     0.001 A 
HETATM   22  C   UNL     1      43.738 -18.090   4.002  1.00  0.00     0.009 A 
ENDBRANCH  16  17
ENDBRANCH  10  16
ENDBRANCH   6   7
BRANCH   1  23
HETATM   23  O   UNL     1      41.051 -11.586   4.409  1.00  0.00    -0.347 OA
BRANCH  23  24
HETATM   24  C   UNL     1      39.915 -10.927   4.964  1.00  0.00     0.201 C 
BRANCH  24  25
HETATM   25  C   UNL     1      39.341 -11.801   6.072  1.00  0.00     0.190 C 
BRANCH  25  26
HETATM   26  O   UNL     1      39.045 -13.100   5.571  1.00  0.00    -0.399 OA
HETATM   27  H   UNL     1      39.773 -13.681   5.852  1.00  0.00     0.209 HD
ENDBRANCH  25  26
ENDBRANCH  24  25
ENDBRANCH  23  24
ENDBRANCH   1  23
BRANCH   3  28
HETATM   28  C   UNL     1      44.578 -10.057   7.496  1.00  0.00     0.010 A 
HETATM   29  C   UNL     1      44.165  -8.809   8.016  1.00  0.00     0.152 A 
HETATM   30  N   UNL     1      45.175  -8.110   8.541  1.00  0.00    -0.187 NA
HETATM   31  N   UNL     1      46.237  -8.913   8.365  1.00  0.00    -0.289 N 
HETATM   32  H   UNL     1      47.141  -8.593   8.694  1.00  0.00     0.188 HD
HETATM   33  C   UNL     1      45.933 -10.089   7.743  1.00  0.00     0.123 A 
ENDBRANCH   3  28
TORSDOF 11
ENDMDL
MODEL 2
REMARK VINA RESULT:      -7.3      3.867      6.511
REMARK  11 active torsions:
REMARK  status: ('A' for Active; 'I' for Inactive)
REMARK    1  A    between atoms: O_1  and  C_2 
REMARK    2  A    between atoms: C_2  and  C_3 
REMARK    3  A    between atoms: C_3  and  O_4 
REMARK    4  A    between atoms: O_4  and  C_5 
REMARK    5  A    between atoms: C_7  and  C_25 
REMARK    6  A    between atoms: C_10  and  N_11 
REMARK       I    between atoms: N_11  and  C_12 
REMARK       I    between atoms: C_12  and  N_14 
REMARK    7  A    between atoms: N_14  and  C_15 
REMARK    8  A    between atoms: N_14  and  C_18 
REMARK    9  A    between atoms: C_15  and  C_16 
REMARK   10  A    between atoms: C_16  and  O_17 
REMARK   11  A    between atoms: C_18  and  C_19 
ROOT
HETATM    1  C   UNL     1      40.071 -12.759   1.815  1.00  0.00     0.096 A 
HETATM    2  C   UNL     1      39.557 -12.072   0.708  1.00  0.00     0.051 A 
HETATM    3  C   UNL     1      39.293 -12.746  -0.494  1.00  0.00    -0.020 A 
HETATM    4  C   UNL     1      39.583 -14.111  -0.593  1.00  0.00     0.015 A 
HETATM    5  C   UNL     1      40.087 -14.806   0.508  1.00  0.00     0.033 A 
HETATM    6  C   UNL     1      40.275 -14.147   1.727  1.00  0.00     0.069 A 
ENDROOT
BRANCH   6   7
HETATM    7  N   UNL     1      40.671 -14.930   2.838  1.00  0.00    -0.306 N 
HETATM    8  C   UNL     1      41.860 -15.642   2.805  1.00  0.00     0.323 C 
HETATM    9  O   UNL     1      42.648 -15.626   1.862  1.00  0.00    -0.247 OA
HETATM   10  N   UNL     1      42.156 -16.309   3.994  1.00  0.00    -0.328 N 
HETATM   11  H   UNL     1      40.515 -14.503   3.746  1.00  0.00     0.171 HD
BRANCH  10  12
HETATM   12  C   UNL     1      41.179 -16.553   5.064  1.00  0.00     0.153 C 
BRANCH  12  13
HETATM   13  C   UNL     1      41.695 -16.115   6.436  1.00  0.00     0.184 C 
BRANCH  13  14
HETATM   14  O   UNL     1      41.719 -14.689   6.535  1.00  0.00    -0.399 OA
HETATM   15  H   UNL     1      42.648 -14.452   6.724  1.00  0.00     0.209 HD
ENDBRANCH  13  14
ENDBRANCH  12  13
ENDBRANCH  10  12
BRANCH  10  16
HETATM   16  C   UNL     1      43.527 -16.773   4.197  1.00  0.00     0.166 C 
BRANCH  16  17
HETATM   17  C   UNL     1      43.737 -18.262   4.052  1.00  0.00    -0.040 A 
HETATM   18  C   UNL     1      43.991 -19.090   5.154  1.00  0.00     0.009 A 
HETATM   19  C   UNL     1      44.108 -20.472   4.993  1.00  0.00     0.001 A 
HETATM   20  C   UNL     1      43.954 -21.046   3.732  1.00  0.00     0.000 A 
HETATM   21  C   UNL     1      43.680 -20.239   2.631  1.00  0.00     0.001 A 
HETATM   22  C   UNL     1      43.569 -18.857   2.790  1.00  0.00     0.009 A 
ENDBRANCH  16  17
ENDBRANCH  10  16
ENDBRANCH   6   7
BRANCH   1  23
HETATM   23  O   UNL     1      40.427 -12.150   2.994  1.00  0.00    -0.347 OA
BRANCH  23  24
HETATM   24  C   UNL     1      39.378 -11.544   3.745  1.00  0.00     0.201 C 
BRANCH  24  25
HETATM   25  C   UNL     1      39.462 -12.040   5.183  1.00  0.00     0.190 C 
BRANCH  25  26
HETATM   26  O   UNL     1      39.479 -13.463   5.213  1.00  0.00    -0.399 OA
HETATM   27  H   UNL     1      39.159 -13.729   6.092  1.00  0.00     0.209 HD
ENDBRANCH  25  26
ENDBRANCH  24  25
ENDBRANCH  23  24
ENDBRANCH   1  23
BRANCH   3  28
HETATM   28  C   UNL     1      38.704 -12.050  -1.623  1.00  0.00     0.010 A 
HETATM   29  C   UNL     1      39.126 -10.889  -2.311  1.00  0.00     0.152 A 
HETATM   30  N   UNL     1      38.304 -10.553  -3.308  1.00  0.00    -0.187 NA
HETATM   31  N   UNL     1      37.356 -11.504  -3.266  1.00  0.00    -0.289 N 
HETATM   32  H   UNL     1      36.604 -11.463  -3.946  1.00  0.00     0.188 HD
HETATM   33  C   UNL     1      37.548 -12.422  -2.276  1.00  0.00     0.123 A 
ENDBRANCH   3  28
TORSDOF 11
ENDMDL
MODEL 3
REMARK VINA RESULT:      -7.1      2.320      8.288
REMARK  11 active torsions:
REMARK  status: ('A' for Active; 'I' for Inactive)
REMARK    1  A    between atoms: O_1  and  C_2 
REMARK    2  A    between atoms: C_2  and  C_3 
REMARK    3  A    between atoms: C_3  and  O_4 
REMARK    4  A    between atoms: O_4  and  C_5 
REMARK    5  A    between atoms: C_7  and  C_25 
REMARK    6  A    between atoms: C_10  and  N_11 
REMARK       I    between atoms: N_11  and  C_12 
REMARK       I    between atoms: C_12  and  N_14 
REMARK    7  A    between atoms: N_14  and  C_15 
REMARK    8  A    between atoms: N_14  and  C_18 
REMARK    9  A    between atoms: C_15  and  C_16 
REMARK   10  A    between atoms: C_16  and  O_17 
REMARK   11  A    between atoms: C_18  and  C_19 
ROOT
HETATM    1  C   UNL     1      42.947 -15.626   3.240  1.00  0.00     0.096 A 
HETATM    2  C   UNL     1      43.177 -16.983   2.979  1.00  0.00     0.051 A 
HETATM    3  C   UNL     1      43.640 -17.839   3.990  1.00  0.00    -0.020 A 
HETATM    4  C   UNL     1      43.907 -17.317   5.261  1.00  0.00     0.015 A 
HETATM    5  C   UNL     1      43.672 -15.968   5.533  1.00  0.00     0.033 A 
HETATM    6  C   UNL     1      43.136 -15.136   4.544  1.00  0.00     0.069 A 
ENDROOT
BRANCH   6   7
HETATM    7  N   UNL     1      42.806 -13.811   4.915  1.00  0.00    -0.306 N 
HETATM    8  C   UNL     1      41.483 -13.447   5.114  1.00  0.00     0.323 C 
HETATM    9  O   UNL     1      40.533 -14.222   5.020  1.00  0.00    -0.247 OA
HETATM   10  N   UNL     1      41.314 -12.132   5.545  1.00  0.00    -0.328 N 
HETATM   11  H   UNL     1      43.419 -13.390   5.607  1.00  0.00     0.171 HD
BRANCH  10  12
HETATM   12  C   UNL     1      42.358 -11.101   5.468  1.00  0.00     0.153 C 
BRANCH  12  13
HETATM   13  C   UNL     1      42.964 -10.780   6.836  1.00  0.00     0.184 C 
BRANCH  13  14
HETATM   14  O   UNL     1      43.380 -11.976   7.497  1.00  0.00    -0.399 OA
HETATM   15  H   UNL     1      43.385 -11.765   8.451  1.00  0.00     0.209 HD
ENDBRANCH  13  14
ENDBRANCH  12  13
ENDBRANCH  10  12
BRANCH  10  16
HETATM   16  C   UNL     1      40.027 -11.762   6.131  1.00  0.00     0.166 C 
BRANCH  16  17
HETATM   17  C   UNL     1      39.290 -10.647   5.427  1.00  0.00    -0.040 A 
HETATM   18  C   UNL     1      38.965  -9.446   6.071  1.00  0.00     0.009 A 
HETATM   19  C   UNL     1      38.347  -8.407   5.370  1.00  0.00     0.001 A 
HETATM   20  C   UNL     1      38.065  -8.549   4.013  1.00  0.00     0.000 A 
HETATM   21  C   UNL     1      38.401  -9.729   3.353  1.00  0.00     0.001 A 
HETATM   22  C   UNL     1      39.012 -10.770   4.055  1.00  0.00     0.009 A 
ENDBRANCH  16  17
ENDBRANCH  10  16
ENDBRANCH   6   7
BRANCH   1  23
HETATM   23  O   UNL     1      42.572 -14.717   2.281  1.00  0.00    -0.347 OA
BRANCH  23  24
HETATM   24  C   UNL     1      41.533 -15.117   1.390  1.00  0.00     0.201 C 
BRANCH  24  25
HETATM   25  C   UNL     1      40.316 -14.233   1.636  1.00  0.00     0.190 C 
BRANCH  25  26
HETATM   26  O   UNL     1      39.353 -14.929   2.419  1.00  0.00    -0.399 OA
HETATM   27  H   UNL     1      39.448 -14.606   3.332  1.00  0.00     0.209 HD
ENDBRANCH  25  26
ENDBRANCH  24  25
ENDBRANCH  23  24
ENDBRANCH   1  23
BRANCH   3  28
HETATM   28  C   UNL     1      43.822 -19.256   3.740  1.00  0.00     0.010 A 
HETATM   29  C   UNL     1      43.729 -19.998   2.540  1.00  0.00     0.152 A 
HETATM   30  N   UNL     1      43.964 -21.301   2.720  1.00  0.00    -0.187 NA
HETATM   31  N   UNL     1      44.217 -21.394   4.036  1.00  0.00    -0.289 N 
HETATM   32  H   UNL     1      44.433 -22.308   4.419  1.00  0.00     0.188 HD
HETATM   33  C   UNL     1      44.143 -20.200   4.692  1.00  0.00     0.123 A 
ENDBRANCH   3  28
TORSDOF 11
ENDMDL
MODEL 4
REMARK VINA RESULT:      -7.1      3.543      8.183
REMARK  11 active torsions:
REMARK  status: ('A' for Active; 'I' for Inactive)
REMARK    1  A    between atoms: O_1  and  C_2 
REMARK    2  A    between atoms: C_2  and  C_3 
REMARK    3  A    between atoms: C_3  and  O_4 
REMARK    4  A    between atoms: O_4  and  C_5 
REMARK    5  A    between atoms: C_7  and  C_25 
REMARK    6  A    between atoms: C_10  and  N_11 
REMARK       I    between atoms: N_11  and  C_12 
REMARK       I    between atoms: C_12  and  N_14 
REMARK    7  A    between atoms: N_14  and  C_15 
REMARK    8  A    between atoms: N_14  and  C_18 
REMARK    9  A    between atoms: C_15  and  C_16 
REMARK   10  A    between atoms: C_16  and  O_17 
REMARK   11  A    between atoms: C_18  and  C_19 
ROOT
HETATM    1  C   UNL     1      42.572 -15.705   4.415  1.00  0.00     0.096 A 
HETATM    2  C   UNL     1      42.945 -17.055   4.441  1.00  0.00     0.051 A 
HETATM    3  C   UNL     1      43.127 -17.773   3.249  1.00  0.00    -0.020 A 
HETATM    4  C   UNL     1      42.896 -17.135   2.025  1.00  0.00     0.015 A 
HETATM    5  C   UNL     1      42.533 -15.788   1.987  1.00  0.00     0.033 A 
HETATM    6  C   UNL     1      42.430 -15.057   3.175  1.00  0.00     0.069 A 
ENDROOT
BRANCH   6   7
HETATM    7  N   UNL     1      42.179 -13.668   3.067  1.00  0.00    -0.306 N 
HETATM    8  C   UNL     1      40.895 -13.172   3.231  1.00  0.00     0.323 C 
HETATM    9  O   UNL     1      39.918 -13.865   3.505  1.00  0.00    -0.247 OA
HETATM   10  N   UNL     1      40.811 -11.781   3.169  1.00  0.00    -0.328 N 
HETATM   11  H   UNL     1      42.872 -13.068   3.506  1.00  0.00     0.171 HD
BRANCH  10  12
HETATM   12  C   UNL     1      41.873 -10.917   2.637  1.00  0.00     0.153 C 
BRANCH  12  13
HETATM   13  C   UNL     1      41.715 -10.654   1.138  1.00  0.00     0.184 C 
BRANCH  13  14
HETATM   14  O   UNL     1      42.091  -9.313   0.817  1.00  0.00    -0.399 OA
HETATM   15  H   UNL     1      42.983  -9.374   0.424  1.00  0.00     0.209 HD
ENDBRANCH  13  14
ENDBRANCH  12  13
ENDBRANCH  10  12
BRANCH  10  16
HETATM   16  C   UNL     1      39.602 -11.144   3.687  1.00  0.00     0.166 C 
BRANCH  16  17
HETATM   17  C   UNL     1      38.627 -10.655   2.641  1.00  0.00    -0.040 A 
HETATM   18  C   UNL     1      37.995 -11.528   1.747  1.00  0.00     0.009 A 
HETATM   19  C   UNL     1      37.045 -11.053   0.840  1.00  0.00     0.001 A 
HETATM   20  C   UNL     1      36.700  -9.703   0.831  1.00  0.00     0.000 A 
HETATM   21  C   UNL     1      37.304  -8.826   1.729  1.00  0.00     0.001 A 
HETATM   22  C   UNL     1      38.259  -9.299   2.630  1.00  0.00     0.009 A 
ENDBRANCH  16  17
ENDBRANCH  10  16
ENDBRANCH   6   7
BRANCH   1  23
HETATM   23  O   UNL     1      42.299 -14.966   5.540  1.00  0.00    -0.347 OA
BRANCH  23  24
HETATM   24  C   UNL     1      41.752 -15.670   6.652  1.00  0.00     0.201 C 
BRANCH  24  25
HETATM   25  C   UNL     1      40.237 -15.721   6.497  1.00  0.00     0.190 C 
BRANCH  25  26
HETATM   26  O   UNL     1      39.708 -14.404   6.396  1.00  0.00    -0.399 OA
HETATM   27  H   UNL     1      39.224 -14.232   7.223  1.00  0.00     0.209 HD
ENDBRANCH  25  26
ENDBRANCH  24  25
ENDBRANCH  23  24
ENDBRANCH   1  23
BRANCH   3  28
HETATM   28  C   UNL     1      43.571 -19.153   3.271  1.00  0.00     0.010 A 
HETATM   29  C   UNL     1      43.622 -20.121   2.241  1.00  0.00     0.152 A 
HETATM   30  N   UNL     1      44.095 -21.297   2.662  1.00  0.00    -0.187 NA
HETATM   31  N   UNL     1      44.356 -21.083   3.961  1.00  0.00    -0.289 N 
HETATM   32  H   UNL     1      44.736 -21.849   4.507  1.00  0.00     0.188 HD
HETATM   33  C   UNL     1      44.058 -19.817   4.376  1.00  0.00     0.123 A 
ENDBRANCH   3  28
TORSDOF 11
ENDMDL
MODEL 5
REMARK VINA RESULT:      -7.0      4.421      7.964
REMARK  11 active torsions:
REMARK  status: ('A' for Active; 'I' for Inactive)
REMARK    1  A    between atoms: O_1  and  C_2 
REMARK    2  A    between atoms: C_2  and  C_3 
REMARK    3  A    between atoms: C_3  and  O_4 
REMARK    4  A    between atoms: O_4  and  C_5 
REMARK    5  A    between atoms: C_7  and  C_25 
REMARK    6  A    between atoms: C_10  and  N_11 
REMARK       I    between atoms: N_11  and  C_12 
REMARK       I    between atoms: C_12  and  N_14 
REMARK    7  A    between atoms: N_14  and  C_15 
REMARK    8  A    between atoms: N_14  and  C_18 
REMARK    9  A    between atoms: C_15  and  C_16 
REMARK   10  A    between atoms: C_16  and  O_17 
REMARK   11  A    between atoms: C_18  and  C_19 
ROOT
HETATM    1  C   UNL     1      41.083 -15.032   2.697  1.00  0.00     0.096 A 
HETATM    2  C   UNL     1      41.573 -15.930   3.654  1.00  0.00     0.051 A 
HETATM    3  C   UNL     1      42.636 -16.794   3.350  1.00  0.00    -0.020 A 
HETATM    4  C   UNL     1      43.185 -16.777   2.063  1.00  0.00     0.015 A 
HETATM    5  C   UNL     1      42.710 -15.879   1.105  1.00  0.00     0.033 A 
HETATM    6  C   UNL     1      41.703 -14.967   1.437  1.00  0.00     0.069 A 
ENDROOT
BRANCH   6   7
HETATM    7  N   UNL     1      41.349 -14.002   0.463  1.00  0.00    -0.306 N 
HETATM    8  C   UNL     1      40.254 -14.207  -0.361  1.00  0.00     0.323 C 
HETATM    9  O   UNL     1      39.512 -15.185  -0.293  1.00  0.00    -0.247 OA
HETATM   10  N   UNL     1      39.983 -13.142  -1.220  1.00  0.00    -0.328 N 
HETATM   11  H   UNL     1      41.414 -13.036   0.769  1.00  0.00     0.171 HD
BRANCH  10  12
HETATM   12  C   UNL     1      40.931 -12.058  -1.510  1.00  0.00     0.153 C 
BRANCH  12  13
HETATM   13  C   UNL     1      41.287 -11.976  -2.995  1.00  0.00     0.184 C 
BRANCH  13  14
HETATM   14  O   UNL     1      41.768 -13.235  -3.470  1.00  0.00    -0.399 OA
HETATM   15  H   UNL     1      42.586 -13.414  -2.965  1.00  0.00     0.209 HD
ENDBRANCH  13  14
ENDBRANCH  12  13
ENDBRANCH  10  12
BRANCH  10  16
HETATM   16  C   UNL     1      38.666 -13.090  -1.853  1.00  0.00     0.166 C 
BRANCH  16  17
HETATM   17  C   UNL     1      37.818 -11.894  -1.491  1.00  0.00    -0.040 A 
HETATM   18  C   UNL     1      37.102 -11.169  -2.453  1.00  0.00     0.009 A 
HETATM   19  C   UNL     1      36.270 -10.112  -2.074  1.00  0.00     0.001 A 
HETATM   20  C   UNL     1      36.130  -9.780  -0.728  1.00  0.00     0.000 A 
HETATM   21  C   UNL     1      36.820 -10.504   0.242  1.00  0.00     0.001 A 
HETATM   22  C   UNL     1      37.655 -11.556  -0.137  1.00  0.00     0.009 A 
ENDBRANCH  16  17
ENDBRANCH  10  16
ENDBRANCH   6   7
BRANCH   1  23
HETATM   23  O   UNL     1      39.996 -14.217   2.899  1.00  0.00    -0.347 OA
BRANCH  23  24
HETATM   24  C   UNL     1      40.085 -13.286   3.976  1.00  0.00     0.201 C 
BRANCH  24  25
HETATM   25  C   UNL     1      39.753 -11.897   3.445  1.00  0.00     0.190 C 
BRANCH  25  26
HETATM   26  O   UNL     1      40.311 -11.721   2.148  1.00  0.00    -0.399 OA
HETATM   27  H   UNL     1      40.590 -12.601   1.840  1.00  0.00     0.209 HD
ENDBRANCH  25  26
ENDBRANCH  24  25
ENDBRANCH  23  24
ENDBRANCH   1  23
BRANCH   3  28
HETATM   28  C   UNL     1      43.185 -17.682   4.357  1.00  0.00     0.010 A 
HETATM   29  C   UNL     1      43.968 -18.852   4.224  1.00  0.00     0.152 A 
HETATM   30  N   UNL     1      44.278 -19.401   5.401  1.00  0.00    -0.187 NA
HETATM   31  N   UNL     1      43.702 -18.578   6.292  1.00  0.00    -0.289 N 
HETATM   32  H   UNL     1      43.804 -18.791   7.279  1.00  0.00     0.188 HD
HETATM   33  C   UNL     1      43.034 -17.535   5.719  1.00  0.00     0.123 A 
ENDBRANCH   3  28
TORSDOF 11
ENDMDL
MODEL 6
REMARK VINA RESULT:      -7.0      2.056      7.977
REMARK  11 active torsions:
REMARK  status: ('A' for Active; 'I' for Inactive)
REMARK    1  A    between atoms: O_1  and  C_2 
REMARK    2  A    between atoms: C_2  and  C_3 
REMARK    3  A    between atoms: C_3  and  O_4 
REMARK    4  A    between atoms: O_4  and  C_5 
REMARK    5  A    between atoms: C_7  and  C_25 
REMARK    6  A    between atoms: C_10  and  N_11 
REMARK       I    between atoms: N_11  and  C_12 
REMARK       I    between atoms: C_12  and  N_14 
REMARK    7  A    between atoms: N_14  and  C_15 
REMARK    8  A    between atoms: N_14  and  C_18 
REMARK    9  A    between atoms: C_15  and  C_16 
REMARK   10  A    between atoms: C_16  and  O_17 
REMARK   11  A    between atoms: C_18  and  C_19 
ROOT
HETATM    1  C   UNL     1      42.532 -15.596   3.326  1.00  0.00     0.096 A 
HETATM    2  C   UNL     1      42.926 -16.885   2.945  1.00  0.00     0.051 A 
HETATM    3  C   UNL     1      43.265 -17.846   3.910  1.00  0.00    -0.020 A 
HETATM    4  C   UNL     1      43.242 -17.494   5.264  1.00  0.00     0.015 A 
HETATM    5  C   UNL     1      42.842 -16.215   5.654  1.00  0.00     0.033 A 
HETATM    6  C   UNL     1      42.430 -15.286   4.693  1.00  0.00     0.069 A 
ENDROOT
BRANCH   6   7
HETATM    7  N   UNL     1      41.920 -14.050   5.158  1.00  0.00    -0.306 N 
HETATM    8  C   UNL     1      42.783 -13.026   5.517  1.00  0.00     0.323 C 
HETATM    9  O   UNL     1      44.008 -13.095   5.435  1.00  0.00    -0.247 OA
HETATM   10  N   UNL     1      42.140 -11.845   5.886  1.00  0.00    -0.328 N 
HETATM   11  H   UNL     1      41.111 -13.699   4.653  1.00  0.00     0.171 HD
BRANCH  10  12
HETATM   12  C   UNL     1      40.711 -11.755   6.216  1.00  0.00     0.153 C 
BRANCH  12  13
HETATM   13  C   UNL     1      39.827 -11.693   4.969  1.00  0.00     0.184 C 
BRANCH  13  14
HETATM   14  O   UNL     1      39.160 -12.939   4.760  1.00  0.00    -0.399 OA
HETATM   15  H   UNL     1      39.396 -13.218   3.854  1.00  0.00     0.209 HD
ENDBRANCH  13  14
ENDBRANCH  12  13
ENDBRANCH  10  12
BRANCH  10  16
HETATM   16  C   UNL     1      42.932 -10.616   5.924  1.00  0.00     0.166 C 
BRANCH  16  17
HETATM   17  C   UNL     1      43.552 -10.284   7.261  1.00  0.00    -0.040 A 
HETATM   18  C   UNL     1      42.803  -9.748   8.317  1.00  0.00     0.009 A 
HETATM   19  C   UNL     1      43.392  -9.520   9.563  1.00  0.00     0.001 A 
HETATM   20  C   UNL     1      44.731  -9.844   9.774  1.00  0.00     0.000 A 
HETATM   21  C   UNL     1      45.482 -10.398   8.741  1.00  0.00     0.001 A 
HETATM   22  C   UNL     1      44.896 -10.620   7.494  1.00  0.00     0.009 A 
ENDBRANCH  16  17
ENDBRANCH  10  16
ENDBRANCH   6   7
BRANCH   1  23
HETATM   23  O   UNL     1      42.265 -14.585   2.436  1.00  0.00    -0.347 OA
BRANCH  23  24
HETATM   24  C   UNL     1      41.328 -14.874   1.400  1.00  0.00     0.201 C 
BRANCH  24  25
HETATM   25  C   UNL     1      40.073 -14.043   1.636  1.00  0.00     0.190 C 
BRANCH  25  26
HETATM   26  O   UNL     1      39.168 -14.746   2.479  1.00  0.00    -0.399 OA
HETATM   27  H   UNL     1      38.401 -14.164   2.616  1.00  0.00     0.209 HD
ENDBRANCH  25  26
ENDBRANCH  24  25
ENDBRANCH  23  24
ENDBRANCH   1  23
BRANCH   3  28
HETATM   28  C   UNL     1      43.615 -19.200   3.522  1.00  0.00     0.010 A 
HETATM   29  C   UNL     1      43.570 -19.836   2.261  1.00  0.00     0.152 A 
HETATM   30  N   UNL     1      43.975 -21.108   2.310  1.00  0.00    -0.187 NA
HETATM   31  N   UNL     1      44.288 -21.287   3.604  1.00  0.00    -0.289 N 
HETATM   32  H   UNL     1      44.632 -22.196   3.893  1.00  0.00     0.188 HD
HETATM   33  C   UNL     1      44.089 -20.176   4.371  1.00  0.00     0.123 A 
ENDBRANCH   3  28
TORSDOF 11
ENDMDL
MODEL 7
REMARK VINA RESULT:      -6.9      3.438      8.105
REMARK  11 active torsions:
REMARK  status: ('A' for Active; 'I' for Inactive)
REMARK    1  A    between atoms: O_1  and  C_2 
REMARK    2  A    between atoms: C_2  and  C_3 
REMARK    3  A    between atoms: C_3  and  O_4 
REMARK    4  A    between atoms: O_4  and  C_5 
REMARK    5  A    between atoms: C_7  and  C_25 
REMARK    6  A    between atoms: C_10  and  N_11 
REMARK       I    between atoms: N_11  and  C_12 
REMARK       I    between atoms: C_12  and  N_14 
REMARK    7  A    between atoms: N_14  and  C_15 
REMARK    8  A    between atoms: N_14  and  C_18 
REMARK    9  A    between atoms: C_15  and  C_16 
REMARK   10  A    between atoms: C_16  and  O_17 
REMARK   11  A    between atoms: C_18  and  C_19 
ROOT
HETATM    1  C   UNL     1      42.513 -15.735   4.468  1.00  0.00     0.096 A 
HETATM    2  C   UNL     1      42.895 -17.082   4.525  1.00  0.00     0.051 A 
HETATM    3  C   UNL     1      43.148 -17.807   3.350  1.00  0.00    -0.020 A 
HETATM    4  C   UNL     1      42.980 -17.181   2.110  1.00  0.00     0.015 A 
HETATM    5  C   UNL     1      42.609 -15.837   2.042  1.00  0.00     0.033 A 
HETATM    6  C   UNL     1      42.434 -15.098   3.217  1.00  0.00     0.069 A 
ENDROOT
BRANCH   6   7
HETATM    7  N   UNL     1      42.179 -13.712   3.084  1.00  0.00    -0.306 N 
HETATM    8  C   UNL     1      40.878 -13.234   3.093  1.00  0.00     0.323 C 
HETATM    9  O   UNL     1      39.884 -13.943   3.244  1.00  0.00    -0.247 OA
HETATM   10  N   UNL     1      40.782 -11.845   3.026  1.00  0.00    -0.328 N 
HETATM   11  H   UNL     1      42.805 -13.105   3.605  1.00  0.00     0.171 HD
BRANCH  10  12
HETATM   12  C   UNL     1      41.888 -10.963   2.629  1.00  0.00     0.153 C 
BRANCH  12  13
HETATM   13  C   UNL     1      41.645 -10.297   1.273  1.00  0.00     0.184 C 
BRANCH  13  14
HETATM   14  O   UNL     1      41.361  -8.906   1.438  1.00  0.00    -0.399 OA
HETATM   15  H   UNL     1      41.327  -8.533   0.535  1.00  0.00     0.209 HD
ENDBRANCH  13  14
ENDBRANCH  12  13
ENDBRANCH  10  12
BRANCH  10  16
HETATM   16  C   UNL     1      39.510 -11.226   3.396  1.00  0.00     0.166 C 
BRANCH  16  17
HETATM   17  C   UNL     1      39.521 -10.441   4.687  1.00  0.00    -0.040 A 
HETATM   18  C   UNL     1      39.514  -9.040   4.707  1.00  0.00     0.009 A 
HETATM   19  C   UNL     1      39.452  -8.347   5.918  1.00  0.00     0.001 A 
HETATM   20  C   UNL     1      39.375  -9.045   7.122  1.00  0.00     0.000 A 
HETATM   21  C   UNL     1      39.359 -10.437   7.117  1.00  0.00     0.001 A 
HETATM   22  C   UNL     1      39.428 -11.131   5.907  1.00  0.00     0.009 A 
ENDBRANCH  16  17
ENDBRANCH  10  16
ENDBRANCH   6   7
BRANCH   1  23
HETATM   23  O   UNL     1      42.172 -14.990   5.569  1.00  0.00    -0.347 OA
BRANCH  23  24
HETATM   24  C   UNL     1      41.677 -15.706   6.699  1.00  0.00     0.201 C 
BRANCH  24  25
HETATM   25  C   UNL     1      40.159 -15.782   6.598  1.00  0.00     0.190 C 
BRANCH  25  26
HETATM   26  O   UNL     1      39.626 -14.514   6.230  1.00  0.00    -0.399 OA
HETATM   27  H   UNL     1      39.426 -14.558   5.279  1.00  0.00     0.209 HD
ENDBRANCH  25  26
ENDBRANCH  24  25
ENDBRANCH  23  24
ENDBRANCH   1  23
BRANCH   3  28
HETATM   28  C   UNL     1      43.601 -19.184   3.408  1.00  0.00     0.010 A 
HETATM   29  C   UNL     1      43.634 -20.185   2.411  1.00  0.00     0.152 A 
HETATM   30  N   UNL     1      44.125 -21.343   2.859  1.00  0.00    -0.187 NA
HETATM   31  N   UNL     1      44.415 -21.084   4.144  1.00  0.00    -0.289 N 
HETATM   32  H   UNL     1      44.814 -21.829   4.706  1.00  0.00     0.188 HD
HETATM   33  C   UNL     1      44.120 -19.807   4.523  1.00  0.00     0.123 A 
ENDBRANCH   3  28
TORSDOF 11
ENDMDL
MODEL 8
REMARK VINA RESULT:      -6.8      2.721      3.914
REMARK  11 active torsions:
REMARK  status: ('A' for Active; 'I' for Inactive)
REMARK    1  A    between atoms: O_1  and  C_2 
REMARK    2  A    between atoms: C_2  and  C_3 
REMARK    3  A    between atoms: C_3  and  O_4 
REMARK    4  A    between atoms: O_4  and  C_5 
REMARK    5  A    between atoms: C_7  and  C_25 
REMARK    6  A    between atoms: C_10  and  N_11 
REMARK       I    between atoms: N_11  and  C_12 
REMARK       I    between atoms: C_12  and  N_14 
REMARK    7  A    between atoms: N_14  and  C_15 
REMARK    8  A    between atoms: N_14  and  C_18 
REMARK    9  A    between atoms: C_15  and  C_16 
REMARK   10  A    between atoms: C_16  and  O_17 
REMARK   11  A    between atoms: C_18  and  C_19 
ROOT
HETATM    1  C   UNL     1      41.488 -10.871   5.816  1.00  0.00     0.096 A 
HETATM    2  C   UNL     1      41.116 -10.085   6.915  1.00  0.00     0.051 A 
HETATM    3  C   UNL     1      39.773  -9.999   7.313  1.00  0.00    -0.020 A 
HETATM    4  C   UNL     1      38.796 -10.679   6.578  1.00  0.00     0.015 A 
HETATM    5  C   UNL     1      39.157 -11.472   5.488  1.00  0.00     0.033 A 
HETATM    6  C   UNL     1      40.505 -11.617   5.143  1.00  0.00     0.069 A 
ENDROOT
BRANCH   6   7
HETATM    7  N   UNL     1      40.819 -12.529   4.107  1.00  0.00    -0.306 N 
HETATM    8  C   UNL     1      40.942 -13.883   4.377  1.00  0.00     0.323 C 
HETATM    9  O   UNL     1      40.764 -14.384   5.486  1.00  0.00    -0.247 OA
HETATM   10  N   UNL     1      41.182 -14.668   3.251  1.00  0.00    -0.328 N 
HETATM   11  H   UNL     1      40.339 -12.365   3.226  1.00  0.00     0.171 HD
BRANCH  10  12
HETATM   12  C   UNL     1      41.618 -14.133   1.954  1.00  0.00     0.153 C 
BRANCH  12  13
HETATM   13  C   UNL     1      40.822 -14.715   0.784  1.00  0.00     0.184 C 
BRANCH  13  14
HETATM   14  O   UNL     1      39.534 -14.103   0.697  1.00  0.00    -0.399 OA
HETATM   15  H   UNL     1      39.145 -14.172   1.591  1.00  0.00     0.209 HD
ENDBRANCH  13  14
ENDBRANCH  12  13
ENDBRANCH  10  12
BRANCH  10  16
HETATM   16  C   UNL     1      40.964 -16.110   3.360  1.00  0.00     0.166 C 
BRANCH  16  17
HETATM   17  C   UNL     1      42.214 -16.947   3.496  1.00  0.00    -0.040 A 
HETATM   18  C   UNL     1      42.973 -16.968   4.673  1.00  0.00     0.009 A 
HETATM   19  C   UNL     1      44.082 -17.808   4.790  1.00  0.00     0.001 A 
HETATM   20  C   UNL     1      44.434 -18.653   3.740  1.00  0.00     0.000 A 
HETATM   21  C   UNL     1      43.677 -18.660   2.571  1.00  0.00     0.001 A 
HETATM   22  C   UNL     1      42.572 -17.815   2.451  1.00  0.00     0.009 A 
ENDBRANCH  16  17
ENDBRANCH  10  16
ENDBRANCH   6   7
BRANCH   1  23
HETATM   23  O   UNL     1      42.768 -10.938   5.323  1.00  0.00    -0.347 OA
BRANCH  23  24
HETATM   24  C   UNL     1      43.806 -11.194   6.267  1.00  0.00     0.201 C 
BRANCH  24  25
HETATM   25  C   UNL     1      43.827 -12.687   6.570  1.00  0.00     0.190 C 
BRANCH  25  26
HETATM   26  O   UNL     1      43.503 -12.916   7.937  1.00  0.00    -0.399 OA
HETATM   27  H   UNL     1      44.294 -13.301   8.352  1.00  0.00     0.209 HD
ENDBRANCH  25  26
ENDBRANCH  24  25
ENDBRANCH  23  24
ENDBRANCH   1  23
BRANCH   3  28
HETATM   28  C   UNL     1      39.392  -9.235   8.486  1.00  0.00     0.010 A 
HETATM   29  C   UNL     1      39.216  -7.843   8.660  1.00  0.00     0.152 A 
HETATM   30  N   UNL     1      38.862  -7.520   9.907  1.00  0.00    -0.187 NA
HETATM   31  N   UNL     1      38.801  -8.707  10.532  1.00  0.00    -0.289 N 
HETATM   32  H   UNL     1      38.542  -8.720  11.513  1.00  0.00     0.188 HD
HETATM   33  C   UNL     1      39.111  -9.764   9.727  1.00  0.00     0.123 A 
ENDBRANCH   3  28
TORSDOF 11
ENDMDL
MODEL 9
REMARK VINA RESULT:      -6.8      2.829      4.378
REMARK  11 active torsions:
REMARK  status: ('A' for Active; 'I' for Inactive)
REMARK    1  A    between atoms: O_1  and  C_2 
REMARK    2  A    between atoms: C_2  and  C_3 
REMARK    3  A    between atoms: C_3  and  O_4 
REMARK    4  A    between atoms: O_4  and  C_5 
REMARK    5  A    between atoms: C_7  and  C_25 
REMARK    6  A    between atoms: C_10  and  N_11 
REMARK       I    between atoms: N_11  and  C_12 
REMARK       I    between atoms: C_12  and  N_14 
REMARK    7  A    between atoms: N_14  and  C_15 
REMARK    8  A    between atoms: N_14  and  C_18 
REMARK    9  A    between atoms: C_15  and  C_16 
REMARK   10  A    between atoms: C_16  and  O_17 
REMARK   11  A    between atoms: C_18  and  C_19 
ROOT
HETATM    1  C   UNL     1      43.971 -11.022   7.813  1.00  0.00     0.096 A 
HETATM    2  C   UNL     1      43.834 -10.371   9.046  1.00  0.00     0.051 A 
HETATM    3  C   UNL     1      42.730  -9.544   9.301  1.00  0.00    -0.020 A 
HETATM    4  C   UNL     1      41.778  -9.342   8.295  1.00  0.00     0.015 A 
HETATM    5  C   UNL     1      41.901  -9.993   7.067  1.00  0.00     0.033 A 
HETATM    6  C   UNL     1      42.961 -10.878   6.846  1.00  0.00     0.069 A 
ENDROOT
BRANCH   6   7
HETATM    7  N   UNL     1      42.965 -11.601   5.628  1.00  0.00    -0.306 N 
HETATM    8  C   UNL     1      42.508 -12.909   5.588  1.00  0.00     0.323 C 
HETATM    9  O   UNL     1      42.052 -13.511   6.558  1.00  0.00    -0.247 OA
HETATM   10  N   UNL     1      42.503 -13.470   4.311  1.00  0.00    -0.328 N 
HETATM   11  H   UNL     1      42.667 -11.075   4.812  1.00  0.00     0.171 HD
BRANCH  10  12
HETATM   12  C   UNL     1      43.224 -12.905   3.162  1.00  0.00     0.153 C 
BRANCH  12  13
HETATM   13  C   UNL     1      42.335 -12.007   2.300  1.00  0.00     0.184 C 
BRANCH  13  14
HETATM   14  O   UNL     1      42.615 -10.628   2.551  1.00  0.00    -0.399 OA
HETATM   15  H   UNL     1      42.159 -10.131   1.844  1.00  0.00     0.209 HD
ENDBRANCH  13  14
ENDBRANCH  12  13
ENDBRANCH  10  12
BRANCH  10  16
HETATM   16  C   UNL     1      41.713 -14.681   4.097  1.00  0.00     0.166 C 
BRANCH  16  17
HETATM   17  C   UNL     1      42.509 -15.932   3.807  1.00  0.00    -0.040 A 
HETATM   18  C   UNL     1      43.369 -16.505   4.753  1.00  0.00     0.009 A 
HETATM   19  C   UNL     1      44.035 -17.702   4.477  1.00  0.00     0.001 A 
HETATM   20  C   UNL     1      43.833 -18.351   3.261  1.00  0.00     0.000 A 
HETATM   21  C   UNL     1      42.965 -17.805   2.318  1.00  0.00     0.001 A 
HETATM   22  C   UNL     1      42.305 -16.606   2.591  1.00  0.00     0.009 A 
ENDBRANCH  16  17
ENDBRANCH  10  16
ENDBRANCH   6   7
BRANCH   1  23
HETATM   23  O   UNL     1      45.062 -11.781   7.467  1.00  0.00    -0.347 OA
BRANCH  23  24
HETATM   24  C   UNL     1      46.066 -11.139   6.682  1.00  0.00     0.201 C 
BRANCH  24  25
HETATM   25  C   UNL     1      47.014 -10.400   7.618  1.00  0.00     0.190 C 
BRANCH  25  26
HETATM   26  O   UNL     1      46.868  -8.994   7.459  1.00  0.00    -0.399 OA
HETATM   27  H   UNL     1      46.151  -8.717   8.055  1.00  0.00     0.209 HD
ENDBRANCH  25  26
ENDBRANCH  24  25
ENDBRANCH  23  24
ENDBRANCH   1  23
BRANCH   3  28
HETATM   28  C   UNL     1      42.554  -8.916  10.597  1.00  0.00     0.010 A 
HETATM   29  C   UNL     1      41.407  -8.346  11.195  1.00  0.00     0.152 A 
HETATM   30  N   UNL     1      41.650  -7.858  12.415  1.00  0.00    -0.187 NA
HETATM   31  N   UNL     1      42.953  -8.123  12.604  1.00  0.00    -0.289 N 
HETATM   32  H   UNL     1      43.377  -7.843  13.482  1.00  0.00     0.188 HD
HETATM   33  C   UNL     1      43.540  -8.754  11.546  1.00  0.00     0.123 A 
ENDBRANCH   3  28
TORSDOF 11
ENDMDL
MODEL 10
REMARK VINA RESULT:      -6.7      4.139      7.906
REMARK  11 active torsions:
REMARK  status: ('A' for Active; 'I' for Inactive)
REMARK    1  A    between atoms: O_1  and  C_2 
REMARK    2  A    between atoms: C_2  and  C_3 
REMARK    3  A    between atoms: C_3  and  O_4 
REMARK    4  A    between atoms: O_4  and  C_5 
REMARK    5  A    between atoms: C_7  and  C_25 
REMARK    6  A    between atoms: C_10  and  N_11 
REMARK       I    between atoms: N_11  and  C_12 
REMARK       I    between atoms: C_12  and  N_14 
REMARK    7  A    between atoms: N_14  and  C_15 
REMARK    8  A    between atoms: N_14  and  C_18 
REMARK    9  A    between atoms: C_15  and  C_16 
REMARK   10  A    between atoms: C_16  and  O_17 
REMARK   11  A    between atoms: C_18  and  C_19 
ROOT
HETATM    1  C   UNL     1      42.379 -14.363   3.263  1.00  0.00     0.096 A 
HETATM    2  C   UNL     1      42.809 -15.464   4.015  1.00  0.00     0.051 A 
HETATM    3  C   UNL     1      42.990 -16.718   3.413  1.00  0.00    -0.020 A 
HETATM    4  C   UNL     1      42.700 -16.872   2.052  1.00  0.00     0.015 A 
HETATM    5  C   UNL     1      42.280 -15.780   1.292  1.00  0.00     0.033 A 
HETATM    6  C   UNL     1      42.177 -14.515   1.880  1.00  0.00     0.069 A 
ENDROOT
BRANCH   6   7
HETATM    7  N   UNL     1      41.865 -13.425   1.032  1.00  0.00    -0.306 N 
HETATM    8  C   UNL     1      40.547 -13.040   0.840  1.00  0.00     0.323 C 
HETATM    9  O   UNL     1      39.586 -13.572   1.393  1.00  0.00    -0.247 OA
HETATM   10  N   UNL     1      40.396 -11.909   0.039  1.00  0.00    -0.328 N 
HETATM   11  H   UNL     1      42.481 -12.622   1.116  1.00  0.00     0.171 HD
BRANCH  10  12
HETATM   12  C   UNL     1      41.456 -11.363  -0.819  1.00  0.00     0.153 C 
BRANCH  12  13
HETATM   13  C   UNL     1      41.432  -9.834  -0.876  1.00  0.00     0.184 C 
BRANCH  13  14
HETATM   14  O   UNL     1      42.370  -9.280   0.048  1.00  0.00    -0.399 OA
HETATM   15  H   UNL     1      42.142  -8.332   0.123  1.00  0.00     0.209 HD
ENDBRANCH  13  14
ENDBRANCH  12  13
ENDBRANCH  10  12
BRANCH  10  16
HETATM   16  C   UNL     1      39.112 -11.211   0.073  1.00  0.00     0.166 C 
BRANCH  16  17
HETATM   17  C   UNL     1      38.189 -11.493  -1.089  1.00  0.00    -0.040 A 
HETATM   18  C   UNL     1      38.044 -12.777  -1.630  1.00  0.00     0.009 A 
HETATM   19  C   UNL     1      37.127 -13.017  -2.657  1.00  0.00     0.001 A 
HETATM   20  C   UNL     1      36.331 -11.981  -3.140  1.00  0.00     0.000 A 
HETATM   21  C   UNL     1      36.448 -10.704  -2.598  1.00  0.00     0.001 A 
HETATM   22  C   UNL     1      37.368 -10.462  -1.577  1.00  0.00     0.009 A 
ENDBRANCH  16  17
ENDBRANCH  10  16
ENDBRANCH   6   7
BRANCH   1  23
HETATM   23  O   UNL     1      42.104 -13.130   3.801  1.00  0.00    -0.347 OA
BRANCH  23  24
HETATM   24  C   UNL     1      43.224 -12.305   4.115  1.00  0.00     0.201 C 
BRANCH  24  25
HETATM   25  C   UNL     1      42.856 -10.856   3.819  1.00  0.00     0.190 C 
BRANCH  25  26
HETATM   26  O   UNL     1      42.667 -10.673   2.420  1.00  0.00    -0.399 OA
HETATM   27  H   UNL     1      43.434 -11.077   1.978  1.00  0.00     0.209 HD
ENDBRANCH  25  26
ENDBRANCH  24  25
ENDBRANCH  23  24
ENDBRANCH   1  23
BRANCH   3  28
HETATM   28  C   UNL     1      43.492 -17.845   4.175  1.00  0.00     0.010 A 
HETATM   29  C   UNL     1      44.236 -18.975   3.766  1.00  0.00     0.152 A 
HETATM   30  N   UNL     1      44.510 -19.806   4.776  1.00  0.00    -0.187 NA
HETATM   31  N   UNL     1      43.949 -19.204   5.837  1.00  0.00    -0.289 N 
HETATM   32  H   UNL     1      44.029 -19.654   6.742  1.00  0.00     0.188 HD
HETATM   33  C   UNL     1      43.326 -18.029   5.531  1.00  0.00     0.123 A 
ENDBRANCH   3  28
TORSDOF 11
ENDMDL
