MODEL 1
REMARK VINA RESULT:      -8.2      0.000      0.000
REMARK  7 active torsions:
REMARK  status: ('A' for Active; 'I' for Inactive)
REMARK    1  A    between atoms: C_2  and  C_3 
REMARK       I    between atoms: C_3  and  N_4 
REMARK    2  A    between atoms: N_4  and  C_5 
REMARK    3  A    between atoms: C_7  and  C_8 
REMARK       I    between atoms: C_8  and  N_9 
REMARK    4  A    between atoms: N_9  and  C_10 
REMARK    5  A    between atoms: C_10  and  C_11 
REMARK    6  A    between atoms: C_13  and  O_14 
REMARK    7  A    between atoms: O_14  and  C_15 
ROOT
HETATM    1  C   UNL     1      42.676 -13.768   5.350  1.00  0.00     0.252 C 
HETATM    2  N   UNL     1      42.827 -12.400   5.279  1.00  0.00    -0.353 N 
HETATM    3  O   UNL     1      42.379 -14.353   6.387  1.00  0.00    -0.268 OA
HETATM    4  H   UNL     1      43.121 -11.952   4.424  1.00  0.00     0.163 HD
ENDROOT
BRANCH   1   5
HETATM    5  C   UNL     1      42.908 -14.554   4.102  1.00  0.00     0.034 A 
HETATM    6  C   UNL     1      42.979 -15.956   4.087  1.00  0.00     0.046 A 
HETATM    7  C   UNL     1      43.202 -16.642   2.888  1.00  0.00     0.035 A 
HETATM    8  C   UNL     1      43.382 -15.912   1.706  1.00  0.00     0.029 A 
HETATM    9  C   UNL     1      43.331 -14.518   1.715  1.00  0.00     0.003 A 
HETATM   10  C   UNL     1      43.094 -13.842   2.909  1.00  0.00     0.017 A 
BRANCH   7  11
HETATM   11  N   UNL     1      43.271 -18.047   2.786  1.00  0.00    -0.327 N 
HETATM   12  C   UNL     1      43.991 -18.917   3.591  1.00  0.00     0.221 C 
HETATM   13  O   UNL     1      44.671 -18.612   4.563  1.00  0.00    -0.273 OA
HETATM   14  H   UNL     1      42.699 -18.469   2.065  1.00  0.00     0.169 HD
BRANCH  12  15
HETATM   15  C   UNL     1      43.819 -20.359   3.135  1.00  0.00     0.098 C 
HETATM   16  C   UNL     1      43.242 -20.466   1.735  1.00  0.00     0.014 C 
ENDBRANCH  12  15
ENDBRANCH   7  11
ENDBRANCH   1   5
BRANCH   2  17
HETATM   17  C   UNL     1      42.583 -11.546   6.422  1.00  0.00     0.161 C 
BRANCH  17  18
HETATM   18  C   UNL     1      43.868 -11.141   7.095  1.00  0.00    -0.035 A 
HETATM   19  C   UNL     1      43.880 -10.716   8.428  1.00  0.00     0.066 A 
HETATM   20  C   UNL     1      45.089 -10.363   9.003  1.00  0.00     0.164 A 
HETATM   21  N   UNL     1      46.277 -10.427   8.368  1.00  0.00    -0.237 NA
HETATM   22  C   UNL     1      46.249 -10.866   7.092  1.00  0.00     0.120 A 
HETATM   23  C   UNL     1      45.089 -11.227   6.422  1.00  0.00     0.028 A 
BRANCH  20  24
HETATM   24  O   UNL     1      45.044  -9.913  10.310  1.00  0.00    -0.329 OA
BRANCH  24  25
HETATM   25  C   UNL     1      43.728  -9.730  10.873  1.00  0.00     0.130 C 
HETATM   26  C   UNL     1      43.324 -10.672  12.040  1.00  0.00     0.032 C 
HETATM   27  C   UNL     1      42.661  -9.456  12.711  1.00  0.00     0.005 C 
HETATM   28  C   UNL     1      43.619  -8.569  11.897  1.00  0.00     0.032 C 
ENDBRANCH  24  25
ENDBRANCH  20  24
ENDBRANCH  17  18
ENDBRANCH   2  17
TORSDOF 7
ENDMDL
MODEL 2
REMARK VINA RESULT:      -7.9      1.684      9.218
REMARK  7 active torsions:
REMARK  status: ('A' for Active; 'I' for Inactive)
REMARK    1  A    between atoms: C_2  and  C_3 
REMARK       I    between atoms: C_3  and  N_4 
REMARK    2  A    between atoms: N_4  and  C_5 
REMARK    3  A    between atoms: C_7  and  C_8 
REMARK       I    between atoms: C_8  and  N_9 
REMARK    4  A    between atoms: N_9  and  C_10 
REMARK    5  A    between atoms: C_10  and  C_11 
REMARK    6  A    between atoms: C_13  and  O_14 
REMARK    7  A    between atoms: O_14  and  C_15 
ROOT
HETATM    1  C   UNL     1      43.335 -11.328   5.194  1.00  0.00     0.252 C 
HETATM    2  N   UNL     1      43.921 -12.157   4.263  1.00  0.00    -0.353 N 
HETATM    3  O   UNL     1      42.215 -10.849   5.048  1.00  0.00    -0.268 OA
HETATM    4  H   UNL     1      44.864 -12.496   4.387  1.00  0.00     0.163 HD
ENDROOT
BRANCH   1   5
HETATM    5  C   UNL     1      44.124 -10.996   6.417  1.00  0.00     0.034 A 
HETATM    6  C   UNL     1      43.533 -10.523   7.599  1.00  0.00     0.046 A 
HETATM    7  C   UNL     1      44.322 -10.224   8.716  1.00  0.00     0.035 A 
HETATM    8  C   UNL     1      45.712 -10.376   8.632  1.00  0.00     0.029 A 
HETATM    9  C   UNL     1      46.309 -10.828   7.455  1.00  0.00     0.003 A 
HETATM   10  C   UNL     1      45.517 -11.138   6.352  1.00  0.00     0.017 A 
BRANCH   7  11
HETATM   11  N   UNL     1      43.804  -9.759   9.943  1.00  0.00    -0.327 N 
HETATM   12  C   UNL     1      43.660 -10.473  11.123  1.00  0.00     0.221 C 
HETATM   13  O   UNL     1      43.994 -11.636  11.313  1.00  0.00    -0.273 OA
HETATM   14  H   UNL     1      43.544  -8.781   9.973  1.00  0.00     0.169 HD
BRANCH  12  15
HETATM   15  C   UNL     1      43.037  -9.614  12.214  1.00  0.00     0.098 C 
HETATM   16  C   UNL     1      43.112  -8.129  11.905  1.00  0.00     0.014 C 
ENDBRANCH  12  15
ENDBRANCH   7  11
ENDBRANCH   1   5
BRANCH   2  17
HETATM   17  C   UNL     1      43.223 -12.572   3.065  1.00  0.00     0.161 C 
BRANCH  17  18
HETATM   18  C   UNL     1      42.392 -13.805   3.305  1.00  0.00    -0.035 A 
HETATM   19  C   UNL     1      42.968 -14.978   3.803  1.00  0.00     0.066 A 
HETATM   20  C   UNL     1      42.158 -16.080   4.016  1.00  0.00     0.164 A 
HETATM   21  N   UNL     1      40.827 -16.094   3.799  1.00  0.00    -0.237 NA
HETATM   22  C   UNL     1      40.284 -14.944   3.344  1.00  0.00     0.120 A 
HETATM   23  C   UNL     1      41.011 -13.793   3.085  1.00  0.00     0.028 A 
BRANCH  20  24
HETATM   24  O   UNL     1      42.781 -17.227   4.473  1.00  0.00    -0.329 OA
BRANCH  24  25
HETATM   25  C   UNL     1      43.635 -17.904   3.527  1.00  0.00     0.130 C 
HETATM   26  C   UNL     1      44.062 -19.355   3.879  1.00  0.00     0.032 C 
HETATM   27  C   UNL     1      43.863 -19.708   2.394  1.00  0.00     0.005 C 
HETATM   28  C   UNL     1      42.892 -18.518   2.311  1.00  0.00     0.032 C 
ENDBRANCH  24  25
ENDBRANCH  20  24
ENDBRANCH  17  18
ENDBRANCH   2  17
TORSDOF 7
ENDMDL
MODEL 3
REMARK VINA RESULT:      -7.9      1.975      9.715
REMARK  7 active torsions:
REMARK  status: ('A' for Active; 'I' for Inactive)
REMARK    1  A    between atoms: C_2  and  C_3 
REMARK       I    between atoms: C_3  and  N_4 
REMARK    2  A    between atoms: N_4  and  C_5 
REMARK    3  A    between atoms: C_7  and  C_8 
REMARK       I    between atoms: C_8  and  N_9 
REMARK    4  A    between atoms: N_9  and  C_10 
REMARK    5  A    between atoms: C_10  and  C_11 
REMARK    6  A    between atoms: C_13  and  O_14 
REMARK    7  A    between atoms: O_14  and  C_15 
ROOT
HETATM    1  C   UNL     1      43.594 -11.295   6.427  1.00  0.00     0.252 C 
HETATM    2  N   UNL     1      42.297 -11.714   6.629  1.00  0.00    -0.353 N 
HETATM    3  O   UNL     1      44.185 -11.446   5.363  1.00  0.00    -0.268 OA
HETATM    4  H   UNL     1      41.853 -11.621   7.531  1.00  0.00     0.163 HD
ENDROOT
BRANCH   1   5
HETATM    5  C   UNL     1      44.296 -10.647   7.574  1.00  0.00     0.034 A 
HETATM    6  C   UNL     1      43.688 -10.445   8.823  1.00  0.00     0.046 A 
HETATM    7  C   UNL     1      44.393  -9.828   9.863  1.00  0.00     0.035 A 
HETATM    8  C   UNL     1      45.703  -9.389   9.635  1.00  0.00     0.029 A 
HETATM    9  C   UNL     1      46.308  -9.570   8.391  1.00  0.00     0.003 A 
HETATM   10  C   UNL     1      45.607 -10.198   7.365  1.00  0.00     0.017 A 
BRANCH   7  11
HETATM   11  N   UNL     1      43.859  -9.602  11.150  1.00  0.00    -0.327 N 
HETATM   12  C   UNL     1      43.288  -8.435  11.634  1.00  0.00     0.221 C 
HETATM   13  O   UNL     1      43.117  -7.397  11.006  1.00  0.00    -0.273 OA
HETATM   14  H   UNL     1      43.861 -10.397  11.777  1.00  0.00     0.169 HD
BRANCH  12  15
HETATM   15  C   UNL     1      42.855  -8.593  13.084  1.00  0.00     0.098 C 
HETATM   16  C   UNL     1      43.125  -7.351  13.915  1.00  0.00     0.014 C 
ENDBRANCH  12  15
ENDBRANCH   7  11
ENDBRANCH   1   5
BRANCH   2  17
HETATM   17  C   UNL     1      41.516 -12.315   5.568  1.00  0.00     0.161 C 
BRANCH  17  18
HETATM   18  C   UNL     1      41.551 -13.819   5.636  1.00  0.00    -0.035 A 
HETATM   19  C   UNL     1      42.555 -14.546   4.988  1.00  0.00     0.066 A 
HETATM   20  C   UNL     1      42.548 -15.927   5.090  1.00  0.00     0.164 A 
HETATM   21  N   UNL     1      41.643 -16.629   5.803  1.00  0.00    -0.237 NA
HETATM   22  C   UNL     1      40.699 -15.908   6.443  1.00  0.00     0.120 A 
HETATM   23  C   UNL     1      40.611 -14.525   6.391  1.00  0.00     0.028 A 
BRANCH  20  24
HETATM   24  O   UNL     1      43.538 -16.603   4.401  1.00  0.00    -0.329 OA
BRANCH  24  25
HETATM   25  C   UNL     1      43.175 -17.897   3.876  1.00  0.00     0.130 C 
HETATM   26  C   UNL     1      42.905 -17.986   2.349  1.00  0.00     0.032 C 
HETATM   27  C   UNL     1      43.645 -19.335   2.359  1.00  0.00     0.005 C 
HETATM   28  C   UNL     1      44.373 -18.850   3.624  1.00  0.00     0.032 C 
ENDBRANCH  24  25
ENDBRANCH  20  24
ENDBRANCH  17  18
ENDBRANCH   2  17
TORSDOF 7
ENDMDL
MODEL 4
REMARK VINA RESULT:      -7.7      4.714      7.766
REMARK  7 active torsions:
REMARK  status: ('A' for Active; 'I' for Inactive)
REMARK    1  A    between atoms: C_2  and  C_3 
REMARK       I    between atoms: C_3  and  N_4 
REMARK    2  A    between atoms: N_4  and  C_5 
REMARK    3  A    between atoms: C_7  and  C_8 
REMARK       I    between atoms: C_8  and  N_9 
REMARK    4  A    between atoms: N_9  and  C_10 
REMARK    5  A    between atoms: C_10  and  C_11 
REMARK    6  A    between atoms: C_13  and  O_14 
REMARK    7  A    between atoms: O_14  and  C_15 
ROOT
HETATM    1  C   UNL     1      40.063 -13.606   5.332  1.00  0.00     0.252 C 
HETATM    2  N   UNL     1      40.033 -14.981   5.244  1.00  0.00    -0.353 N 
HETATM    3  O   UNL     1      40.291 -13.010   6.380  1.00  0.00    -0.268 OA
HETATM    4  H   UNL     1      39.793 -15.443   4.379  1.00  0.00     0.163 HD
ENDROOT
BRANCH   1   5
HETATM    5  C   UNL     1      39.785 -12.829   4.088  1.00  0.00     0.034 A 
HETATM    6  C   UNL     1      39.621 -13.434   2.832  1.00  0.00     0.046 A 
HETATM    7  C   UNL     1      39.366 -12.656   1.698  1.00  0.00     0.035 A 
HETATM    8  C   UNL     1      39.304 -11.262   1.824  1.00  0.00     0.029 A 
HETATM    9  C   UNL     1      39.485 -10.651   3.066  1.00  0.00     0.003 A 
HETATM   10  C   UNL     1      39.723 -11.433   4.193  1.00  0.00     0.017 A 
BRANCH   7  11
HETATM   11  N   UNL     1      39.174 -13.188   0.405  1.00  0.00    -0.327 N 
HETATM   12  C   UNL     1      39.899 -14.199  -0.208  1.00  0.00     0.221 C 
HETATM   13  O   UNL     1      40.820 -14.835   0.290  1.00  0.00    -0.273 OA
HETATM   14  H   UNL     1      38.394 -12.812  -0.119  1.00  0.00     0.169 HD
BRANCH  12  15
HETATM   15  C   UNL     1      39.391 -14.465  -1.617  1.00  0.00     0.098 C 
HETATM   16  C   UNL     1      40.100 -13.624  -2.664  1.00  0.00     0.014 C 
ENDBRANCH  12  15
ENDBRANCH   7  11
ENDBRANCH   1   5
BRANCH   2  17
HETATM   17  C   UNL     1      40.330 -15.824   6.382  1.00  0.00     0.161 C 
BRANCH  17  18
HETATM   18  C   UNL     1      41.795 -16.166   6.453  1.00  0.00    -0.035 A 
HETATM   19  C   UNL     1      42.415 -16.894   5.433  1.00  0.00     0.066 A 
HETATM   20  C   UNL     1      43.767 -17.174   5.542  1.00  0.00     0.164 A 
HETATM   21  N   UNL     1      44.545 -16.763   6.564  1.00  0.00    -0.237 NA
HETATM   22  C   UNL     1      43.935 -16.037   7.525  1.00  0.00     0.120 A 
HETATM   23  C   UNL     1      42.585 -15.718   7.516  1.00  0.00     0.028 A 
BRANCH  20  24
HETATM   24  O   UNL     1      44.326 -17.929   4.528  1.00  0.00    -0.329 OA
BRANCH  24  25
HETATM   25  C   UNL     1      43.412 -18.754   3.774  1.00  0.00     0.130 C 
HETATM   26  C   UNL     1      43.321 -18.490   2.247  1.00  0.00     0.032 C 
HETATM   27  C   UNL     1      43.249 -20.014   2.049  1.00  0.00     0.005 C 
HETATM   28  C   UNL     1      43.965 -20.156   3.403  1.00  0.00     0.032 C 
ENDBRANCH  24  25
ENDBRANCH  20  24
ENDBRANCH  17  18
ENDBRANCH   2  17
TORSDOF 7
ENDMDL
MODEL 5
REMARK VINA RESULT:      -7.6      2.092      2.941
REMARK  7 active torsions:
REMARK  status: ('A' for Active; 'I' for Inactive)
REMARK    1  A    between atoms: C_2  and  C_3 
REMARK       I    between atoms: C_3  and  N_4 
REMARK    2  A    between atoms: N_4  and  C_5 
REMARK    3  A    between atoms: C_7  and  C_8 
REMARK       I    between atoms: C_8  and  N_9 
REMARK    4  A    between atoms: N_9  and  C_10 
REMARK    5  A    between atoms: C_10  and  C_11 
REMARK    6  A    between atoms: C_13  and  O_14 
REMARK    7  A    between atoms: O_14  and  C_15 
ROOT
HETATM    1  C   UNL     1      43.483 -12.809   6.176  1.00  0.00     0.252 C 
HETATM    2  N   UNL     1      43.740 -12.442   7.479  1.00  0.00    -0.353 N 
HETATM    3  O   UNL     1      43.792 -12.111   5.214  1.00  0.00    -0.268 OA
HETATM    4  H   UNL     1      43.430 -13.013   8.252  1.00  0.00     0.163 HD
ENDROOT
BRANCH   1   5
HETATM    5  C   UNL     1      42.781 -14.106   5.949  1.00  0.00     0.034 A 
HETATM    6  C   UNL     1      43.403 -15.215   5.354  1.00  0.00     0.046 A 
HETATM    7  C   UNL     1      42.696 -16.407   5.162  1.00  0.00     0.035 A 
HETATM    8  C   UNL     1      41.350 -16.472   5.544  1.00  0.00     0.029 A 
HETATM    9  C   UNL     1      40.719 -15.369   6.119  1.00  0.00     0.003 A 
HETATM   10  C   UNL     1      41.433 -14.191   6.321  1.00  0.00     0.017 A 
BRANCH   7  11
HETATM   11  N   UNL     1      43.253 -17.569   4.586  1.00  0.00    -0.327 N 
HETATM   12  C   UNL     1      43.217 -17.951   3.253  1.00  0.00     0.221 C 
HETATM   13  O   UNL     1      42.718 -17.319   2.331  1.00  0.00    -0.273 OA
HETATM   14  H   UNL     1      43.769 -18.172   5.214  1.00  0.00     0.169 HD
BRANCH  12  15
HETATM   15  C   UNL     1      43.916 -19.287   3.045  1.00  0.00     0.098 C 
HETATM   16  C   UNL     1      43.265 -20.125   1.958  1.00  0.00     0.014 C 
ENDBRANCH  12  15
ENDBRANCH   7  11
ENDBRANCH   1   5
BRANCH   2  17
HETATM   17  C   UNL     1      44.452 -11.225   7.802  1.00  0.00     0.161 C 
BRANCH  17  18
HETATM   18  C   UNL     1      43.621 -10.305   8.657  1.00  0.00    -0.035 A 
HETATM   19  C   UNL     1      43.996 -10.007   9.971  1.00  0.00     0.066 A 
HETATM   20  C   UNL     1      43.202  -9.148  10.712  1.00  0.00     0.164 A 
HETATM   21  N   UNL     1      42.090  -8.549  10.239  1.00  0.00    -0.237 NA
HETATM   22  C   UNL     1      41.759  -8.827   8.961  1.00  0.00     0.120 A 
HETATM   23  C   UNL     1      42.479  -9.685   8.143  1.00  0.00     0.028 A 
BRANCH  20  24
HETATM   24  O   UNL     1      43.594  -8.915  12.017  1.00  0.00    -0.329 OA
BRANCH  24  25
HETATM   25  C   UNL     1      42.632  -8.243  12.858  1.00  0.00     0.130 C 
HETATM   26  C   UNL     1      42.100  -9.030  14.086  1.00  0.00     0.032 C 
HETATM   27  C   UNL     1      42.184  -7.718  14.886  1.00  0.00     0.005 C 
HETATM   28  C   UNL     1      43.248  -7.251  13.879  1.00  0.00     0.032 C 
ENDBRANCH  24  25
ENDBRANCH  20  24
ENDBRANCH  17  18
ENDBRANCH   2  17
TORSDOF 7
ENDMDL
MODEL 6
REMARK VINA RESULT:      -7.4      2.893      9.762
REMARK  7 active torsions:
REMARK  status: ('A' for Active; 'I' for Inactive)
REMARK    1  A    between atoms: C_2  and  C_3 
REMARK       I    between atoms: C_3  and  N_4 
REMARK    2  A    between atoms: N_4  and  C_5 
REMARK    3  A    between atoms: C_7  and  C_8 
REMARK       I    between atoms: C_8  and  N_9 
REMARK    4  A    between atoms: N_9  and  C_10 
REMARK    5  A    between atoms: C_10  and  C_11 
REMARK    6  A    between atoms: C_13  and  O_14 
REMARK    7  A    between atoms: O_14  and  C_15 
ROOT
HETATM    1  C   UNL     1      44.620 -11.196   7.829  1.00  0.00     0.252 C 
HETATM    2  N   UNL     1      43.858 -12.268   7.419  1.00  0.00    -0.353 N 
HETATM    3  O   UNL     1      45.733 -10.955   7.372  1.00  0.00    -0.268 OA
HETATM    4  H   UNL     1      42.967 -12.470   7.849  1.00  0.00     0.163 HD
ENDROOT
BRANCH   1   5
HETATM    5  C   UNL     1      44.054 -10.313   8.892  1.00  0.00     0.034 A 
HETATM    6  C   UNL     1      42.775  -9.742   8.806  1.00  0.00     0.046 A 
HETATM    7  C   UNL     1      42.296  -8.918   9.830  1.00  0.00     0.035 A 
HETATM    8  C   UNL     1      43.119  -8.646  10.930  1.00  0.00     0.029 A 
HETATM    9  C   UNL     1      44.398  -9.195  11.015  1.00  0.00     0.003 A 
HETATM   10  C   UNL     1      44.863 -10.026   9.999  1.00  0.00     0.017 A 
BRANCH   7  11
HETATM   11  N   UNL     1      41.018  -8.319   9.825  1.00  0.00    -0.327 N 
HETATM   12  C   UNL     1      39.831  -8.859  10.298  1.00  0.00     0.221 C 
HETATM   13  O   UNL     1      39.694  -9.949  10.838  1.00  0.00    -0.273 OA
HETATM   14  H   UNL     1      40.973  -7.372   9.470  1.00  0.00     0.169 HD
BRANCH  12  15
HETATM   15  C   UNL     1      38.668  -7.900  10.087  1.00  0.00     0.098 C 
HETATM   16  C   UNL     1      38.821  -7.060   8.832  1.00  0.00     0.014 C 
ENDBRANCH  12  15
ENDBRANCH   7  11
ENDBRANCH   1   5
BRANCH   2  17
HETATM   17  C   UNL     1      44.299 -13.158   6.366  1.00  0.00     0.161 C 
BRANCH  17  18
HETATM   18  C   UNL     1      43.403 -14.363   6.246  1.00  0.00    -0.035 A 
HETATM   19  C   UNL     1      43.182 -14.976   5.009  1.00  0.00     0.066 A 
HETATM   20  C   UNL     1      42.357 -16.087   4.954  1.00  0.00     0.164 A 
HETATM   21  N   UNL     1      41.765 -16.644   6.031  1.00  0.00    -0.237 NA
HETATM   22  C   UNL     1      42.012 -16.054   7.220  1.00  0.00     0.120 A 
HETATM   23  C   UNL     1      42.810 -14.930   7.377  1.00  0.00     0.028 A 
BRANCH  20  24
HETATM   24  O   UNL     1      42.139 -16.635   3.703  1.00  0.00    -0.329 OA
BRANCH  24  25
HETATM   25  C   UNL     1      43.244 -17.367   3.131  1.00  0.00     0.130 C 
HETATM   26  C   UNL     1      43.904 -18.454   4.020  1.00  0.00     0.032 C 
HETATM   27  C   UNL     1      44.001 -19.337   2.764  1.00  0.00     0.005 C 
HETATM   28  C   UNL     1      42.829 -18.526   2.186  1.00  0.00     0.032 C 
ENDBRANCH  24  25
ENDBRANCH  20  24
ENDBRANCH  17  18
ENDBRANCH   2  17
TORSDOF 7
ENDMDL
MODEL 7
REMARK VINA RESULT:      -7.4      2.049      9.079
REMARK  7 active torsions:
REMARK  status: ('A' for Active; 'I' for Inactive)
REMARK    1  A    between atoms: C_2  and  C_3 
REMARK       I    between atoms: C_3  and  N_4 
REMARK    2  A    between atoms: N_4  and  C_5 
REMARK    3  A    between atoms: C_7  and  C_8 
REMARK       I    between atoms: C_8  and  N_9 
REMARK    4  A    between atoms: N_9  and  C_10 
REMARK    5  A    between atoms: C_10  and  C_11 
REMARK    6  A    between atoms: C_13  and  O_14 
REMARK    7  A    between atoms: O_14  and  C_15 
ROOT
HETATM    1  C   UNL     1      42.626 -11.369   4.786  1.00  0.00     0.252 C 
HETATM    2  N   UNL     1      41.555 -12.224   4.929  1.00  0.00    -0.353 N 
HETATM    3  O   UNL     1      42.868 -10.774   3.740  1.00  0.00    -0.268 OA
HETATM    4  H   UNL     1      41.409 -12.739   5.786  1.00  0.00     0.163 HD
ENDROOT
BRANCH   1   5
HETATM    5  C   UNL     1      43.527 -11.188   5.962  1.00  0.00     0.034 A 
HETATM    6  C   UNL     1      43.058 -10.814   7.231  1.00  0.00     0.046 A 
HETATM    7  C   UNL     1      43.949 -10.655   8.298  1.00  0.00     0.035 A 
HETATM    8  C   UNL     1      45.319 -10.846   8.079  1.00  0.00     0.029 A 
HETATM    9  C   UNL     1      45.796 -11.200   6.817  1.00  0.00     0.003 A 
HETATM   10  C   UNL     1      44.902 -11.371   5.763  1.00  0.00     0.017 A 
BRANCH   7  11
HETATM   11  N   UNL     1      43.556 -10.296   9.605  1.00  0.00    -0.327 N 
HETATM   12  C   UNL     1      43.547  -9.028  10.165  1.00  0.00     0.221 C 
HETATM   13  O   UNL     1      43.850  -7.984   9.602  1.00  0.00    -0.273 OA
HETATM   14  H   UNL     1      43.205 -11.048  10.185  1.00  0.00     0.169 HD
BRANCH  12  15
HETATM   15  C   UNL     1      43.075  -9.068  11.611  1.00  0.00     0.098 C 
HETATM   16  C   UNL     1      43.093 -10.470  12.195  1.00  0.00     0.014 C 
ENDBRANCH  12  15
ENDBRANCH   7  11
ENDBRANCH   1   5
BRANCH   2  17
HETATM   17  C   UNL     1      40.599 -12.435   3.863  1.00  0.00     0.161 C 
BRANCH  17  18
HETATM   18  C   UNL     1      40.785 -13.778   3.208  1.00  0.00    -0.035 A 
HETATM   19  C   UNL     1      41.965 -14.508   3.383  1.00  0.00     0.066 A 
HETATM   20  C   UNL     1      42.082 -15.743   2.766  1.00  0.00     0.164 A 
HETATM   21  N   UNL     1      41.112 -16.311   2.021  1.00  0.00    -0.237 NA
HETATM   22  C   UNL     1      39.970 -15.604   1.886  1.00  0.00     0.120 A 
HETATM   23  C   UNL     1      39.762 -14.354   2.450  1.00  0.00     0.028 A 
BRANCH  20  24
HETATM   24  O   UNL     1      43.281 -16.409   2.938  1.00  0.00    -0.329 OA
BRANCH  24  25
HETATM   25  C   UNL     1      43.220 -17.645   3.680  1.00  0.00     0.130 C 
HETATM   26  C   UNL     1      43.939 -18.874   3.060  1.00  0.00     0.032 C 
HETATM   27  C   UNL     1      44.410 -19.237   4.479  1.00  0.00     0.005 C 
HETATM   28  C   UNL     1      44.242 -17.752   4.842  1.00  0.00     0.032 C 
ENDBRANCH  24  25
ENDBRANCH  20  24
ENDBRANCH  17  18
ENDBRANCH   2  17
TORSDOF 7
ENDMDL
MODEL 8
REMARK VINA RESULT:      -7.3      2.775      3.748
REMARK  7 active torsions:
REMARK  status: ('A' for Active; 'I' for Inactive)
REMARK    1  A    between atoms: C_2  and  C_3 
REMARK       I    between atoms: C_3  and  N_4 
REMARK    2  A    between atoms: N_4  and  C_5 
REMARK    3  A    between atoms: C_7  and  C_8 
REMARK       I    between atoms: C_8  and  N_9 
REMARK    4  A    between atoms: N_9  and  C_10 
REMARK    5  A    between atoms: C_10  and  C_11 
REMARK    6  A    between atoms: C_13  and  O_14 
REMARK    7  A    between atoms: O_14  and  C_15 
ROOT
HETATM    1  C   UNL     1      40.986 -14.983   6.000  1.00  0.00     0.252 C 
HETATM    2  N   UNL     1      40.931 -13.713   5.468  1.00  0.00    -0.353 N 
HETATM    3  O   UNL     1      40.064 -15.478   6.641  1.00  0.00    -0.268 OA
HETATM    4  H   UNL     1      41.724 -13.314   4.988  1.00  0.00     0.163 HD
ENDROOT
BRANCH   1   5
HETATM    5  C   UNL     1      42.240 -15.766   5.789  1.00  0.00     0.034 A 
HETATM    6  C   UNL     1      42.304 -16.888   4.949  1.00  0.00     0.046 A 
HETATM    7  C   UNL     1      43.506 -17.587   4.790  1.00  0.00     0.035 A 
HETATM    8  C   UNL     1      44.638 -17.171   5.503  1.00  0.00     0.029 A 
HETATM    9  C   UNL     1      44.578 -16.068   6.354  1.00  0.00     0.003 A 
HETATM   10  C   UNL     1      43.382 -15.368   6.495  1.00  0.00     0.017 A 
BRANCH   7  11
HETATM   11  N   UNL     1      43.657 -18.714   3.955  1.00  0.00    -0.327 N 
HETATM   12  C   UNL     1      43.921 -20.020   4.338  1.00  0.00     0.221 C 
HETATM   13  O   UNL     1      44.036 -20.430   5.486  1.00  0.00    -0.273 OA
HETATM   14  H   UNL     1      43.519 -18.554   2.964  1.00  0.00     0.169 HD
BRANCH  12  15
HETATM   15  C   UNL     1      44.034 -20.937   3.129  1.00  0.00     0.098 C 
HETATM   16  C   UNL     1      43.501 -20.299   1.858  1.00  0.00     0.014 C 
ENDBRANCH  12  15
ENDBRANCH   7  11
ENDBRANCH   1   5
BRANCH   2  17
HETATM   17  C   UNL     1      39.745 -12.890   5.581  1.00  0.00     0.161 C 
BRANCH  17  18
HETATM   18  C   UNL     1      40.041 -11.582   6.266  1.00  0.00    -0.035 A 
HETATM   19  C   UNL     1      41.339 -11.061   6.296  1.00  0.00     0.066 A 
HETATM   20  C   UNL     1      41.555  -9.849   6.931  1.00  0.00     0.164 A 
HETATM   21  N   UNL     1      40.583  -9.112   7.506  1.00  0.00    -0.237 NA
HETATM   22  C   UNL     1      39.333  -9.617   7.443  1.00  0.00     0.120 A 
HETATM   23  C   UNL     1      39.016 -10.828   6.845  1.00  0.00     0.028 A 
BRANCH  20  24
HETATM   24  O   UNL     1      42.861  -9.395   6.967  1.00  0.00    -0.329 OA
BRANCH  24  25
HETATM   25  C   UNL     1      43.739 -10.064   7.896  1.00  0.00     0.130 C 
HETATM   26  C   UNL     1      44.832 -10.986   7.292  1.00  0.00     0.032 C 
HETATM   27  C   UNL     1      45.797 -10.439   8.358  1.00  0.00     0.005 C 
HETATM   28  C   UNL     1      44.905  -9.188   8.427  1.00  0.00     0.032 C 
ENDBRANCH  24  25
ENDBRANCH  20  24
ENDBRANCH  17  18
ENDBRANCH   2  17
TORSDOF 7
ENDMDL
MODEL 9
REMARK VINA RESULT:      -7.2     16.454     18.267
REMARK  7 active torsions:
REMARK  status: ('A' for Active; 'I' for Inactive)
REMARK    1  A    between atoms: C_2  and  C_3 
REMARK       I    between atoms: C_3  and  N_4 
REMARK    2  A    between atoms: N_4  and  C_5 
REMARK    3  A    between atoms: C_7  and  C_8 
REMARK       I    between atoms: C_8  and  N_9 
REMARK    4  A    between atoms: N_9  and  C_10 
REMARK    5  A    between atoms: C_10  and  C_11 
REMARK    6  A    between atoms: C_13  and  O_14 
REMARK    7  A    between atoms: O_14  and  C_15 
ROOT
HETATM    1  C   UNL     1      42.465 -29.806   1.237  1.00  0.00     0.252 C 
HETATM    2  N   UNL     1      43.470 -30.111   0.345  1.00  0.00    -0.353 N 
HETATM    3  O   UNL     1      41.845 -28.748   1.206  1.00  0.00    -0.268 OA
HETATM    4  H   UNL     1      43.996 -30.969   0.426  1.00  0.00     0.163 HD
ENDROOT
BRANCH   1   5
HETATM    5  C   UNL     1      42.146 -30.815   2.290  1.00  0.00     0.034 A 
HETATM    6  C   UNL     1      40.897 -31.448   2.386  1.00  0.00     0.046 A 
HETATM    7  C   UNL     1      40.652 -32.384   3.396  1.00  0.00     0.035 A 
HETATM    8  C   UNL     1      41.658 -32.662   4.330  1.00  0.00     0.029 A 
HETATM    9  C   UNL     1      42.897 -32.024   4.253  1.00  0.00     0.003 A 
HETATM   10  C   UNL     1      43.139 -31.105   3.236  1.00  0.00     0.017 A 
BRANCH   7  11
HETATM   11  N   UNL     1      39.430 -33.073   3.551  1.00  0.00    -0.327 N 
HETATM   12  C   UNL     1      38.550 -33.001   4.620  1.00  0.00     0.221 C 
HETATM   13  O   UNL     1      38.668 -32.290   5.610  1.00  0.00    -0.273 OA
HETATM   14  H   UNL     1      39.149 -33.659   2.774  1.00  0.00     0.169 HD
BRANCH  12  15
HETATM   15  C   UNL     1      37.355 -33.921   4.413  1.00  0.00     0.098 C 
HETATM   16  C   UNL     1      36.344 -33.356   3.431  1.00  0.00     0.014 C 
ENDBRANCH  12  15
ENDBRANCH   7  11
ENDBRANCH   1   5
BRANCH   2  17
HETATM   17  C   UNL     1      43.825 -29.219  -0.738  1.00  0.00     0.161 C 
BRANCH  17  18
HETATM   18  C   UNL     1      45.228 -28.694  -0.586  1.00  0.00    -0.035 A 
HETATM   19  C   UNL     1      45.793 -28.500   0.678  1.00  0.00     0.066 A 
HETATM   20  C   UNL     1      47.090 -28.023   0.763  1.00  0.00     0.164 A 
HETATM   21  N   UNL     1      47.869 -27.755  -0.305  1.00  0.00    -0.237 NA
HETATM   22  C   UNL     1      47.316 -27.974  -1.517  1.00  0.00     0.120 A 
HETATM   23  C   UNL     1      46.022 -28.434  -1.707  1.00  0.00     0.028 A 
BRANCH  20  24
HETATM   24  O   UNL     1      47.590 -27.812   2.035  1.00  0.00    -0.329 OA
BRANCH  24  25
HETATM   25  C   UNL     1      47.919 -28.996   2.791  1.00  0.00     0.130 C 
HETATM   26  C   UNL     1      48.943 -29.975   2.155  1.00  0.00     0.032 C 
HETATM   27  C   UNL     1      49.551 -30.154   3.557  1.00  0.00     0.005 C 
HETATM   28  C   UNL     1      48.969 -28.775   3.912  1.00  0.00     0.032 C 
ENDBRANCH  24  25
ENDBRANCH  20  24
ENDBRANCH  17  18
ENDBRANCH   2  17
TORSDOF 7
ENDMDL
MODEL 10
REMARK VINA RESULT:      -7.1      2.718      3.862
REMARK  7 active torsions:
REMARK  status: ('A' for Active; 'I' for Inactive)
REMARK    1  A    between atoms: C_2  and  C_3 
REMARK       I    between atoms: C_3  and  N_4 
REMARK    2  A    between atoms: N_4  and  C_5 
REMARK    3  A    between atoms: C_7  and  C_8 
REMARK       I    between atoms: C_8  and  N_9 
REMARK    4  A    between atoms: N_9  and  C_10 
REMARK    5  A    between atoms: C_10  and  C_11 
REMARK    6  A    between atoms: C_13  and  O_14 
REMARK    7  A    between atoms: O_14  and  C_15 
ROOT
HETATM    1  C   UNL     1      44.264 -11.587   6.469  1.00  0.00     0.252 C 
HETATM    2  N   UNL     1      44.942 -11.530   7.667  1.00  0.00    -0.353 N 
HETATM    3  O   UNL     1      44.181 -10.631   5.704  1.00  0.00    -0.268 OA
HETATM    4  H   UNL     1      44.951 -12.318   8.299  1.00  0.00     0.163 HD
ENDROOT
BRANCH   1   5
HETATM    5  C   UNL     1      43.592 -12.872   6.115  1.00  0.00     0.034 A 
HETATM    6  C   UNL     1      43.001 -13.103   4.864  1.00  0.00     0.046 A 
HETATM    7  C   UNL     1      42.381 -14.327   4.587  1.00  0.00     0.035 A 
HETATM    8  C   UNL     1      42.333 -15.310   5.584  1.00  0.00     0.029 A 
HETATM    9  C   UNL     1      42.903 -15.082   6.837  1.00  0.00     0.003 A 
HETATM   10  C   UNL     1      43.531 -13.867   7.100  1.00  0.00     0.017 A 
BRANCH   7  11
HETATM   11  N   UNL     1      41.778 -14.642   3.351  1.00  0.00    -0.327 N 
HETATM   12  C   UNL     1      42.405 -14.833   2.130  1.00  0.00     0.221 C 
HETATM   13  O   UNL     1      43.611 -14.795   1.920  1.00  0.00    -0.273 OA
HETATM   14  H   UNL     1      40.775 -14.781   3.369  1.00  0.00     0.169 HD
BRANCH  12  15
HETATM   15  C   UNL     1      41.395 -15.135   1.032  1.00  0.00     0.098 C 
HETATM   16  C   UNL     1      39.986 -15.317   1.567  1.00  0.00     0.014 C 
ENDBRANCH  12  15
ENDBRANCH   7  11
ENDBRANCH   1   5
BRANCH   2  17
HETATM   17  C   UNL     1      45.661 -10.344   8.081  1.00  0.00     0.161 C 
BRANCH  17  18
HETATM   18  C   UNL     1      44.797  -9.433   8.912  1.00  0.00    -0.035 A 
HETATM   19  C   UNL     1      44.521  -9.725  10.252  1.00  0.00     0.066 A 
HETATM   20  C   UNL     1      43.728  -8.850  10.975  1.00  0.00     0.164 A 
HETATM   21  N   UNL     1      43.219  -7.703  10.478  1.00  0.00    -0.237 NA
HETATM   22  C   UNL     1      43.519  -7.425   9.192  1.00  0.00     0.120 A 
HETATM   23  C   UNL     1      44.290  -8.244   8.381  1.00  0.00     0.028 A 
BRANCH  20  24
HETATM   24  O   UNL     1      43.453  -9.201  12.283  1.00  0.00    -0.329 OA
BRANCH  24  25
HETATM   25  C   UNL     1      42.580  -8.311  13.009  1.00  0.00     0.130 C 
HETATM   26  C   UNL     1      41.935  -8.862  14.309  1.00  0.00     0.032 C 
HETATM   27  C   UNL     1      42.184  -7.483  14.945  1.00  0.00     0.005 C 
HETATM   28  C   UNL     1      43.312  -7.288  13.918  1.00  0.00     0.032 C 
ENDBRANCH  24  25
ENDBRANCH  20  24
ENDBRANCH  17  18
ENDBRANCH   2  17
TORSDOF 7
ENDMDL
