MODEL 1
REMARK VINA RESULT:      -8.6      0.000      0.000
REMARK  4 active torsions:
REMARK  status: ('A' for Active; 'I' for Inactive)
REMARK    1  A    between atoms: C_6  and  O_7 
REMARK    2  A    between atoms: C_6  and  C_8 
REMARK    3  A    between atoms: N_15  and  C_17 
REMARK    4  A    between atoms: C_17  and  C_18 
ROOT
HETATM    1  C   UNL     1      39.791 -12.949   0.299  1.00  0.00    -0.023 A 
HETATM    2  C   UNL     1      41.034 -13.402   0.806  1.00  0.00     0.022 A 
HETATM    3  C   UNL     1      41.540 -12.970   2.047  1.00  0.00     0.002 A 
HETATM    4  C   UNL     1      40.767 -12.097   2.807  1.00  0.00     0.076 A 
HETATM    5  O   UNL     1      41.199 -11.650   4.023  1.00  0.00    -0.349 OA
HETATM    6  C   UNL     1      41.190 -12.702   4.999  1.00  0.00     0.203 C 
HETATM    7  C   UNL     1      42.544 -13.415   5.053  1.00  0.00     0.262 C 
HETATM    8  N   UNL     1      42.845 -14.246   3.815  1.00  0.00    -0.061 N 
HETATM    9  H   UNL     1      43.815 -14.570   3.940  1.00  0.00     0.280 HD
HETATM   10  C   UNL     1      42.882 -13.428   2.547  1.00  0.00     0.276 C 
HETATM   11  C   UNL     1      39.547 -11.627   2.336  1.00  0.00     0.038 A 
HETATM   12  C   UNL     1      39.057 -12.062   1.102  1.00  0.00     0.013 A 
ENDROOT
BRANCH   1  13
HETATM   13  C   UNL     1      39.263 -13.502  -1.031  1.00  0.00     0.088 C 
HETATM   14  C   UNL     1      40.251 -13.338  -2.206  1.00  0.00     0.070 C 
HETATM   15  C   UNL     1      40.316 -11.909  -2.711  1.00  0.00     0.237 C 
HETATM   16  N   UNL     1      38.944 -11.473  -3.153  1.00  0.00    -0.075 N 
HETATM   17  C   UNL     1      38.972 -10.097  -3.769  1.00  0.00     0.269 C 
HETATM   18  H   UNL     1      38.644 -12.106  -3.910  1.00  0.00     0.279 HD
HETATM   19  C   UNL     1      37.926 -11.570  -2.047  1.00  0.00     0.237 C 
HETATM   20  C   UNL     1      37.885 -12.993  -1.503  1.00  0.00     0.070 C 
BRANCH  13  21
HETATM   21  O   UNL     1      39.137 -14.914  -0.815  1.00  0.00    -0.385 OA
HETATM   22  H   UNL     1      38.252 -15.198  -1.111  1.00  0.00     0.211 HD
ENDBRANCH  13  21
ENDBRANCH   1  13
BRANCH   8  23
HETATM   23  C   UNL     1      42.028 -15.514   3.671  1.00  0.00     0.278 C 
BRANCH  23  24
HETATM   24  C   UNL     1      42.799 -16.782   3.884  1.00  0.00     0.028 A 
HETATM   25  C   UNL     1      43.007 -17.346   5.149  1.00  0.00     0.045 A 
HETATM   26 CL   UNL     1      42.313 -16.631   6.561  1.00  0.00    -0.084 Cl
HETATM   27  C   UNL     1      43.760 -18.513   5.299  1.00  0.00     0.024 A 
HETATM   28  C   UNL     1      44.318 -19.133   4.180  1.00  0.00     0.005 A 
HETATM   29  C   UNL     1      44.116 -18.589   2.914  1.00  0.00     0.043 A 
HETATM   30  C   UNL     1      43.364 -17.428   2.780  1.00  0.00     0.126 A 
HETATM   31  F   UNL     1      43.159 -16.924   1.555  1.00  0.00    -0.205 F 
ENDBRANCH  23  24
ENDBRANCH   8  23
TORSDOF 4
ENDMDL
MODEL 2
REMARK VINA RESULT:      -8.4      1.447      1.708
REMARK  4 active torsions:
REMARK  status: ('A' for Active; 'I' for Inactive)
REMARK    1  A    between atoms: C_6  and  O_7 
REMARK    2  A    between atoms: C_6  and  C_8 
REMARK    3  A    between atoms: N_15  and  C_17 
REMARK    4  A    between atoms: C_17  and  C_18 
ROOT
HETATM    1  C   UNL     1      39.724 -12.933   0.564  1.00  0.00    -0.023 A 
HETATM    2  C   UNL     1      40.934 -13.304   1.201  1.00  0.00     0.022 A 
HETATM    3  C   UNL     1      41.255 -12.883   2.505  1.00  0.00     0.002 A 
HETATM    4  C   UNL     1      40.329 -12.104   3.194  1.00  0.00     0.076 A 
HETATM    5  O   UNL     1      40.578 -11.672   4.465  1.00  0.00    -0.349 OA
HETATM    6  C   UNL     1      40.545 -12.759   5.402  1.00  0.00     0.203 C 
HETATM    7  C   UNL     1      41.939 -13.362   5.595  1.00  0.00     0.262 C 
HETATM    8  N   UNL     1      42.450 -14.118   4.377  1.00  0.00    -0.061 N 
HETATM    9  H   UNL     1      43.422 -14.367   4.606  1.00  0.00     0.280 HD
HETATM   10  C   UNL     1      42.564 -13.250   3.147  1.00  0.00     0.276 C 
HETATM   11  C   UNL     1      39.136 -11.715   2.596  1.00  0.00     0.038 A 
HETATM   12  C   UNL     1      38.830 -12.140   1.300  1.00  0.00     0.013 A 
ENDROOT
BRANCH   1  13
HETATM   13  C   UNL     1      39.401 -13.474  -0.835  1.00  0.00     0.088 C 
HETATM   14  C   UNL     1      40.574 -13.353  -1.831  1.00  0.00     0.070 C 
HETATM   15  C   UNL     1      40.774 -11.929  -2.318  1.00  0.00     0.237 C 
HETATM   16  N   UNL     1      39.510 -11.447  -2.979  1.00  0.00    -0.075 N 
HETATM   17  C   UNL     1      39.689 -10.076  -3.582  1.00  0.00     0.269 C 
HETATM   18  H   UNL     1      39.315 -12.073  -3.777  1.00  0.00     0.279 HD
HETATM   19  C   UNL     1      38.322 -11.501  -2.056  1.00  0.00     0.237 C 
HETATM   20  C   UNL     1      38.139 -12.918  -1.526  1.00  0.00     0.070 C 
BRANCH  13  21
HETATM   21  O   UNL     1      39.190 -14.879  -0.643  1.00  0.00    -0.385 OA
HETATM   22  H   UNL     1      38.970 -15.037   0.294  1.00  0.00     0.211 HD
ENDBRANCH  13  21
ENDBRANCH   1  13
BRANCH   8  23
HETATM   23  C   UNL     1      41.765 -15.441   4.100  1.00  0.00     0.278 C 
BRANCH  23  24
HETATM   24  C   UNL     1      42.658 -16.641   4.200  1.00  0.00     0.028 A 
HETATM   25  C   UNL     1      43.322 -17.193   3.097  1.00  0.00     0.045 A 
HETATM   26 CL   UNL     1      43.199 -16.464   1.535  1.00  0.00    -0.084 Cl
HETATM   27  C   UNL     1      44.118 -18.332   3.237  1.00  0.00     0.024 A 
HETATM   28  C   UNL     1      44.261 -18.936   4.487  1.00  0.00     0.005 A 
HETATM   29  C   UNL     1      43.613 -18.397   5.595  1.00  0.00     0.043 A 
HETATM   30  C   UNL     1      42.823 -17.262   5.441  1.00  0.00     0.126 A 
HETATM   31  F   UNL     1      42.220 -16.739   6.518  1.00  0.00    -0.205 F 
ENDBRANCH  23  24
ENDBRANCH   8  23
TORSDOF 4
ENDMDL
MODEL 3
REMARK VINA RESULT:      -8.3      2.733      3.636
REMARK  4 active torsions:
REMARK  status: ('A' for Active; 'I' for Inactive)
REMARK    1  A    between atoms: C_6  and  O_7 
REMARK    2  A    between atoms: C_6  and  C_8 
REMARK    3  A    between atoms: N_15  and  C_17 
REMARK    4  A    between atoms: C_17  and  C_18 
ROOT
HETATM    1  C   UNL     1      40.525 -13.372   3.733  1.00  0.00    -0.023 A 
HETATM    2  C   UNL     1      41.716 -14.136   3.667  1.00  0.00     0.022 A 
HETATM    3  C   UNL     1      42.555 -14.315   4.782  1.00  0.00     0.002 A 
HETATM    4  C   UNL     1      42.173 -13.746   5.994  1.00  0.00     0.076 A 
HETATM    5  O   UNL     1      42.941 -13.893   7.114  1.00  0.00    -0.349 OA
HETATM    6  C   UNL     1      42.906 -15.244   7.597  1.00  0.00     0.203 C 
HETATM    7  C   UNL     1      44.050 -16.071   7.002  1.00  0.00     0.262 C 
HETATM    8  N   UNL     1      43.891 -16.350   5.515  1.00  0.00    -0.061 N 
HETATM    9  H   UNL     1      44.769 -16.808   5.234  1.00  0.00     0.280 HD
HETATM   10  C   UNL     1      43.838 -15.093   4.679  1.00  0.00     0.276 C 
HETATM   11  C   UNL     1      41.016 -12.984   6.093  1.00  0.00     0.038 A 
HETATM   12  C   UNL     1      40.191 -12.813   4.977  1.00  0.00     0.013 A 
ENDROOT
BRANCH   1  13
HETATM   13  C   UNL     1      39.618 -13.263   2.500  1.00  0.00     0.088 C 
HETATM   14  C   UNL     1      40.353 -13.517   1.167  1.00  0.00     0.070 C 
HETATM   15  C   UNL     1      41.223 -12.344   0.754  1.00  0.00     0.237 C 
HETATM   16  N   UNL     1      40.368 -11.112   0.622  1.00  0.00    -0.075 N 
HETATM   17  C   UNL     1      41.163  -9.939   0.105  1.00  0.00     0.269 C 
HETATM   18  H   UNL     1      39.656 -11.300  -0.101  1.00  0.00     0.279 HD
HETATM   19  C   UNL     1      39.643 -10.775   1.899  1.00  0.00     0.237 C 
HETATM   20  C   UNL     1      38.800 -11.964   2.345  1.00  0.00     0.070 C 
BRANCH  13  21
HETATM   21  O   UNL     1      38.678 -14.336   2.643  1.00  0.00    -0.385 OA
HETATM   22  H   UNL     1      39.003 -14.947   3.330  1.00  0.00     0.211 HD
ENDBRANCH  13  21
ENDBRANCH   1  13
BRANCH   8  23
HETATM   23  C   UNL     1      42.803 -17.340   5.153  1.00  0.00     0.278 C 
BRANCH  23  24
HETATM   24  C   UNL     1      43.286 -18.569   4.444  1.00  0.00     0.028 A 
HETATM   25  C   UNL     1      43.395 -18.653   3.050  1.00  0.00     0.045 A 
HETATM   26 CL   UNL     1      43.034 -17.290   2.051  1.00  0.00    -0.084 Cl
HETATM   27  C   UNL     1      43.821 -19.832   2.434  1.00  0.00     0.024 A 
HETATM   28  C   UNL     1      44.144 -20.948   3.209  1.00  0.00     0.005 A 
HETATM   29  C   UNL     1      44.047 -20.880   4.596  1.00  0.00     0.043 A 
HETATM   30  C   UNL     1      43.622 -19.699   5.196  1.00  0.00     0.126 A 
HETATM   31  F   UNL     1      43.552 -19.638   6.533  1.00  0.00    -0.205 F 
ENDBRANCH  23  24
ENDBRANCH   8  23
TORSDOF 4
ENDMDL
MODEL 4
REMARK VINA RESULT:      -8.1      6.034      9.751
REMARK  4 active torsions:
REMARK  status: ('A' for Active; 'I' for Inactive)
REMARK    1  A    between atoms: C_6  and  O_7 
REMARK    2  A    between atoms: C_6  and  C_8 
REMARK    3  A    between atoms: N_15  and  C_17 
REMARK    4  A    between atoms: C_17  and  C_18 
ROOT
HETATM    1  C   UNL     1      43.437  -9.681  10.622  1.00  0.00    -0.023 A 
HETATM    2  C   UNL     1      42.873 -10.008   9.364  1.00  0.00     0.022 A 
HETATM    3  C   UNL     1      43.647 -10.080   8.191  1.00  0.00     0.002 A 
HETATM    4  C   UNL     1      45.018  -9.856   8.290  1.00  0.00     0.076 A 
HETATM    5  O   UNL     1      45.824  -9.922   7.190  1.00  0.00    -0.349 OA
HETATM    6  C   UNL     1      45.954 -11.271   6.718  1.00  0.00     0.203 C 
HETATM    7  C   UNL     1      44.895 -11.590   5.659  1.00  0.00     0.262 C 
HETATM    8  N   UNL     1      43.482 -11.672   6.217  1.00  0.00    -0.061 N 
HETATM    9  H   UNL     1      42.875 -11.779   5.392  1.00  0.00     0.280 HD
HETATM   10  C   UNL     1      43.022 -10.385   6.858  1.00  0.00     0.276 C 
HETATM   11  C   UNL     1      45.602  -9.525   9.506  1.00  0.00     0.038 A 
HETATM   12  C   UNL     1      44.822  -9.455  10.664  1.00  0.00     0.013 A 
ENDROOT
BRANCH   1  13
HETATM   13  C   UNL     1      42.554  -9.677  11.877  1.00  0.00     0.088 C 
HETATM   14  C   UNL     1      41.045  -9.562  11.571  1.00  0.00     0.070 C 
HETATM   15  C   UNL     1      40.644  -8.157  11.163  1.00  0.00     0.237 C 
HETATM   16  N   UNL     1      41.001  -7.197  12.266  1.00  0.00    -0.075 N 
HETATM   17  C   UNL     1      40.522  -5.799  11.960  1.00  0.00     0.269 C 
HETATM   18  H   UNL     1      40.483  -7.484  13.111  1.00  0.00     0.279 HD
HETATM   19  C   UNL     1      42.469  -7.223  12.599  1.00  0.00     0.237 C 
HETATM   20  C   UNL     1      42.892  -8.641  12.968  1.00  0.00     0.070 C 
BRANCH  13  21
HETATM   21  O   UNL     1      42.741 -10.974  12.458  1.00  0.00    -0.385 OA
HETATM   22  H   UNL     1      43.652 -11.035  12.800  1.00  0.00     0.211 HD
ENDBRANCH  13  21
ENDBRANCH   1  13
BRANCH   8  23
HETATM   23  C   UNL     1      43.192 -12.889   7.072  1.00  0.00     0.278 C 
BRANCH  23  24
HETATM   24  C   UNL     1      42.630 -14.060   6.323  1.00  0.00     0.028 A 
HETATM   25  C   UNL     1      41.303 -14.116   5.878  1.00  0.00     0.045 A 
HETATM   26 CL   UNL     1      40.234 -12.779   6.113  1.00  0.00    -0.084 Cl
HETATM   27  C   UNL     1      40.818 -15.243   5.212  1.00  0.00     0.024 A 
HETATM   28  C   UNL     1      41.657 -16.335   4.982  1.00  0.00     0.005 A 
HETATM   29  C   UNL     1      42.980 -16.294   5.413  1.00  0.00     0.043 A 
HETATM   30  C   UNL     1      43.450 -15.164   6.074  1.00  0.00     0.126 A 
HETATM   31  F   UNL     1      44.732 -15.126   6.467  1.00  0.00    -0.205 F 
ENDBRANCH  23  24
ENDBRANCH   8  23
TORSDOF 4
ENDMDL
MODEL 5
REMARK VINA RESULT:      -7.9      3.794      6.207
REMARK  4 active torsions:
REMARK  status: ('A' for Active; 'I' for Inactive)
REMARK    1  A    between atoms: C_6  and  O_7 
REMARK    2  A    between atoms: C_6  and  C_8 
REMARK    3  A    between atoms: N_15  and  C_17 
REMARK    4  A    between atoms: C_17  and  C_18 
ROOT
HETATM    1  C   UNL     1      40.873 -13.466   2.298  1.00  0.00    -0.023 A 
HETATM    2  C   UNL     1      41.599 -12.368   2.820  1.00  0.00     0.022 A 
HETATM    3  C   UNL     1      40.961 -11.224   3.336  1.00  0.00     0.002 A 
HETATM    4  C   UNL     1      39.569 -11.198   3.359  1.00  0.00     0.076 A 
HETATM    5  O   UNL     1      38.892 -10.121   3.856  1.00  0.00    -0.349 OA
HETATM    6  C   UNL     1      39.040 -10.023   5.280  1.00  0.00     0.203 C 
HETATM    7  C   UNL     1      40.232  -9.136   5.649  1.00  0.00     0.262 C 
HETATM    8  N   UNL     1      41.581  -9.757   5.316  1.00  0.00    -0.061 N 
HETATM    9  H   UNL     1      42.271  -9.018   5.512  1.00  0.00     0.280 HD
HETATM   10  C   UNL     1      41.750 -10.050   3.845  1.00  0.00     0.276 C 
HETATM   11  C   UNL     1      38.826 -12.255   2.847  1.00  0.00     0.038 A 
HETATM   12  C   UNL     1      39.472 -13.385   2.337  1.00  0.00     0.013 A 
ENDROOT
BRANCH   1  13
HETATM   13  C   UNL     1      41.622 -14.712   1.806  1.00  0.00     0.088 C 
HETATM   14  C   UNL     1      40.906 -16.038   2.145  1.00  0.00     0.070 C 
HETATM   15  C   UNL     1      41.043 -16.411   3.609  1.00  0.00     0.237 C 
HETATM   16  N   UNL     1      42.503 -16.532   3.958  1.00  0.00    -0.075 N 
HETATM   17  C   UNL     1      42.696 -17.011   5.375  1.00  0.00     0.269 C 
HETATM   18  H   UNL     1      42.907 -17.271   3.362  1.00  0.00     0.279 HD
HETATM   19  C   UNL     1      43.266 -15.262   3.689  1.00  0.00     0.237 C 
HETATM   20  C   UNL     1      43.098 -14.855   2.230  1.00  0.00     0.070 C 
BRANCH  13  21
HETATM   21  O   UNL     1      41.604 -14.608   0.377  1.00  0.00    -0.385 OA
HETATM   22  H   UNL     1      41.088 -13.819   0.127  1.00  0.00     0.211 HD
ENDBRANCH  13  21
ENDBRANCH   1  13
BRANCH   8  23
HETATM   23  C   UNL     1      41.995 -10.918   6.197  1.00  0.00     0.278 C 
BRANCH  23  24
HETATM   24  C   UNL     1      43.389 -10.825   6.739  1.00  0.00     0.028 A 
HETATM   25  C   UNL     1      43.709 -10.120   7.907  1.00  0.00     0.045 A 
HETATM   26 CL   UNL     1      42.475  -9.357   8.845  1.00  0.00    -0.084 Cl
HETATM   27  C   UNL     1      45.029 -10.036   8.355  1.00  0.00     0.024 A 
HETATM   28  C   UNL     1      46.052 -10.659   7.636  1.00  0.00     0.005 A 
HETATM   29  C   UNL     1      45.751 -11.368   6.477  1.00  0.00     0.043 A 
HETATM   30  C   UNL     1      44.432 -11.444   6.043  1.00  0.00     0.126 A 
HETATM   31  F   UNL     1      44.151 -12.147   4.937  1.00  0.00    -0.205 F 
ENDBRANCH  23  24
ENDBRANCH   8  23
TORSDOF 4
ENDMDL
MODEL 6
REMARK VINA RESULT:      -7.7      2.906      7.016
REMARK  4 active torsions:
REMARK  status: ('A' for Active; 'I' for Inactive)
REMARK    1  A    between atoms: C_6  and  O_7 
REMARK    2  A    between atoms: C_6  and  C_8 
REMARK    3  A    between atoms: N_15  and  C_17 
REMARK    4  A    between atoms: C_17  and  C_18 
ROOT
HETATM    1  C   UNL     1      40.787 -13.897   5.536  1.00  0.00    -0.023 A 
HETATM    2  C   UNL     1      40.066 -13.467   4.395  1.00  0.00     0.022 A 
HETATM    3  C   UNL     1      40.160 -12.153   3.899  1.00  0.00     0.002 A 
HETATM    4  C   UNL     1      41.022 -11.266   4.540  1.00  0.00     0.076 A 
HETATM    5  O   UNL     1      41.165  -9.981   4.100  1.00  0.00    -0.349 OA
HETATM    6  C   UNL     1      41.853  -9.933   2.842  1.00  0.00     0.203 C 
HETATM    7  C   UNL     1      40.865  -9.965   1.673  1.00  0.00     0.262 C 
HETATM    8  N   UNL     1      40.162 -11.304   1.504  1.00  0.00    -0.061 N 
HETATM    9  H   UNL     1      39.461 -11.147   0.767  1.00  0.00     0.280 HD
HETATM   10  C   UNL     1      39.352 -11.703   2.714  1.00  0.00     0.276 C 
HETATM   11  C   UNL     1      41.738 -11.653   5.666  1.00  0.00     0.038 A 
HETATM   12  C   UNL     1      41.634 -12.961   6.149  1.00  0.00     0.013 A 
ENDROOT
BRANCH   1  13
HETATM   13  C   UNL     1      40.691 -15.359   5.993  1.00  0.00     0.088 C 
HETATM   14  C   UNL     1      41.809 -15.775   6.974  1.00  0.00     0.070 C 
HETATM   15  C   UNL     1      43.143 -15.975   6.279  1.00  0.00     0.237 C 
HETATM   16  N   UNL     1      42.997 -17.032   5.216  1.00  0.00    -0.075 N 
HETATM   17  C   UNL     1      44.321 -17.352   4.568  1.00  0.00     0.269 C 
HETATM   18  H   UNL     1      42.702 -17.905   5.681  1.00  0.00     0.279 HD
HETATM   19  C   UNL     1      41.946 -16.681   4.196  1.00  0.00     0.237 C 
HETATM   20  C   UNL     1      40.611 -16.434   4.890  1.00  0.00     0.070 C 
BRANCH  13  21
HETATM   21  O   UNL     1      39.467 -15.429   6.737  1.00  0.00    -0.385 OA
HETATM   22  H   UNL     1      39.649 -15.846   7.599  1.00  0.00     0.211 HD
ENDBRANCH  13  21
ENDBRANCH   1  13
BRANCH   8  23
HETATM   23  C   UNL     1      41.030 -12.430   0.982  1.00  0.00     0.278 C 
BRANCH  23  24
HETATM   24  C   UNL     1      40.500 -13.111  -0.244  1.00  0.00     0.028 A 
HETATM   25  C   UNL     1      39.945 -14.397  -0.224  1.00  0.00     0.045 A 
HETATM   26 CL   UNL     1      39.776 -15.264   1.262  1.00  0.00    -0.084 Cl
HETATM   27  C   UNL     1      39.494 -15.002  -1.399  1.00  0.00     0.024 A 
HETATM   28  C   UNL     1      39.592 -14.325  -2.616  1.00  0.00     0.005 A 
HETATM   29  C   UNL     1      40.136 -13.044  -2.653  1.00  0.00     0.043 A 
HETATM   30  C   UNL     1      40.581 -12.454  -1.475  1.00  0.00     0.126 A 
HETATM   31  F   UNL     1      41.084 -11.212  -1.519  1.00  0.00    -0.205 F 
ENDBRANCH  23  24
ENDBRANCH   8  23
TORSDOF 4
ENDMDL
MODEL 7
REMARK VINA RESULT:      -7.6     15.557     17.212
REMARK  4 active torsions:
REMARK  status: ('A' for Active; 'I' for Inactive)
REMARK    1  A    between atoms: C_6  and  O_7 
REMARK    2  A    between atoms: C_6  and  C_8 
REMARK    3  A    between atoms: N_15  and  C_17 
REMARK    4  A    between atoms: C_17  and  C_18 
ROOT
HETATM    1  C   UNL     1      46.539 -29.153  -1.319  1.00  0.00    -0.023 A 
HETATM    2  C   UNL     1      46.535 -30.178  -0.343  1.00  0.00     0.022 A 
HETATM    3  C   UNL     1      47.724 -30.744   0.156  1.00  0.00     0.002 A 
HETATM    4  C   UNL     1      48.938 -30.244  -0.309  1.00  0.00     0.076 A 
HETATM    5  O   UNL     1      50.125 -30.744   0.144  1.00  0.00    -0.349 OA
HETATM    6  C   UNL     1      50.358 -30.378   1.512  1.00  0.00     0.203 C 
HETATM    7  C   UNL     1      49.823 -31.449   2.468  1.00  0.00     0.262 C 
HETATM    8  N   UNL     1      48.304 -31.530   2.502  1.00  0.00    -0.061 N 
HETATM    9  H   UNL     1      48.094 -32.349   3.089  1.00  0.00     0.280 HD
HETATM   10  C   UNL     1      47.698 -31.863   1.160  1.00  0.00     0.276 C 
HETATM   11  C   UNL     1      48.978 -29.244  -1.272  1.00  0.00     0.038 A 
HETATM   12  C   UNL     1      47.789 -28.692  -1.760  1.00  0.00     0.013 A 
ENDROOT
BRANCH   1  13
HETATM   13  C   UNL     1      45.213 -28.533  -1.780  1.00  0.00     0.088 C 
HETATM   14  C   UNL     1      44.033 -29.528  -1.784  1.00  0.00     0.070 C 
HETATM   15  C   UNL     1      44.099 -30.498  -2.949  1.00  0.00     0.237 C 
HETATM   16  N   UNL     1      44.100 -29.724  -4.241  1.00  0.00    -0.075 N 
HETATM   17  C   UNL     1      44.052 -30.644  -5.437  1.00  0.00     0.269 C 
HETATM   18  H   UNL     1      43.225 -29.179  -4.281  1.00  0.00     0.279 HD
HETATM   19  C   UNL     1      45.248 -28.754  -4.329  1.00  0.00     0.237 C 
HETATM   20  C   UNL     1      45.216 -27.803  -3.139  1.00  0.00     0.070 C 
BRANCH  13  21
HETATM   21  O   UNL     1      44.901 -27.554  -0.779  1.00  0.00    -0.385 OA
HETATM   22  H   UNL     1      45.650 -26.935  -0.702  1.00  0.00     0.211 HD
ENDBRANCH  13  21
ENDBRANCH   1  13
BRANCH   8  23
HETATM   23  C   UNL     1      47.608 -30.372   3.189  1.00  0.00     0.278 C 
BRANCH  23  24
HETATM   24  C   UNL     1      46.111 -30.449   3.180  1.00  0.00     0.028 A 
HETATM   25  C   UNL     1      45.400 -31.557   3.659  1.00  0.00     0.045 A 
HETATM   26 CL   UNL     1      46.227 -32.901   4.364  1.00  0.00    -0.084 Cl
HETATM   27  C   UNL     1      44.005 -31.594   3.600  1.00  0.00     0.024 A 
HETATM   28  C   UNL     1      43.300 -30.518   3.059  1.00  0.00     0.005 A 
HETATM   29  C   UNL     1      43.990 -29.406   2.583  1.00  0.00     0.043 A 
HETATM   30  C   UNL     1      45.379 -29.383   2.649  1.00  0.00     0.126 A 
HETATM   31  F   UNL     1      46.032 -28.299   2.208  1.00  0.00    -0.205 F 
ENDBRANCH  23  24
ENDBRANCH   8  23
TORSDOF 4
ENDMDL
MODEL 8
REMARK VINA RESULT:      -7.5      3.255      5.240
REMARK  4 active torsions:
REMARK  status: ('A' for Active; 'I' for Inactive)
REMARK    1  A    between atoms: C_6  and  O_7 
REMARK    2  A    between atoms: C_6  and  C_8 
REMARK    3  A    between atoms: N_15  and  C_17 
REMARK    4  A    between atoms: C_17  and  C_18 
ROOT
HETATM    1  C   UNL     1      40.136 -13.875   1.881  1.00  0.00    -0.023 A 
HETATM    2  C   UNL     1      40.051 -13.414   3.218  1.00  0.00     0.022 A 
HETATM    3  C   UNL     1      40.505 -14.182   4.306  1.00  0.00     0.002 A 
HETATM    4  C   UNL     1      41.087 -15.419   4.044  1.00  0.00     0.076 A 
HETATM    5  O   UNL     1      41.556 -16.206   5.057  1.00  0.00    -0.349 OA
HETATM    6  C   UNL     1      42.732 -15.642   5.655  1.00  0.00     0.203 C 
HETATM    7  C   UNL     1      42.370 -14.748   6.845  1.00  0.00     0.262 C 
HETATM    8  N   UNL     1      41.668 -13.458   6.447  1.00  0.00    -0.061 N 
HETATM    9  H   UNL     1      41.391 -13.020   7.337  1.00  0.00     0.280 HD
HETATM   10  C   UNL     1      40.365 -13.694   5.721  1.00  0.00     0.276 C 
HETATM   11  C   UNL     1      41.179 -15.905   2.746  1.00  0.00     0.038 A 
HETATM   12  C   UNL     1      40.723 -15.133   1.674  1.00  0.00     0.013 A 
ENDROOT
BRANCH   1  13
HETATM   13  C   UNL     1      39.681 -12.968   0.730  1.00  0.00     0.088 C 
HETATM   14  C   UNL     1      40.838 -12.210   0.045  1.00  0.00     0.070 C 
HETATM   15  C   UNL     1      41.349 -11.054   0.886  1.00  0.00     0.237 C 
HETATM   16  N   UNL     1      40.219 -10.096   1.156  1.00  0.00    -0.075 N 
HETATM   17  C   UNL     1      40.697  -8.871   1.894  1.00  0.00     0.269 C 
HETATM   18  H   UNL     1      39.878  -9.751   0.245  1.00  0.00     0.279 HD
HETATM   19  C   UNL     1      39.062 -10.756   1.858  1.00  0.00     0.237 C 
HETATM   20  C   UNL     1      38.569 -11.945   1.042  1.00  0.00     0.070 C 
BRANCH  13  21
HETATM   21  O   UNL     1      39.159 -13.867  -0.258  1.00  0.00    -0.385 OA
HETATM   22  H   UNL     1      38.246 -14.104  -0.013  1.00  0.00     0.211 HD
ENDBRANCH  13  21
ENDBRANCH   1  13
BRANCH   8  23
HETATM   23  C   UNL     1      42.543 -12.428   5.762  1.00  0.00     0.278 C 
BRANCH  23  24
HETATM   24  C   UNL     1      43.236 -11.478   6.693  1.00  0.00     0.028 A 
HETATM   25  C   UNL     1      42.626 -10.322   7.196  1.00  0.00     0.045 A 
HETATM   26 CL   UNL     1      40.982  -9.952   6.817  1.00  0.00    -0.084 Cl
HETATM   27  C   UNL     1      43.325  -9.451   8.035  1.00  0.00     0.024 A 
HETATM   28  C   UNL     1      44.649  -9.727   8.383  1.00  0.00     0.005 A 
HETATM   29  C   UNL     1      45.267 -10.876   7.897  1.00  0.00     0.043 A 
HETATM   30  C   UNL     1      44.560 -11.734   7.063  1.00  0.00     0.126 A 
HETATM   31  F   UNL     1      45.158 -12.847   6.616  1.00  0.00    -0.205 F 
ENDBRANCH  23  24
ENDBRANCH   8  23
TORSDOF 4
ENDMDL
MODEL 9
REMARK VINA RESULT:      -7.4      1.983      2.630
REMARK  4 active torsions:
REMARK  status: ('A' for Active; 'I' for Inactive)
REMARK    1  A    between atoms: C_6  and  O_7 
REMARK    2  A    between atoms: C_6  and  C_8 
REMARK    3  A    between atoms: N_15  and  C_17 
REMARK    4  A    between atoms: C_17  and  C_18 
ROOT
HETATM    1  C   UNL     1      40.547 -10.465   0.484  1.00  0.00    -0.023 A 
HETATM    2  C   UNL     1      41.364 -11.220   1.361  1.00  0.00     0.022 A 
HETATM    3  C   UNL     1      41.186 -11.199   2.757  1.00  0.00     0.002 A 
HETATM    4  C   UNL     1      40.146 -10.434   3.278  1.00  0.00     0.076 A 
HETATM    5  O   UNL     1      39.916 -10.380   4.623  1.00  0.00    -0.349 OA
HETATM    6  C   UNL     1      39.408 -11.629   5.116  1.00  0.00     0.203 C 
HETATM    7  C   UNL     1      40.546 -12.536   5.594  1.00  0.00     0.262 C 
HETATM    8  N   UNL     1      41.418 -13.066   4.465  1.00  0.00    -0.061 N 
HETATM    9  H   UNL     1      42.191 -13.559   4.933  1.00  0.00     0.280 HD
HETATM   10  C   UNL     1      42.093 -11.972   3.674  1.00  0.00     0.276 C 
HETATM   11  C   UNL     1      39.331  -9.675   2.447  1.00  0.00     0.038 A 
HETATM   12  C   UNL     1      39.519  -9.704   1.062  1.00  0.00     0.013 A 
ENDROOT
BRANCH   1  13
HETATM   13  C   UNL     1      40.749 -10.576  -1.033  1.00  0.00     0.088 C 
HETATM   14  C   UNL     1      39.553 -10.053  -1.857  1.00  0.00     0.070 C 
HETATM   15  C   UNL     1      38.378 -11.013  -1.843  1.00  0.00     0.237 C 
HETATM   16  N   UNL     1      38.815 -12.344  -2.394  1.00  0.00    -0.075 N 
HETATM   17  C   UNL     1      37.657 -13.303  -2.508  1.00  0.00     0.269 C 
HETATM   18  H   UNL     1      39.139 -12.190  -3.362  1.00  0.00     0.279 HD
HETATM   19  C   UNL     1      39.960 -12.939  -1.619  1.00  0.00     0.237 C 
HETATM   20  C   UNL     1      41.131 -11.963  -1.589  1.00  0.00     0.070 C 
BRANCH  13  21
HETATM   21  O   UNL     1      41.843  -9.694  -1.321  1.00  0.00    -0.385 OA
HETATM   22  H   UNL     1      42.476  -9.729  -0.580  1.00  0.00     0.211 HD
ENDBRANCH  13  21
ENDBRANCH   1  13
BRANCH   8  23
HETATM   23  C   UNL     1      40.769 -14.113   3.582  1.00  0.00     0.278 C 
BRANCH  23  24
HETATM   24  C   UNL     1      41.667 -15.250   3.197  1.00  0.00     0.028 A 
HETATM   25  C   UNL     1      41.976 -16.306   4.064  1.00  0.00     0.045 A 
HETATM   26 CL   UNL     1      41.271 -16.392   5.639  1.00  0.00    -0.084 Cl
HETATM   27  C   UNL     1      42.845 -17.326   3.670  1.00  0.00     0.024 A 
HETATM   28  C   UNL     1      43.417 -17.303   2.397  1.00  0.00     0.005 A 
HETATM   29  C   UNL     1      43.116 -16.265   1.520  1.00  0.00     0.043 A 
HETATM   30  C   UNL     1      42.249 -15.256   1.926  1.00  0.00     0.126 A 
HETATM   31  F   UNL     1      41.950 -14.271   1.067  1.00  0.00    -0.205 F 
ENDBRANCH  23  24
ENDBRANCH   8  23
TORSDOF 4
ENDMDL
MODEL 10
REMARK VINA RESULT:      -7.4      3.259      4.546
REMARK  4 active torsions:
REMARK  status: ('A' for Active; 'I' for Inactive)
REMARK    1  A    between atoms: C_6  and  O_7 
REMARK    2  A    between atoms: C_6  and  C_8 
REMARK    3  A    between atoms: N_15  and  C_17 
REMARK    4  A    between atoms: C_17  and  C_18 
ROOT
HETATM    1  C   UNL     1      41.793 -12.888   4.185  1.00  0.00    -0.023 A 
HETATM    2  C   UNL     1      42.820 -13.864   4.217  1.00  0.00     0.022 A 
HETATM    3  C   UNL     1      43.361 -14.345   5.423  1.00  0.00     0.002 A 
HETATM    4  C   UNL     1      42.836 -13.864   6.620  1.00  0.00     0.076 A 
HETATM    5  O   UNL     1      43.312 -14.300   7.824  1.00  0.00    -0.349 OA
HETATM    6  C   UNL     1      42.942 -15.665   8.068  1.00  0.00     0.203 C 
HETATM    7  C   UNL     1      44.025 -16.626   7.568  1.00  0.00     0.262 C 
HETATM    8  N   UNL     1      44.137 -16.682   6.052  1.00  0.00    -0.061 N 
HETATM    9  H   UNL     1      44.961 -17.270   5.867  1.00  0.00     0.280 HD
HETATM   10  C   UNL     1      44.481 -15.348   5.435  1.00  0.00     0.276 C 
HETATM   11  C   UNL     1      41.835 -12.901   6.626  1.00  0.00     0.038 A 
HETATM   12  C   UNL     1      41.307 -12.430   5.420  1.00  0.00     0.013 A 
ENDROOT
BRANCH   1  13
HETATM   13  C   UNL     1      41.200 -12.447   2.841  1.00  0.00     0.088 C 
HETATM   14  C   UNL     1      39.687 -12.722   2.712  1.00  0.00     0.070 C 
HETATM   15  C   UNL     1      39.384 -14.190   2.477  1.00  0.00     0.237 C 
HETATM   16  N   UNL     1      40.079 -14.647   1.222  1.00  0.00    -0.075 N 
HETATM   17  C   UNL     1      39.721 -16.072   0.879  1.00  0.00     0.269 C 
HETATM   18  H   UNL     1      39.719 -14.079   0.440  1.00  0.00     0.279 HD
HETATM   19  C   UNL     1      41.570 -14.445   1.285  1.00  0.00     0.237 C 
HETATM   20  C   UNL     1      41.884 -12.980   1.565  1.00  0.00     0.070 C 
BRANCH  13  21
HETATM   21  O   UNL     1      41.345 -11.020   2.829  1.00  0.00    -0.385 OA
HETATM   22  H   UNL     1      40.723 -10.638   3.476  1.00  0.00     0.211 HD
ENDBRANCH  13  21
ENDBRANCH   1  13
BRANCH   8  23
HETATM   23  C   UNL     1      42.995 -17.379   5.342  1.00  0.00     0.278 C 
BRANCH  23  24
HETATM   24  C   UNL     1      43.386 -18.620   4.597  1.00  0.00     0.028 A 
HETATM   25  C   UNL     1      43.544 -18.658   3.206  1.00  0.00     0.045 A 
HETATM   26 CL   UNL     1      43.358 -17.227   2.256  1.00  0.00    -0.084 Cl
HETATM   27  C   UNL     1      43.879 -19.847   2.555  1.00  0.00     0.024 A 
HETATM   28  C   UNL     1      44.060 -21.020   3.290  1.00  0.00     0.005 A 
HETATM   29  C   UNL     1      43.912 -20.999   4.674  1.00  0.00     0.043 A 
HETATM   30  C   UNL     1      43.580 -19.808   5.310  1.00  0.00     0.126 A 
HETATM   31  F   UNL     1      43.460 -19.794   6.645  1.00  0.00    -0.205 F 
ENDBRANCH  23  24
ENDBRANCH   8  23
TORSDOF 4
ENDMDL
