MODEL 1
REMARK VINA RESULT:      -9.5      0.000      0.000
REMARK  5 active torsions:
REMARK  status: ('A' for Active; 'I' for Inactive)
REMARK    1  A    between atoms: C_5  and  C_6 
REMARK    2  A    between atoms: C_10  and  C_11 
REMARK       I    between atoms: C_11  and  N_12 
REMARK    3  A    between atoms: N_12  and  N_13 
REMARK       I    between atoms: N_13  and  C_14 
REMARK       I    between atoms: C_14  and  N_15 
REMARK    4  A    between atoms: N_15  and  C_16 
REMARK    5  A    between atoms: C_16  and  C_17 
ROOT
HETATM    1  C   UNL     1      42.791 -12.397   6.501  1.00  0.00     0.288 C 
HETATM    2  N   UNL     1      43.527 -11.865   7.535  1.00  0.00    -0.261 N 
HETATM    3  O   UNL     1      41.904 -11.764   5.931  1.00  0.00    -0.264 OA
HETATM    4  H   UNL     1      44.246 -12.374   8.043  1.00  0.00     0.190 HD
ENDROOT
BRANCH   2   5
HETATM    5  N   UNL     1      43.254 -10.568   7.995  1.00  0.00    -0.249 N 
HETATM    6  C   UNL     1      43.533 -10.326   9.323  1.00  0.00     0.334 C 
HETATM    7  N   UNL     1      43.384  -9.003   9.653  1.00  0.00    -0.341 N 
HETATM    8  O   UNL     1      43.864 -11.212  10.106  1.00  0.00    -0.246 OA
HETATM    9  H   UNL     1      42.739  -8.486   9.071  1.00  0.00     0.164 HD
HETATM   10  H   UNL     1      43.405  -9.828   7.316  1.00  0.00     0.192 HD
BRANCH   7  11
HETATM   11  C   UNL     1      43.529  -8.559  11.026  1.00  0.00     0.129 C 
BRANCH  11  12
HETATM   12  C   UNL     1      42.299  -7.791  11.551  1.00  0.00     0.004 C 
HETATM   13  C   UNL     1      41.062  -8.690  11.724  1.00  0.00     0.010 C 
HETATM   14  C   UNL     1      41.179  -9.657  12.912  1.00  0.00    -0.018 C 
HETATM   15  C   UNL     1      39.889 -10.462  13.074  1.00  0.00     0.010 C 
HETATM   16  C   UNL     1      41.504  -8.898  14.205  1.00  0.00     0.004 C 
HETATM   17  C   UNL     1      42.745  -8.023  14.056  1.00  0.00     0.001 C 
HETATM   18  C   UNL     1      42.622  -7.069  12.870  1.00  0.00     0.006 C 
ENDBRANCH  11  12
ENDBRANCH   7  11
ENDBRANCH   2   5
BRANCH   1  19
HETATM   19  C   UNL     1      43.135 -13.746   6.143  1.00  0.00     0.121 A 
HETATM   20  N   UNL     1      43.843 -14.562   6.979  1.00  0.00    -0.272 N 
HETATM   21  N   UNL     1      44.105 -15.776   6.471  1.00  0.00    -0.174 NA
HETATM   22  H   UNL     1      44.189 -14.334   7.907  1.00  0.00     0.189 HD
HETATM   23  C   UNL     1      43.508 -15.776   5.268  1.00  0.00     0.089 A 
HETATM   24  C   UNL     1      42.894 -14.517   5.024  1.00  0.00     0.071 A 
BRANCH  23  25
HETATM   25  C   UNL     1      43.543 -16.942   4.383  1.00  0.00    -0.006 A 
HETATM   26  C   UNL     1      44.159 -18.134   4.787  1.00  0.00     0.014 A 
HETATM   27  C   UNL     1      44.170 -19.252   3.946  1.00  0.00     0.007 A 
HETATM   28  C   UNL     1      43.573 -19.196   2.683  1.00  0.00    -0.062 A 
HETATM   29  C   UNL     1      43.548 -20.403   1.792  1.00  0.00     0.048 C 
HETATM   30  C   UNL     1      42.951 -18.009   2.278  1.00  0.00     0.007 A 
HETATM   31  C   UNL     1      42.945 -16.891   3.117  1.00  0.00     0.014 A 
ENDBRANCH  23  25
ENDBRANCH   1  19
TORSDOF 5
ENDMDL
MODEL 2
REMARK VINA RESULT:      -9.2      0.851      1.825
REMARK  5 active torsions:
REMARK  status: ('A' for Active; 'I' for Inactive)
REMARK    1  A    between atoms: C_5  and  C_6 
REMARK    2  A    between atoms: C_10  and  C_11 
REMARK       I    between atoms: C_11  and  N_12 
REMARK    3  A    between atoms: N_12  and  N_13 
REMARK       I    between atoms: N_13  and  C_14 
REMARK       I    between atoms: C_14  and  N_15 
REMARK    4  A    between atoms: N_15  and  C_16 
REMARK    5  A    between atoms: C_16  and  C_17 
ROOT
HETATM    1  C   UNL     1      42.842 -12.517   6.477  1.00  0.00     0.288 C 
HETATM    2  N   UNL     1      43.628 -11.974   7.468  1.00  0.00    -0.261 N 
HETATM    3  O   UNL     1      41.916 -11.897   5.958  1.00  0.00    -0.264 OA
HETATM    4  H   UNL     1      44.381 -12.473   7.935  1.00  0.00     0.190 HD
ENDROOT
BRANCH   2   5
HETATM    5  N   UNL     1      43.362 -10.682   7.943  1.00  0.00    -0.249 N 
HETATM    6  C   UNL     1      43.654 -10.452   9.271  1.00  0.00     0.334 C 
HETATM    7  N   UNL     1      43.512  -9.133   9.615  1.00  0.00    -0.341 N 
HETATM    8  O   UNL     1      43.992 -11.347  10.041  1.00  0.00    -0.246 OA
HETATM    9  H   UNL     1      42.862  -8.609   9.045  1.00  0.00     0.164 HD
HETATM   10  H   UNL     1      43.508  -9.935   7.271  1.00  0.00     0.192 HD
BRANCH   7  11
HETATM   11  C   UNL     1      43.672  -8.702  10.991  1.00  0.00     0.129 C 
BRANCH  11  12
HETATM   12  C   UNL     1      42.395  -8.878  11.837  1.00  0.00     0.004 C 
HETATM   13  C   UNL     1      42.622  -8.588  13.331  1.00  0.00     0.010 C 
HETATM   14  C   UNL     1      42.823  -7.095  13.634  1.00  0.00    -0.018 C 
HETATM   15  C   UNL     1      42.965  -6.870  15.140  1.00  0.00     0.010 C 
HETATM   16  C   UNL     1      41.662  -6.263  13.073  1.00  0.00     0.004 C 
HETATM   17  C   UNL     1      41.443  -6.520  11.586  1.00  0.00     0.001 C 
HETATM   18  C   UNL     1      41.250  -8.007  11.294  1.00  0.00     0.006 C 
ENDBRANCH  11  12
ENDBRANCH   7  11
ENDBRANCH   2   5
BRANCH   1  19
HETATM   19  C   UNL     1      43.186 -13.861   6.100  1.00  0.00     0.121 A 
HETATM   20  N   UNL     1      43.966 -14.661   6.885  1.00  0.00    -0.272 N 
HETATM   21  N   UNL     1      44.214 -15.872   6.364  1.00  0.00    -0.174 NA
HETATM   22  H   UNL     1      44.372 -14.422   7.786  1.00  0.00     0.189 HD
HETATM   23  C   UNL     1      43.534 -15.888   5.206  1.00  0.00     0.089 A 
HETATM   24  C   UNL     1      42.881 -14.640   5.002  1.00  0.00     0.071 A 
BRANCH  23  25
HETATM   25  C   UNL     1      43.528 -17.056   4.323  1.00  0.00    -0.006 A 
HETATM   26  C   UNL     1      42.988 -16.979   3.032  1.00  0.00     0.014 A 
HETATM   27  C   UNL     1      43.004 -18.091   2.184  1.00  0.00     0.007 A 
HETATM   28  C   UNL     1      43.553 -19.303   2.615  1.00  0.00    -0.062 A 
HETATM   29  C   UNL     1      43.608 -20.489   1.697  1.00  0.00     0.048 C 
HETATM   30  C   UNL     1      44.098 -19.383   3.901  1.00  0.00     0.007 A 
HETATM   31  C   UNL     1      44.077 -18.272   4.750  1.00  0.00     0.014 A 
ENDBRANCH  23  25
ENDBRANCH   1  19
TORSDOF 5
ENDMDL
MODEL 3
REMARK VINA RESULT:      -9.1      1.524     11.049
REMARK  5 active torsions:
REMARK  status: ('A' for Active; 'I' for Inactive)
REMARK    1  A    between atoms: C_5  and  C_6 
REMARK    2  A    between atoms: C_10  and  C_11 
REMARK       I    between atoms: C_11  and  N_12 
REMARK    3  A    between atoms: N_12  and  N_13 
REMARK       I    between atoms: N_13  and  C_14 
REMARK       I    between atoms: C_14  and  N_15 
REMARK    4  A    between atoms: N_15  and  C_16 
REMARK    5  A    between atoms: C_16  and  C_17 
ROOT
HETATM    1  C   UNL     1      44.204 -11.217   8.312  1.00  0.00     0.288 C 
HETATM    2  N   UNL     1      43.300 -12.028   7.664  1.00  0.00    -0.261 N 
HETATM    3  O   UNL     1      45.409 -11.248   8.067  1.00  0.00    -0.264 OA
HETATM    4  H   UNL     1      42.304 -12.044   7.866  1.00  0.00     0.190 HD
ENDROOT
BRANCH   2   5
HETATM    5  N   UNL     1      43.748 -12.953   6.710  1.00  0.00    -0.249 N 
HETATM    6  C   UNL     1      43.715 -14.278   7.089  1.00  0.00     0.334 C 
HETATM    7  N   UNL     1      44.020 -15.124   6.054  1.00  0.00    -0.341 N 
HETATM    8  O   UNL     1      43.450 -14.636   8.234  1.00  0.00    -0.246 OA
HETATM    9  H   UNL     1      44.598 -14.722   5.329  1.00  0.00     0.164 HD
HETATM   10  H   UNL     1      43.544 -12.712   5.745  1.00  0.00     0.192 HD
BRANCH   7  11
HETATM   11  C   UNL     1      44.142 -16.553   6.273  1.00  0.00     0.129 C 
BRANCH  11  12
HETATM   12  C   UNL     1      42.990 -17.365   5.647  1.00  0.00     0.004 C 
HETATM   13  C   UNL     1      42.515 -16.790   4.301  1.00  0.00     0.010 C 
HETATM   14  C   UNL     1      43.519 -17.011   3.160  1.00  0.00    -0.018 C 
HETATM   15  C   UNL     1      42.953 -16.487   1.840  1.00  0.00     0.010 C 
HETATM   16  C   UNL     1      43.886 -18.496   3.035  1.00  0.00     0.004 C 
HETATM   17  C   UNL     1      44.385 -19.073   4.356  1.00  0.00     0.001 C 
HETATM   18  C   UNL     1      43.382 -18.843   5.485  1.00  0.00     0.006 C 
ENDBRANCH  11  12
ENDBRANCH   7  11
ENDBRANCH   2   5
BRANCH   1  19
HETATM   19  C   UNL     1      43.634 -10.338   9.296  1.00  0.00     0.121 A 
HETATM   20  N   UNL     1      42.931  -9.219   8.951  1.00  0.00    -0.272 N 
HETATM   21  N   UNL     1      42.499  -8.496   9.996  1.00  0.00    -0.174 NA
HETATM   22  H   UNL     1      42.731  -8.889   8.011  1.00  0.00     0.189 HD
HETATM   23  C   UNL     1      42.895  -9.190  11.075  1.00  0.00     0.089 A 
HETATM   24  C   UNL     1      43.616 -10.350  10.676  1.00  0.00     0.071 A 
BRANCH  23  25
HETATM   25  C   UNL     1      42.602  -8.744  12.438  1.00  0.00    -0.006 A 
HETATM   26  C   UNL     1      43.339  -7.708  13.029  1.00  0.00     0.014 A 
HETATM   27  C   UNL     1      43.041  -7.270  14.324  1.00  0.00     0.007 A 
HETATM   28  C   UNL     1      42.007  -7.864  15.054  1.00  0.00    -0.062 A 
HETATM   29  C   UNL     1      41.658  -7.372  16.427  1.00  0.00     0.048 C 
HETATM   30  C   UNL     1      41.266  -8.894  14.465  1.00  0.00     0.007 A 
HETATM   31  C   UNL     1      41.567  -9.335  13.173  1.00  0.00     0.014 A 
ENDBRANCH  23  25
ENDBRANCH   1  19
TORSDOF 5
ENDMDL
MODEL 4
REMARK VINA RESULT:      -8.9      1.559      2.498
REMARK  5 active torsions:
REMARK  status: ('A' for Active; 'I' for Inactive)
REMARK    1  A    between atoms: C_5  and  C_6 
REMARK    2  A    between atoms: C_10  and  C_11 
REMARK       I    between atoms: C_11  and  N_12 
REMARK    3  A    between atoms: N_12  and  N_13 
REMARK       I    between atoms: N_13  and  C_14 
REMARK       I    between atoms: C_14  and  N_15 
REMARK    4  A    between atoms: N_15  and  C_16 
REMARK    5  A    between atoms: C_16  and  C_17 
ROOT
HETATM    1  C   UNL     1      44.138 -11.564   7.606  1.00  0.00     0.288 C 
HETATM    2  N   UNL     1      43.226 -10.671   8.123  1.00  0.00    -0.261 N 
HETATM    3  O   UNL     1      45.347 -11.458   7.805  1.00  0.00    -0.264 OA
HETATM    4  H   UNL     1      42.225 -10.717   7.951  1.00  0.00     0.190 HD
ENDROOT
BRANCH   2   5
HETATM    5  N   UNL     1      43.669  -9.577   8.880  1.00  0.00    -0.249 N 
HETATM    6  C   UNL     1      42.856  -9.195   9.925  1.00  0.00     0.334 C 
HETATM    7  N   UNL     1      43.431  -8.224  10.704  1.00  0.00    -0.341 N 
HETATM    8  O   UNL     1      41.742  -9.676  10.111  1.00  0.00    -0.246 OA
HETATM    9  H   UNL     1      44.115  -7.646  10.234  1.00  0.00     0.164 HD
HETATM   10  H   UNL     1      44.677  -9.504   8.987  1.00  0.00     0.192 HD
BRANCH   7  11
HETATM   11  C   UNL     1      42.694  -7.612  11.794  1.00  0.00     0.129 C 
BRANCH  11  12
HETATM   12  C   UNL     1      43.168  -8.077  13.186  1.00  0.00     0.004 C 
HETATM   13  C   UNL     1      43.007  -6.992  14.266  1.00  0.00     0.010 C 
HETATM   14  C   UNL     1      41.543  -6.743  14.659  1.00  0.00    -0.018 C 
HETATM   15  C   UNL     1      41.460  -5.714  15.787  1.00  0.00     0.010 C 
HETATM   16  C   UNL     1      40.857  -8.052  15.074  1.00  0.00     0.004 C 
HETATM   17  C   UNL     1      40.986  -9.128  14.001  1.00  0.00     0.001 C 
HETATM   18  C   UNL     1      42.444  -9.365  13.613  1.00  0.00     0.006 C 
ENDBRANCH  11  12
ENDBRANCH   7  11
ENDBRANCH   2   5
BRANCH   1  19
HETATM   19  C   UNL     1      43.570 -12.621   6.816  1.00  0.00     0.121 A 
HETATM   20  N   UNL     1      42.226 -12.719   6.589  1.00  0.00    -0.272 N 
HETATM   21  N   UNL     1      41.867 -13.785   5.859  1.00  0.00    -0.174 NA
HETATM   22  H   UNL     1      41.503 -12.089   6.925  1.00  0.00     0.189 HD
HETATM   23  C   UNL     1      43.025 -14.394   5.555  1.00  0.00     0.089 A 
HETATM   24  C   UNL     1      44.116 -13.696   6.144  1.00  0.00     0.071 A 
BRANCH  23  25
HETATM   25  C   UNL     1      43.075 -15.610   4.742  1.00  0.00    -0.006 A 
HETATM   26  C   UNL     1      42.284 -15.739   3.591  1.00  0.00     0.014 A 
HETATM   27  C   UNL     1      42.353 -16.894   2.805  1.00  0.00     0.007 A 
HETATM   28  C   UNL     1      43.206 -17.944   3.158  1.00  0.00    -0.062 A 
HETATM   29  C   UNL     1      43.311 -19.169   2.298  1.00  0.00     0.048 C 
HETATM   30  C   UNL     1      44.001 -17.816   4.302  1.00  0.00     0.007 A 
HETATM   31  C   UNL     1      43.929 -16.664   5.091  1.00  0.00     0.014 A 
ENDBRANCH  23  25
ENDBRANCH   1  19
TORSDOF 5
ENDMDL
MODEL 5
REMARK VINA RESULT:      -8.5      1.836      2.296
REMARK  5 active torsions:
REMARK  status: ('A' for Active; 'I' for Inactive)
REMARK    1  A    between atoms: C_5  and  C_6 
REMARK    2  A    between atoms: C_10  and  C_11 
REMARK       I    between atoms: C_11  and  N_12 
REMARK    3  A    between atoms: N_12  and  N_13 
REMARK       I    between atoms: N_13  and  C_14 
REMARK       I    between atoms: C_14  and  N_15 
REMARK    4  A    between atoms: N_15  and  C_16 
REMARK    5  A    between atoms: C_16  and  C_17 
ROOT
HETATM    1  C   UNL     1      41.971 -10.507   5.625  1.00  0.00     0.288 C 
HETATM    2  N   UNL     1      41.730 -10.822   6.943  1.00  0.00    -0.261 N 
HETATM    3  O   UNL     1      41.811  -9.372   5.180  1.00  0.00    -0.264 OA
HETATM    4  H   UNL     1      41.827 -11.756   7.332  1.00  0.00     0.190 HD
ENDROOT
BRANCH   2   5
HETATM    5  N   UNL     1      41.254  -9.838   7.822  1.00  0.00    -0.249 N 
HETATM    6  C   UNL     1      42.180  -9.305   8.693  1.00  0.00     0.334 C 
HETATM    7  N   UNL     1      41.675  -8.249   9.408  1.00  0.00    -0.341 N 
HETATM    8  O   UNL     1      43.319  -9.749   8.806  1.00  0.00    -0.246 OA
HETATM    9  H   UNL     1      40.671  -8.255   9.529  1.00  0.00     0.164 HD
HETATM   10  H   UNL     1      40.527  -9.237   7.446  1.00  0.00     0.192 HD
BRANCH   7  11
HETATM   11  C   UNL     1      42.457  -7.616  10.452  1.00  0.00     0.129 C 
BRANCH  11  12
HETATM   12  C   UNL     1      41.607  -7.141  11.648  1.00  0.00     0.004 C 
HETATM   13  C   UNL     1      40.536  -8.165  12.064  1.00  0.00     0.010 C 
HETATM   14  C   UNL     1      41.122  -9.406  12.755  1.00  0.00    -0.018 C 
HETATM   15  C   UNL     1      40.003 -10.342  13.211  1.00  0.00     0.010 C 
HETATM   16  C   UNL     1      42.005  -9.005  13.943  1.00  0.00     0.004 C 
HETATM   17  C   UNL     1      43.089  -8.010  13.539  1.00  0.00     0.001 C 
HETATM   18  C   UNL     1      42.497  -6.783  12.849  1.00  0.00     0.006 C 
ENDBRANCH  11  12
ENDBRANCH   7  11
ENDBRANCH   2   5
BRANCH   1  19
HETATM   19  C   UNL     1      42.420 -11.604   4.812  1.00  0.00     0.121 A 
HETATM   20  N   UNL     1      43.229 -11.422   3.727  1.00  0.00    -0.272 N 
HETATM   21  N   UNL     1      43.522 -12.551   3.064  1.00  0.00    -0.174 NA
HETATM   22  H   UNL     1      43.598 -10.541   3.382  1.00  0.00     0.189 HD
HETATM   23  C   UNL     1      42.917 -13.523   3.765  1.00  0.00     0.089 A 
HETATM   24  C   UNL     1      42.209 -12.967   4.867  1.00  0.00     0.071 A 
BRANCH  23  25
HETATM   25  C   UNL     1      43.006 -14.932   3.378  1.00  0.00    -0.006 A 
HETATM   26  C   UNL     1      43.119 -15.303   2.031  1.00  0.00     0.014 A 
HETATM   27  C   UNL     1      43.225 -16.650   1.668  1.00  0.00     0.007 A 
HETATM   28  C   UNL     1      43.213 -17.651   2.644  1.00  0.00    -0.062 A 
HETATM   29  C   UNL     1      43.366 -19.094   2.264  1.00  0.00     0.048 C 
HETATM   30  C   UNL     1      43.107 -17.285   3.990  1.00  0.00     0.007 A 
HETATM   31  C   UNL     1      42.995 -15.939   4.352  1.00  0.00     0.014 A 
ENDBRANCH  23  25
ENDBRANCH   1  19
TORSDOF 5
ENDMDL
MODEL 6
REMARK VINA RESULT:      -8.5      2.068     11.037
REMARK  5 active torsions:
REMARK  status: ('A' for Active; 'I' for Inactive)
REMARK    1  A    between atoms: C_5  and  C_6 
REMARK    2  A    between atoms: C_10  and  C_11 
REMARK       I    between atoms: C_11  and  N_12 
REMARK    3  A    between atoms: N_12  and  N_13 
REMARK       I    between atoms: N_13  and  C_14 
REMARK       I    between atoms: C_14  and  N_15 
REMARK    4  A    between atoms: N_15  and  C_16 
REMARK    5  A    between atoms: C_16  and  C_17 
ROOT
HETATM    1  C   UNL     1      43.944 -10.368   8.293  1.00  0.00     0.288 C 
HETATM    2  N   UNL     1      42.934 -10.945   7.557  1.00  0.00    -0.261 N 
HETATM    3  O   UNL     1      45.017 -10.037   7.791  1.00  0.00    -0.264 OA
HETATM    4  H   UNL     1      42.049 -11.254   7.951  1.00  0.00     0.190 HD
ENDROOT
BRANCH   2   5
HETATM    5  N   UNL     1      43.122 -11.205   6.192  1.00  0.00    -0.249 N 
HETATM    6  C   UNL     1      42.204 -12.048   5.604  1.00  0.00     0.334 C 
HETATM    7  N   UNL     1      42.365 -12.128   4.245  1.00  0.00    -0.341 N 
HETATM    8  O   UNL     1      41.353 -12.657   6.247  1.00  0.00    -0.246 OA
HETATM    9  H   UNL     1      43.300 -11.934   3.913  1.00  0.00     0.164 HD
HETATM   10  H   UNL     1      43.497 -10.431   5.652  1.00  0.00     0.192 HD
BRANCH   7  11
HETATM   11  C   UNL     1      41.565 -13.043   3.454  1.00  0.00     0.129 C 
BRANCH  11  12
HETATM   12  C   UNL     1      42.376 -13.779   2.367  1.00  0.00     0.004 C 
HETATM   13  C   UNL     1      43.273 -14.890   2.941  1.00  0.00     0.010 C 
HETATM   14  C   UNL     1      42.484 -16.117   3.424  1.00  0.00    -0.018 C 
HETATM   15  C   UNL     1      43.438 -17.210   3.907  1.00  0.00     0.010 C 
HETATM   16  C   UNL     1      41.571 -16.652   2.313  1.00  0.00     0.004 C 
HETATM   17  C   UNL     1      40.657 -15.567   1.753  1.00  0.00     0.001 C 
HETATM   18  C   UNL     1      41.450 -14.350   1.281  1.00  0.00     0.006 C 
ENDBRANCH  11  12
ENDBRANCH   7  11
ENDBRANCH   2   5
BRANCH   1  19
HETATM   19  C   UNL     1      43.651 -10.186   9.688  1.00  0.00     0.121 A 
HETATM   20  N   UNL     1      43.585 -11.234  10.561  1.00  0.00    -0.272 N 
HETATM   21  N   UNL     1      43.267 -10.887  11.816  1.00  0.00    -0.174 NA
HETATM   22  H   UNL     1      43.734 -12.217  10.347  1.00  0.00     0.189 HD
HETATM   23  C   UNL     1      43.160  -9.549  11.781  1.00  0.00     0.089 A 
HETATM   24  C   UNL     1      43.388  -9.072  10.460  1.00  0.00     0.071 A 
BRANCH  23  25
HETATM   25  C   UNL     1      42.836  -8.762  12.972  1.00  0.00    -0.006 A 
HETATM   26  C   UNL     1      41.878  -9.211  13.892  1.00  0.00     0.014 A 
HETATM   27  C   UNL     1      41.588  -8.467  15.040  1.00  0.00     0.007 A 
HETATM   28  C   UNL     1      42.242  -7.256  15.286  1.00  0.00    -0.062 A 
HETATM   29  C   UNL     1      41.963  -6.472  16.534  1.00  0.00     0.048 C 
HETATM   30  C   UNL     1      43.203  -6.807  14.373  1.00  0.00     0.007 A 
HETATM   31  C   UNL     1      43.490  -7.549  13.223  1.00  0.00     0.014 A 
ENDBRANCH  23  25
ENDBRANCH   1  19
TORSDOF 5
ENDMDL
MODEL 7
REMARK VINA RESULT:      -8.1      2.329      3.102
REMARK  5 active torsions:
REMARK  status: ('A' for Active; 'I' for Inactive)
REMARK    1  A    between atoms: C_5  and  C_6 
REMARK    2  A    between atoms: C_10  and  C_11 
REMARK       I    between atoms: C_11  and  N_12 
REMARK    3  A    between atoms: N_12  and  N_13 
REMARK       I    between atoms: N_13  and  C_14 
REMARK       I    between atoms: C_14  and  N_15 
REMARK    4  A    between atoms: N_15  and  C_16 
REMARK    5  A    between atoms: C_16  and  C_17 
ROOT
HETATM    1  C   UNL     1      42.536 -11.732   3.698  1.00  0.00     0.288 C 
HETATM    2  N   UNL     1      42.214 -11.335   4.976  1.00  0.00    -0.261 N 
HETATM    3  O   UNL     1      42.916 -10.939   2.839  1.00  0.00    -0.264 OA
HETATM    4  H   UNL     1      41.871 -11.963   5.698  1.00  0.00     0.190 HD
ENDROOT
BRANCH   2   5
HETATM    5  N   UNL     1      42.283  -9.978   5.325  1.00  0.00    -0.249 N 
HETATM    6  C   UNL     1      42.058  -9.683   6.653  1.00  0.00     0.334 C 
HETATM    7  N   UNL     1      42.294  -8.363   6.941  1.00  0.00    -0.341 N 
HETATM    8  O   UNL     1      41.679 -10.522   7.465  1.00  0.00    -0.246 OA
HETATM    9  H   UNL     1      42.192  -7.730   6.160  1.00  0.00     0.164 HD
HETATM   10  H   UNL     1      42.966  -9.432   4.808  1.00  0.00     0.192 HD
BRANCH   7  11
HETATM   11  C   UNL     1      42.015  -7.828   8.260  1.00  0.00     0.129 C 
BRANCH  11  12
HETATM   12  C   UNL     1      43.247  -7.187   8.930  1.00  0.00     0.004 C 
HETATM   13  C   UNL     1      43.079  -7.016  10.451  1.00  0.00     0.010 C 
HETATM   14  C   UNL     1      43.140  -8.345  11.219  1.00  0.00    -0.018 C 
HETATM   15  C   UNL     1      43.046  -8.096  12.725  1.00  0.00     0.010 C 
HETATM   16  C   UNL     1      44.424  -9.114  10.881  1.00  0.00     0.004 C 
HETATM   17  C   UNL     1      44.590  -9.314   9.378  1.00  0.00     0.001 C 
HETATM   18  C   UNL     1      44.523  -7.988   8.622  1.00  0.00     0.006 C 
ENDBRANCH  11  12
ENDBRANCH   7  11
ENDBRANCH   2   5
BRANCH   1  19
HETATM   19  C   UNL     1      42.391 -13.140   3.446  1.00  0.00     0.121 A 
HETATM   20  N   UNL     1      41.272 -13.663   2.862  1.00  0.00    -0.272 N 
HETATM   21  N   UNL     1      41.291 -14.998   2.734  1.00  0.00    -0.174 NA
HETATM   22  H   UNL     1      40.454 -13.151   2.545  1.00  0.00     0.189 HD
HETATM   23  C   UNL     1      42.489 -15.368   3.214  1.00  0.00     0.089 A 
HETATM   24  C   UNL     1      43.206 -14.229   3.677  1.00  0.00     0.071 A 
BRANCH  23  25
HETATM   25  C   UNL     1      42.920 -16.767   3.239  1.00  0.00    -0.006 A 
HETATM   26  C   UNL     1      43.629 -17.281   4.333  1.00  0.00     0.014 A 
HETATM   27  C   UNL     1      44.019 -18.625   4.363  1.00  0.00     0.007 A 
HETATM   28  C   UNL     1      43.714 -19.476   3.296  1.00  0.00    -0.062 A 
HETATM   29  C   UNL     1      44.095 -20.926   3.339  1.00  0.00     0.048 C 
HETATM   30  C   UNL     1      43.000 -18.967   2.205  1.00  0.00     0.007 A 
HETATM   31  C   UNL     1      42.615 -17.623   2.174  1.00  0.00     0.014 A 
ENDBRANCH  23  25
ENDBRANCH   1  19
TORSDOF 5
ENDMDL
MODEL 8
REMARK VINA RESULT:      -7.9      7.442     10.321
REMARK  5 active torsions:
REMARK  status: ('A' for Active; 'I' for Inactive)
REMARK    1  A    between atoms: C_5  and  C_6 
REMARK    2  A    between atoms: C_10  and  C_11 
REMARK       I    between atoms: C_11  and  N_12 
REMARK    3  A    between atoms: N_12  and  N_13 
REMARK       I    between atoms: N_13  and  C_14 
REMARK       I    between atoms: C_14  and  N_15 
REMARK    4  A    between atoms: N_15  and  C_16 
REMARK    5  A    between atoms: C_16  and  C_17 
ROOT
HETATM    1  C   UNL     1      39.792 -14.107   0.304  1.00  0.00     0.288 C 
HETATM    2  N   UNL     1      39.385 -13.420   1.426  1.00  0.00    -0.261 N 
HETATM    3  O   UNL     1      40.032 -15.313   0.322  1.00  0.00    -0.264 OA
HETATM    4  H   UNL     1      39.208 -12.419   1.447  1.00  0.00     0.190 HD
ENDROOT
BRANCH   2   5
HETATM    5  N   UNL     1      39.263 -14.091   2.651  1.00  0.00    -0.249 N 
HETATM    6  C   UNL     1      40.275 -13.875   3.563  1.00  0.00     0.334 C 
HETATM    7  N   UNL     1      40.006 -14.439   4.783  1.00  0.00    -0.341 N 
HETATM    8  O   UNL     1      41.298 -13.254   3.286  1.00  0.00    -0.246 OA
HETATM    9  H   UNL     1      39.379 -15.231   4.760  1.00  0.00     0.164 HD
HETATM   10  H   UNL     1      38.313 -14.206   2.989  1.00  0.00     0.192 HD
BRANCH   7  11
HETATM   11  C   UNL     1      40.991 -14.414   5.847  1.00  0.00     0.129 C 
BRANCH  11  12
HETATM   12  C   UNL     1      41.358 -15.817   6.371  1.00  0.00     0.004 C 
HETATM   13  C   UNL     1      41.690 -16.809   5.241  1.00  0.00     0.010 C 
HETATM   14  C   UNL     1      43.038 -16.523   4.562  1.00  0.00    -0.018 C 
HETATM   15  C   UNL     1      43.341 -17.587   3.507  1.00  0.00     0.010 C 
HETATM   16  C   UNL     1      44.169 -16.454   5.596  1.00  0.00     0.004 C 
HETATM   17  C   UNL     1      43.866 -15.455   6.708  1.00  0.00     0.001 C 
HETATM   18  C   UNL     1      42.522 -15.744   7.374  1.00  0.00     0.006 C 
ENDBRANCH  11  12
ENDBRANCH   7  11
ENDBRANCH   2   5
BRANCH   1  19
HETATM   19  C   UNL     1      39.918 -13.308  -0.883  1.00  0.00     0.121 A 
HETATM   20  N   UNL     1      40.534 -13.771  -2.011  1.00  0.00    -0.272 N 
HETATM   21  N   UNL     1      40.592 -12.881  -3.013  1.00  0.00    -0.174 NA
HETATM   22  H   UNL     1      40.951 -14.688  -2.145  1.00  0.00     0.189 HD
HETATM   23  C   UNL     1      39.949 -11.800  -2.543  1.00  0.00     0.089 A 
HETATM   24  C   UNL     1      39.517 -12.027  -1.207  1.00  0.00     0.071 A 
BRANCH  23  25
HETATM   25  C   UNL     1      39.772 -10.589  -3.346  1.00  0.00    -0.006 A 
HETATM   26  C   UNL     1      38.491 -10.102  -3.641  1.00  0.00     0.014 A 
HETATM   27  C   UNL     1      38.328  -8.932  -4.391  1.00  0.00     0.007 A 
HETATM   28  C   UNL     1      39.441  -8.233  -4.866  1.00  0.00    -0.062 A 
HETATM   29  C   UNL     1      39.273  -6.957  -5.638  1.00  0.00     0.048 C 
HETATM   30  C   UNL     1      40.721  -8.713  -4.569  1.00  0.00     0.007 A 
HETATM   31  C   UNL     1      40.884  -9.885  -3.824  1.00  0.00     0.014 A 
ENDBRANCH  23  25
ENDBRANCH   1  19
TORSDOF 5
ENDMDL
MODEL 9
REMARK VINA RESULT:      -7.8      2.329      3.229
REMARK  5 active torsions:
REMARK  status: ('A' for Active; 'I' for Inactive)
REMARK    1  A    between atoms: C_5  and  C_6 
REMARK    2  A    between atoms: C_10  and  C_11 
REMARK       I    between atoms: C_11  and  N_12 
REMARK    3  A    between atoms: N_12  and  N_13 
REMARK       I    between atoms: N_13  and  C_14 
REMARK       I    between atoms: C_14  and  N_15 
REMARK    4  A    between atoms: N_15  and  C_16 
REMARK    5  A    between atoms: C_16  and  C_17 
ROOT
HETATM    1  C   UNL     1      42.574 -11.763   5.408  1.00  0.00     0.288 C 
HETATM    2  N   UNL     1      41.901 -11.382   6.547  1.00  0.00    -0.261 N 
HETATM    3  O   UNL     1      42.912 -10.957   4.543  1.00  0.00    -0.264 OA
HETATM    4  H   UNL     1      41.584 -12.030   7.264  1.00  0.00     0.190 HD
ENDROOT
BRANCH   2   5
HETATM    5  N   UNL     1      41.550 -10.037   6.736  1.00  0.00    -0.249 N 
HETATM    6  C   UNL     1      42.370  -9.309   7.570  1.00  0.00     0.334 C 
HETATM    7  N   UNL     1      42.051  -7.976   7.581  1.00  0.00    -0.341 N 
HETATM    8  O   UNL     1      43.272  -9.821   8.229  1.00  0.00    -0.246 OA
HETATM    9  H   UNL     1      41.091  -7.763   7.349  1.00  0.00     0.164 HD
HETATM   10  H   UNL     1      41.138  -9.580   5.928  1.00  0.00     0.192 HD
BRANCH   7  11
HETATM   11  C   UNL     1      42.729  -7.056   8.474  1.00  0.00     0.129 C 
BRANCH  11  12
HETATM   12  C   UNL     1      42.012  -6.883   9.829  1.00  0.00     0.004 C 
HETATM   13  C   UNL     1      42.645  -5.786  10.705  1.00  0.00     0.010 C 
HETATM   14  C   UNL     1      42.375  -4.366  10.186  1.00  0.00    -0.018 C 
HETATM   15  C   UNL     1      42.963  -3.327  11.141  1.00  0.00     0.010 C 
HETATM   16  C   UNL     1      40.871  -4.130   9.995  1.00  0.00     0.004 C 
HETATM   17  C   UNL     1      40.235  -5.194   9.106  1.00  0.00     0.001 C 
HETATM   18  C   UNL     1      40.513  -6.603   9.627  1.00  0.00     0.006 C 
ENDBRANCH  11  12
ENDBRANCH   7  11
ENDBRANCH   2   5
BRANCH   1  19
HETATM   19  C   UNL     1      42.845 -13.171   5.306  1.00  0.00     0.121 A 
HETATM   20  N   UNL     1      43.252 -13.912   6.379  1.00  0.00    -0.272 N 
HETATM   21  N   UNL     1      43.492 -15.202   6.097  1.00  0.00    -0.174 NA
HETATM   22  H   UNL     1      43.400 -13.582   7.328  1.00  0.00     0.189 HD
HETATM   23  C   UNL     1      43.189 -15.327   4.795  1.00  0.00     0.089 A 
HETATM   24  C   UNL     1      42.785 -14.071   4.262  1.00  0.00     0.071 A 
BRANCH  23  25
HETATM   25  C   UNL     1      43.301 -16.604   4.089  1.00  0.00    -0.006 A 
HETATM   26  C   UNL     1      42.699 -16.789   2.836  1.00  0.00     0.014 A 
HETATM   27  C   UNL     1      42.827 -18.004   2.155  1.00  0.00     0.007 A 
HETATM   28  C   UNL     1      43.552 -19.059   2.717  1.00  0.00    -0.062 A 
HETATM   29  C   UNL     1      43.725 -20.352   1.975  1.00  0.00     0.048 C 
HETATM   30  C   UNL     1      44.159 -18.877   3.965  1.00  0.00     0.007 A 
HETATM   31  C   UNL     1      44.027 -17.664   4.647  1.00  0.00     0.014 A 
ENDBRANCH  23  25
ENDBRANCH   1  19
TORSDOF 5
ENDMDL
MODEL 10
REMARK VINA RESULT:      -7.8     18.584     21.324
REMARK  5 active torsions:
REMARK  status: ('A' for Active; 'I' for Inactive)
REMARK    1  A    between atoms: C_5  and  C_6 
REMARK    2  A    between atoms: C_10  and  C_11 
REMARK       I    between atoms: C_11  and  N_12 
REMARK    3  A    between atoms: N_12  and  N_13 
REMARK       I    between atoms: N_13  and  C_14 
REMARK       I    between atoms: C_14  and  N_15 
REMARK    4  A    between atoms: N_15  and  C_16 
REMARK    5  A    between atoms: C_16  and  C_17 
ROOT
HETATM    1  C   UNL     1      47.897 -29.142   2.175  1.00  0.00     0.288 C 
HETATM    2  N   UNL     1      48.269 -28.604   0.964  1.00  0.00    -0.261 N 
HETATM    3  O   UNL     1      46.733 -29.133   2.569  1.00  0.00    -0.264 OA
HETATM    4  H   UNL     1      49.227 -28.572   0.625  1.00  0.00     0.190 HD
ENDROOT
BRANCH   2   5
HETATM    5  N   UNL     1      47.309 -27.990   0.146  1.00  0.00    -0.249 N 
HETATM    6  C   UNL     1      47.031 -28.626  -1.045  1.00  0.00     0.334 C 
HETATM    7  N   UNL     1      45.979 -28.050  -1.710  1.00  0.00    -0.341 N 
HETATM    8  O   UNL     1      47.674 -29.590  -1.449  1.00  0.00    -0.246 OA
HETATM    9  H   UNL     1      45.823 -27.074  -1.500  1.00  0.00     0.164 HD
HETATM   10  H   UNL     1      46.556 -27.520   0.641  1.00  0.00     0.192 HD
BRANCH   7  11
HETATM   11  C   UNL     1      45.596 -28.507  -3.032  1.00  0.00     0.129 C 
BRANCH  11  12
HETATM   12  C   UNL     1      44.207 -29.175  -3.067  1.00  0.00     0.004 C 
HETATM   13  C   UNL     1      43.759 -29.551  -4.492  1.00  0.00     0.010 C 
HETATM   14  C   UNL     1      44.535 -30.741  -5.076  1.00  0.00    -0.018 C 
HETATM   15  C   UNL     1      43.990 -31.109  -6.455  1.00  0.00     0.010 C 
HETATM   16  C   UNL     1      44.473 -31.950  -4.133  1.00  0.00     0.004 C 
HETATM   17  C   UNL     1      44.940 -31.599  -2.724  1.00  0.00     0.001 C 
HETATM   18  C   UNL     1      44.166 -30.412  -2.154  1.00  0.00     0.006 C 
ENDBRANCH  11  12
ENDBRANCH   7  11
ENDBRANCH   2   5
BRANCH   1  19
HETATM   19  C   UNL     1      48.973 -29.710   2.941  1.00  0.00     0.121 A 
HETATM   20  N   UNL     1      50.273 -29.650   2.526  1.00  0.00    -0.272 N 
HETATM   21  N   UNL     1      51.141 -30.260   3.346  1.00  0.00    -0.174 NA
HETATM   22  H   UNL     1      50.622 -29.217   1.676  1.00  0.00     0.189 HD
HETATM   23  C   UNL     1      50.390 -30.702   4.367  1.00  0.00     0.089 A 
HETATM   24  C   UNL     1      49.022 -30.382   4.146  1.00  0.00     0.071 A 
BRANCH  23  25
HETATM   25  C   UNL     1      50.967 -31.421   5.505  1.00  0.00    -0.006 A 
HETATM   26  C   UNL     1      50.256 -32.446   6.145  1.00  0.00     0.014 A 
HETATM   27  C   UNL     1      50.822 -33.144   7.217  1.00  0.00     0.007 A 
HETATM   28  C   UNL     1      52.104 -32.825   7.674  1.00  0.00    -0.062 A 
HETATM   29  C   UNL     1      52.730 -33.596   8.799  1.00  0.00     0.048 C 
HETATM   30  C   UNL     1      52.819 -31.807   7.035  1.00  0.00     0.007 A 
HETATM   31  C   UNL     1      52.252 -31.106   5.966  1.00  0.00     0.014 A 
ENDBRANCH  23  25
ENDBRANCH   1  19
TORSDOF 5
ENDMDL
