MODEL 1
REMARK VINA RESULT:      -9.8      0.000      0.000
REMARK  5 active torsions:
REMARK  status: ('A' for Active; 'I' for Inactive)
REMARK    1  A    between atoms: C_4  and  N_5 
REMARK       I    between atoms: C_6  and  N_7 
REMARK       I    between atoms: C_6  and  N_14 
REMARK       I    between atoms: N_7  and  C_8 
REMARK    2  A    between atoms: C_8  and  C_9 
REMARK    3  A    between atoms: N_14  and  C_15 
REMARK    4  A    between atoms: C_15  and  C_16 
REMARK    5  A    between atoms: C_16  and  C_17 
ROOT
HETATM    1  N   UNL     1      40.186 -13.277   1.172  1.00  0.00     0.130 NA
HETATM    2  C   UNL     1      41.260 -13.647   1.783  1.00  0.00     0.718 C 
HETATM    3  N   UNL     1      41.291 -13.578   3.165  1.00  0.00    -0.157 N 
HETATM    4  C   UNL     1      40.287 -13.180   4.050  1.00  0.00     0.243 C 
HETATM    5  O   UNL     1      39.129 -12.916   3.741  1.00  0.00    -0.272 OA
HETATM    6  N   UNL     1      42.407 -14.095   1.173  1.00  0.00    -0.223 N 
HETATM    7  H   UNL     1      42.182 -13.798   3.569  1.00  0.00     0.187 HD
HETATM    8  H   UNL     1      42.212 -14.326   0.194  1.00  0.00     0.177 HD
ENDROOT
BRANCH   1   9
HETATM    9  C   UNL     1      40.073 -13.293  -0.212  1.00  0.00     0.764 A 
HETATM   10  N   UNL     1      39.453 -14.333  -0.808  1.00  0.00    -0.065 NA
HETATM   11  C   UNL     1      39.342 -14.278  -2.150  1.00  0.00     0.051 A 
HETATM   12  C   UNL     1      38.640 -15.415  -2.828  1.00  0.00     0.071 C 
HETATM   13  C   UNL     1      39.845 -13.229  -2.893  1.00  0.00     0.054 A 
HETATM   14  C   UNL     1      40.471 -12.217  -2.193  1.00  0.00     0.051 A 
HETATM   15  N   UNL     1      40.591 -12.235  -0.852  1.00  0.00    -0.065 NA
HETATM   16  C   UNL     1      41.052 -11.041  -2.916  1.00  0.00     0.071 C 
ENDBRANCH   1   9
BRANCH   6  17
HETATM   17  C   UNL     1      43.460 -14.902   1.761  1.00  0.00     0.142 C 
BRANCH  17  18
HETATM   18  C   UNL     1      43.042 -16.376   1.797  1.00  0.00     0.061 C 
BRANCH  18  19
HETATM   19  C   UNL     1      43.362 -17.026   3.104  1.00  0.00    -0.029 A 
HETATM   20  C   UNL     1      43.564 -18.425   3.332  1.00  0.00    -0.002 A 
HETATM   21  C   UNL     1      43.829 -18.595   4.690  1.00  0.00     0.042 A 
HETATM   22  C   UNL     1      43.541 -19.568   2.504  1.00  0.00     0.014 A 
HETATM   23  C   UNL     1      44.072 -19.848   5.265  1.00  0.00     0.030 A 
HETATM   24  N   UNL     1      43.792 -17.348   5.268  1.00  0.00    -0.365 N 
HETATM   25  C   UNL     1      44.041 -20.964   4.424  1.00  0.00     0.002 A 
HETATM   26  C   UNL     1      43.780 -20.829   3.062  1.00  0.00     0.001 A 
HETATM   27  H   UNL     1      43.944 -17.167   6.251  1.00  0.00     0.165 HD
HETATM   28  C   UNL     1      43.515 -16.396   4.324  1.00  0.00     0.096 A 
ENDBRANCH  18  19
ENDBRANCH  17  18
ENDBRANCH   6  17
BRANCH   4  29
HETATM   29  C   UNL     1      40.740 -13.168   5.530  1.00  0.00     0.031 C 
HETATM   30  C   UNL     1      39.966 -12.108   6.329  1.00  0.00     0.025 C 
HETATM   31  C   UNL     1      40.462 -14.545   6.161  1.00  0.00     0.025 C 
HETATM   32  C   UNL     1      42.250 -12.892   5.604  1.00  0.00     0.025 C 
ENDBRANCH   4  29
TORSDOF 5
ENDMDL
MODEL 2
REMARK VINA RESULT:      -9.3      1.405      5.404
REMARK  5 active torsions:
REMARK  status: ('A' for Active; 'I' for Inactive)
REMARK    1  A    between atoms: C_4  and  N_5 
REMARK       I    between atoms: C_6  and  N_7 
REMARK       I    between atoms: C_6  and  N_14 
REMARK       I    between atoms: N_7  and  C_8 
REMARK    2  A    between atoms: C_8  and  C_9 
REMARK    3  A    between atoms: N_14  and  C_15 
REMARK    4  A    between atoms: C_15  and  C_16 
REMARK    5  A    between atoms: C_16  and  C_17 
ROOT
HETATM    1  N   UNL     1      39.985 -12.595   2.220  1.00  0.00     0.130 NA
HETATM    2  C   UNL     1      40.122 -13.745   1.654  1.00  0.00     0.718 C 
HETATM    3  N   UNL     1      39.760 -13.875   0.325  1.00  0.00    -0.157 N 
HETATM    4  C   UNL     1      39.272 -12.905  -0.553  1.00  0.00     0.243 C 
HETATM    5  O   UNL     1      39.179 -11.706  -0.311  1.00  0.00    -0.272 OA
HETATM    6  N   UNL     1      40.589 -14.883   2.268  1.00  0.00    -0.223 N 
HETATM    7  H   UNL     1      39.811 -14.812  -0.028  1.00  0.00     0.187 HD
HETATM    8  H   UNL     1      41.037 -14.639   3.156  1.00  0.00     0.177 HD
ENDROOT
BRANCH   1   9
HETATM    9  C   UNL     1      40.303 -12.379   3.556  1.00  0.00     0.764 A 
HETATM   10  N   UNL     1      41.526 -12.732   4.003  1.00  0.00    -0.065 NA
HETATM   11  C   UNL     1      41.792 -12.467   5.298  1.00  0.00     0.051 A 
HETATM   12  C   UNL     1      43.152 -12.834   5.809  1.00  0.00     0.071 C 
HETATM   13  C   UNL     1      40.868 -11.882   6.140  1.00  0.00     0.054 A 
HETATM   14  C   UNL     1      39.640 -11.568   5.590  1.00  0.00     0.051 A 
HETATM   15  N   UNL     1      39.345 -11.808   4.299  1.00  0.00    -0.065 NA
HETATM   16  C   UNL     1      38.573 -10.934   6.430  1.00  0.00     0.071 C 
ENDBRANCH   1   9
BRANCH   6  17
HETATM   17  C   UNL     1      41.158 -16.057   1.632  1.00  0.00     0.142 C 
BRANCH  17  18
HETATM   18  C   UNL     1      42.686 -16.034   1.750  1.00  0.00     0.061 C 
BRANCH  18  19
HETATM   19  C   UNL     1      43.176 -16.786   2.945  1.00  0.00    -0.029 A 
HETATM   20  C   UNL     1      43.403 -18.197   3.030  1.00  0.00    -0.002 A 
HETATM   21  C   UNL     1      43.847 -18.474   4.322  1.00  0.00     0.042 A 
HETATM   22  C   UNL     1      43.265 -19.269   2.123  1.00  0.00     0.014 A 
HETATM   23  C   UNL     1      44.160 -19.768   4.756  1.00  0.00     0.030 A 
HETATM   24  N   UNL     1      43.891 -17.277   4.999  1.00  0.00    -0.365 N 
HETATM   25  C   UNL     1      44.013 -20.812   3.839  1.00  0.00     0.002 A 
HETATM   26  C   UNL     1      43.572 -20.569   2.540  1.00  0.00     0.001 A 
HETATM   27  H   UNL     1      44.174 -17.176   5.964  1.00  0.00     0.165 HD
HETATM   28  C   UNL     1      43.493 -16.255   4.181  1.00  0.00     0.096 A 
ENDBRANCH  18  19
ENDBRANCH  17  18
ENDBRANCH   6  17
BRANCH   4  29
HETATM   29  C   UNL     1      38.907 -13.467  -1.950  1.00  0.00     0.031 C 
HETATM   30  C   UNL     1      39.005 -15.000  -1.963  1.00  0.00     0.025 C 
HETATM   31  C   UNL     1      37.459 -13.073  -2.295  1.00  0.00     0.025 C 
HETATM   32  C   UNL     1      39.844 -12.864  -3.007  1.00  0.00     0.025 C 
ENDBRANCH   4  29
TORSDOF 5
ENDMDL
MODEL 3
REMARK VINA RESULT:      -8.9      2.095      5.791
REMARK  5 active torsions:
REMARK  status: ('A' for Active; 'I' for Inactive)
REMARK    1  A    between atoms: C_4  and  N_5 
REMARK       I    between atoms: C_6  and  N_7 
REMARK       I    between atoms: C_6  and  N_14 
REMARK       I    between atoms: N_7  and  C_8 
REMARK    2  A    between atoms: C_8  and  C_9 
REMARK    3  A    between atoms: N_14  and  C_15 
REMARK    4  A    between atoms: C_15  and  C_16 
REMARK    5  A    between atoms: C_16  and  C_17 
ROOT
HETATM    1  N   UNL     1      42.047 -11.478   3.223  1.00  0.00     0.130 NA
HETATM    2  C   UNL     1      41.623 -12.653   2.905  1.00  0.00     0.718 C 
HETATM    3  N   UNL     1      41.115 -12.850   1.632  1.00  0.00    -0.157 N 
HETATM    4  C   UNL     1      41.011 -11.943   0.576  1.00  0.00     0.243 C 
HETATM    5  O   UNL     1      41.466 -10.804   0.567  1.00  0.00    -0.272 OA
HETATM    6  N   UNL     1      41.611 -13.747   3.737  1.00  0.00    -0.223 N 
HETATM    7  H   UNL     1      40.726 -13.761   1.479  1.00  0.00     0.187 HD
HETATM    8  H   UNL     1      42.203 -13.567   4.553  1.00  0.00     0.177 HD
ENDROOT
BRANCH   1   9
HETATM    9  C   UNL     1      42.552 -11.184   4.484  1.00  0.00     0.764 A 
HETATM   10  N   UNL     1      43.846 -11.459   4.751  1.00  0.00    -0.065 NA
HETATM   11  C   UNL     1      44.291 -11.120   5.978  1.00  0.00     0.051 A 
HETATM   12  C   UNL     1      45.730 -11.400   6.288  1.00  0.00     0.071 C 
HETATM   13  C   UNL     1      43.475 -10.539   6.928  1.00  0.00     0.054 A 
HETATM   14  C   UNL     1      42.164 -10.308   6.562  1.00  0.00     0.051 A 
HETATM   15  N   UNL     1      41.690 -10.623   5.342  1.00  0.00    -0.065 NA
HETATM   16  C   UNL     1      41.204  -9.686   7.530  1.00  0.00     0.071 C 
ENDBRANCH   1   9
BRANCH   6  17
HETATM   17  C   UNL     1      41.558 -15.145   3.354  1.00  0.00     0.142 C 
BRANCH  17  18
HETATM   18  C   UNL     1      42.953 -15.639   2.953  1.00  0.00     0.061 C 
BRANCH  18  19
HETATM   19  C   UNL     1      43.432 -16.758   3.820  1.00  0.00    -0.029 A 
HETATM   20  C   UNL     1      43.504 -18.142   3.461  1.00  0.00    -0.002 A 
HETATM   21  C   UNL     1      43.997 -18.836   4.565  1.00  0.00     0.042 A 
HETATM   22  C   UNL     1      43.190 -18.871   2.294  1.00  0.00     0.014 A 
HETATM   23  C   UNL     1      44.192 -20.223   4.565  1.00  0.00     0.030 A 
HETATM   24  N   UNL     1      44.218 -17.912   5.559  1.00  0.00    -0.365 N 
HETATM   25  C   UNL     1      43.870 -20.921   3.397  1.00  0.00     0.002 A 
HETATM   26  C   UNL     1      43.378 -20.258   2.276  1.00  0.00     0.001 A 
HETATM   27  H   UNL     1      44.570 -18.134   6.479  1.00  0.00     0.165 HD
HETATM   28  C   UNL     1      43.884 -16.658   5.122  1.00  0.00     0.096 A 
ENDBRANCH  18  19
ENDBRANCH  17  18
ENDBRANCH   6  17
BRANCH   4  29
HETATM   29  C   UNL     1      40.309 -12.531  -0.673  1.00  0.00     0.031 C 
HETATM   30  C   UNL     1      41.058 -12.136  -1.956  1.00  0.00     0.025 C 
HETATM   31  C   UNL     1      40.297 -14.068  -0.576  1.00  0.00     0.025 C 
HETATM   32  C   UNL     1      38.857 -12.033  -0.730  1.00  0.00     0.025 C 
ENDBRANCH   4  29
TORSDOF 5
ENDMDL
MODEL 4
REMARK VINA RESULT:      -8.9      2.568      7.299
REMARK  5 active torsions:
REMARK  status: ('A' for Active; 'I' for Inactive)
REMARK    1  A    between atoms: C_4  and  N_5 
REMARK       I    between atoms: C_6  and  N_7 
REMARK       I    between atoms: C_6  and  N_14 
REMARK       I    between atoms: N_7  and  C_8 
REMARK    2  A    between atoms: C_8  and  C_9 
REMARK    3  A    between atoms: N_14  and  C_15 
REMARK    4  A    between atoms: C_15  and  C_16 
REMARK    5  A    between atoms: C_16  and  C_17 
ROOT
HETATM    1  N   UNL     1      41.851 -15.723   1.770  1.00  0.00     0.130 NA
HETATM    2  C   UNL     1      42.025 -14.447   1.709  1.00  0.00     0.718 C 
HETATM    3  N   UNL     1      41.240 -13.714   0.837  1.00  0.00    -0.157 N 
HETATM    4  C   UNL     1      40.218 -14.152  -0.009  1.00  0.00     0.243 C 
HETATM    5  O   UNL     1      39.759 -15.289  -0.042  1.00  0.00    -0.272 OA
HETATM    6  N   UNL     1      42.951 -13.736   2.434  1.00  0.00    -0.223 N 
HETATM    7  H   UNL     1      41.484 -12.744   0.777  1.00  0.00     0.187 HD
HETATM    8  H   UNL     1      43.312 -14.314   3.198  1.00  0.00     0.177 HD
ENDROOT
BRANCH   1   9
HETATM    9  C   UNL     1      42.608 -16.540   2.601  1.00  0.00     0.764 A 
HETATM   10  N   UNL     1      43.017 -16.061   3.794  1.00  0.00    -0.065 NA
HETATM   11  C   UNL     1      43.718 -16.908   4.574  1.00  0.00     0.051 A 
HETATM   12  C   UNL     1      44.166 -16.401   5.911  1.00  0.00     0.071 C 
HETATM   13  C   UNL     1      44.025 -18.195   4.180  1.00  0.00     0.054 A 
HETATM   14  C   UNL     1      43.571 -18.588   2.936  1.00  0.00     0.051 A 
HETATM   15  N   UNL     1      42.859 -17.772   2.138  1.00  0.00    -0.065 NA
HETATM   16  C   UNL     1      43.861 -19.966   2.424  1.00  0.00     0.071 C 
ENDBRANCH   1   9
BRANCH   6  17
HETATM   17  C   UNL     1      42.931 -12.317   2.738  1.00  0.00     0.142 C 
BRANCH  17  18
HETATM   18  C   UNL     1      44.080 -11.962   3.688  1.00  0.00     0.061 C 
BRANCH  18  19
HETATM   19  C   UNL     1      43.601 -11.652   5.070  1.00  0.00    -0.029 A 
HETATM   20  C   UNL     1      44.413 -11.275   6.188  1.00  0.00    -0.002 A 
HETATM   21  C   UNL     1      43.565 -11.090   7.278  1.00  0.00     0.042 A 
HETATM   22  C   UNL     1      45.798 -11.079   6.373  1.00  0.00     0.014 A 
HETATM   23  C   UNL     1      44.029 -10.719   8.546  1.00  0.00     0.030 A 
HETATM   24  N   UNL     1      42.285 -11.342   6.843  1.00  0.00    -0.365 N 
HETATM   25  C   UNL     1      45.405 -10.534   8.703  1.00  0.00     0.002 A 
HETATM   26  C   UNL     1      46.280 -10.709   7.634  1.00  0.00     0.001 A 
HETATM   27  H   UNL     1      41.461 -11.290   7.425  1.00  0.00     0.165 HD
HETATM   28  C   UNL     1      42.294 -11.679   5.515  1.00  0.00     0.096 A 
ENDBRANCH  18  19
ENDBRANCH  17  18
ENDBRANCH   6  17
BRANCH   4  29
HETATM   29  C   UNL     1      39.626 -13.027  -0.893  1.00  0.00     0.031 C 
HETATM   30  C   UNL     1      40.736 -12.308  -1.676  1.00  0.00     0.025 C 
HETATM   31  C   UNL     1      38.641 -13.639  -1.906  1.00  0.00     0.025 C 
HETATM   32  C   UNL     1      38.864 -12.026  -0.011  1.00  0.00     0.025 C 
ENDBRANCH   4  29
TORSDOF 5
ENDMDL
MODEL 5
REMARK VINA RESULT:      -8.7      1.059      2.407
REMARK  5 active torsions:
REMARK  status: ('A' for Active; 'I' for Inactive)
REMARK    1  A    between atoms: C_4  and  N_5 
REMARK       I    between atoms: C_6  and  N_7 
REMARK       I    between atoms: C_6  and  N_14 
REMARK       I    between atoms: N_7  and  C_8 
REMARK    2  A    between atoms: C_8  and  C_9 
REMARK    3  A    between atoms: N_14  and  C_15 
REMARK    4  A    between atoms: C_15  and  C_16 
REMARK    5  A    between atoms: C_16  and  C_17 
ROOT
HETATM    1  N   UNL     1      40.172 -12.712   1.093  1.00  0.00     0.130 NA
HETATM    2  C   UNL     1      41.149 -13.255   1.734  1.00  0.00     0.718 C 
HETATM    3  N   UNL     1      41.197 -13.114   3.110  1.00  0.00    -0.157 N 
HETATM    4  C   UNL     1      40.296 -12.470   3.960  1.00  0.00     0.243 C 
HETATM    5  O   UNL     1      39.216 -11.994   3.626  1.00  0.00    -0.272 OA
HETATM    6  N   UNL     1      42.180 -13.961   1.162  1.00  0.00    -0.223 N 
HETATM    7  H   UNL     1      42.025 -13.486   3.535  1.00  0.00     0.187 HD
HETATM    8  H   UNL     1      41.940 -14.204   0.196  1.00  0.00     0.177 HD
ENDROOT
BRANCH   1   9
HETATM    9  C   UNL     1      40.055 -12.785  -0.290  1.00  0.00     0.764 A 
HETATM   10  N   UNL     1      40.529 -11.768  -1.042  1.00  0.00    -0.065 NA
HETATM   11  C   UNL     1      40.421 -11.909  -2.378  1.00  0.00     0.051 A 
HETATM   12  C   UNL     1      40.958 -10.799  -3.231  1.00  0.00     0.071 C 
HETATM   13  C   UNL     1      39.845 -13.018  -2.963  1.00  0.00     0.054 A 
HETATM   14  C   UNL     1      39.381 -13.999  -2.108  1.00  0.00     0.051 A 
HETATM   15  N   UNL     1      39.482 -13.896  -0.770  1.00  0.00    -0.065 NA
HETATM   16  C   UNL     1      38.736 -15.237  -2.653  1.00  0.00     0.071 C 
ENDBRANCH   1   9
BRANCH   6  17
HETATM   17  C   UNL     1      43.049 -14.929   1.806  1.00  0.00     0.142 C 
BRANCH  17  18
HETATM   18  C   UNL     1      42.393 -16.315   1.804  1.00  0.00     0.061 C 
BRANCH  18  19
HETATM   19  C   UNL     1      43.023 -17.243   2.791  1.00  0.00    -0.029 A 
HETATM   20  C   UNL     1      42.938 -17.154   4.218  1.00  0.00    -0.002 A 
HETATM   21  C   UNL     1      43.676 -18.212   4.749  1.00  0.00     0.042 A 
HETATM   22  C   UNL     1      42.302 -16.264   5.110  1.00  0.00     0.014 A 
HETATM   23  C   UNL     1      43.812 -18.426   6.126  1.00  0.00     0.030 A 
HETATM   24  N   UNL     1      44.189 -18.920   3.687  1.00  0.00    -0.365 N 
HETATM   25  C   UNL     1      43.175 -17.528   6.987  1.00  0.00     0.002 A 
HETATM   26  C   UNL     1      42.429 -16.462   6.489  1.00  0.00     0.001 A 
HETATM   27  H   UNL     1      44.773 -19.740   3.775  1.00  0.00     0.165 HD
HETATM   28  C   UNL     1      43.801 -18.348   2.505  1.00  0.00     0.096 A 
ENDBRANCH  18  19
ENDBRANCH  17  18
ENDBRANCH   6  17
BRANCH   4  29
HETATM   29  C   UNL     1      40.746 -12.463   5.442  1.00  0.00     0.031 C 
HETATM   30  C   UNL     1      40.333 -11.153   6.131  1.00  0.00     0.025 C 
HETATM   31  C   UNL     1      40.073 -13.632   6.185  1.00  0.00     0.025 C 
HETATM   32  C   UNL     1      42.269 -12.647   5.518  1.00  0.00     0.025 C 
ENDBRANCH   4  29
TORSDOF 5
ENDMDL
MODEL 6
REMARK VINA RESULT:      -8.7      2.543      7.168
REMARK  5 active torsions:
REMARK  status: ('A' for Active; 'I' for Inactive)
REMARK    1  A    between atoms: C_4  and  N_5 
REMARK       I    between atoms: C_6  and  N_7 
REMARK       I    between atoms: C_6  and  N_14 
REMARK       I    between atoms: N_7  and  C_8 
REMARK    2  A    between atoms: C_8  and  C_9 
REMARK    3  A    between atoms: N_14  and  C_15 
REMARK    4  A    between atoms: C_15  and  C_16 
REMARK    5  A    between atoms: C_16  and  C_17 
ROOT
HETATM    1  N   UNL     1      41.783 -15.801   1.740  1.00  0.00     0.130 NA
HETATM    2  C   UNL     1      41.973 -14.527   1.675  1.00  0.00     0.718 C 
HETATM    3  N   UNL     1      41.194 -13.786   0.804  1.00  0.00    -0.157 N 
HETATM    4  C   UNL     1      40.165 -14.213  -0.037  1.00  0.00     0.243 C 
HETATM    5  O   UNL     1      39.691 -15.345  -0.067  1.00  0.00    -0.272 OA
HETATM    6  N   UNL     1      42.911 -13.826   2.394  1.00  0.00    -0.223 N 
HETATM    7  H   UNL     1      41.450 -12.819   0.741  1.00  0.00     0.187 HD
HETATM    8  H   UNL     1      43.267 -14.407   3.159  1.00  0.00     0.177 HD
ENDROOT
BRANCH   1   9
HETATM    9  C   UNL     1      42.532 -16.625   2.570  1.00  0.00     0.764 A 
HETATM   10  N   UNL     1      42.822 -17.878   2.161  1.00  0.00    -0.065 NA
HETATM   11  C   UNL     1      43.582 -18.621   2.991  1.00  0.00     0.051 A 
HETATM   12  C   UNL     1      43.930 -20.009   2.546  1.00  0.00     0.071 C 
HETATM   13  C   UNL     1      44.034 -18.146   4.206  1.00  0.00     0.054 A 
HETATM   14  C   UNL     1      43.675 -16.855   4.539  1.00  0.00     0.051 A 
HETATM   15  N   UNL     1      42.927 -16.082   3.730  1.00  0.00    -0.065 NA
HETATM   16  C   UNL     1      44.117 -16.257   5.840  1.00  0.00     0.071 C 
ENDBRANCH   1   9
BRANCH   6  17
HETATM   17  C   UNL     1      42.909 -12.406   2.696  1.00  0.00     0.142 C 
BRANCH  17  18
HETATM   18  C   UNL     1      44.059 -12.065   3.650  1.00  0.00     0.061 C 
BRANCH  18  19
HETATM   19  C   UNL     1      43.577 -11.724   5.023  1.00  0.00    -0.029 A 
HETATM   20  C   UNL     1      44.387 -11.334   6.137  1.00  0.00    -0.002 A 
HETATM   21  C   UNL     1      43.535 -11.119   7.220  1.00  0.00     0.042 A 
HETATM   22  C   UNL     1      45.773 -11.147   6.326  1.00  0.00     0.014 A 
HETATM   23  C   UNL     1      43.997 -10.728   8.483  1.00  0.00     0.030 A 
HETATM   24  N   UNL     1      42.255 -11.367   6.783  1.00  0.00    -0.365 N 
HETATM   25  C   UNL     1      45.374 -10.553   8.643  1.00  0.00     0.002 A 
HETATM   26  C   UNL     1      46.252 -10.757   7.581  1.00  0.00     0.001 A 
HETATM   27  H   UNL     1      41.429 -11.296   7.361  1.00  0.00     0.165 HD
HETATM   28  C   UNL     1      42.267 -11.730   5.463  1.00  0.00     0.096 A 
ENDBRANCH  18  19
ENDBRANCH  17  18
ENDBRANCH   6  17
BRANCH   4  29
HETATM   29  C   UNL     1      39.584 -13.083  -0.923  1.00  0.00     0.031 C 
HETATM   30  C   UNL     1      40.708 -12.331  -1.653  1.00  0.00     0.025 C 
HETATM   31  C   UNL     1      38.646 -13.694  -1.981  1.00  0.00     0.025 C 
HETATM   32  C   UNL     1      38.773 -12.112  -0.051  1.00  0.00     0.025 C 
ENDBRANCH   4  29
TORSDOF 5
ENDMDL
MODEL 7
REMARK VINA RESULT:      -8.6      2.751      6.430
REMARK  5 active torsions:
REMARK  status: ('A' for Active; 'I' for Inactive)
REMARK    1  A    between atoms: C_4  and  N_5 
REMARK       I    between atoms: C_6  and  N_7 
REMARK       I    between atoms: C_6  and  N_14 
REMARK       I    between atoms: N_7  and  C_8 
REMARK    2  A    between atoms: C_8  and  C_9 
REMARK    3  A    between atoms: N_14  and  C_15 
REMARK    4  A    between atoms: C_15  and  C_16 
REMARK    5  A    between atoms: C_16  and  C_17 
ROOT
HETATM    1  N   UNL     1      42.604 -11.651   5.111  1.00  0.00     0.130 NA
HETATM    2  C   UNL     1      42.183 -12.870   5.113  1.00  0.00     0.718 C 
HETATM    3  N   UNL     1      41.531 -13.345   3.989  1.00  0.00    -0.157 N 
HETATM    4  C   UNL     1      41.268 -12.694   2.782  1.00  0.00     0.243 C 
HETATM    5  O   UNL     1      41.681 -11.582   2.468  1.00  0.00    -0.272 OA
HETATM    6  N   UNL     1      42.309 -13.753   6.159  1.00  0.00    -0.223 N 
HETATM    7  H   UNL     1      41.156 -14.269   4.089  1.00  0.00     0.187 HD
HETATM    8  H   UNL     1      42.990 -13.395   6.835  1.00  0.00     0.177 HD
ENDROOT
BRANCH   1   9
HETATM    9  C   UNL     1      43.249 -11.084   6.204  1.00  0.00     0.764 A 
HETATM   10  N   UNL     1      42.511 -10.485   7.162  1.00  0.00    -0.065 NA
HETATM   11  C   UNL     1      43.187  -9.984   8.216  1.00  0.00     0.051 A 
HETATM   12  C   UNL     1      42.384  -9.332   9.300  1.00  0.00     0.071 C 
HETATM   13  C   UNL     1      44.562 -10.056   8.316  1.00  0.00     0.054 A 
HETATM   14  C   UNL     1      45.228 -10.678   7.279  1.00  0.00     0.051 A 
HETATM   15  N   UNL     1      44.584 -11.199   6.218  1.00  0.00    -0.065 NA
HETATM   16  C   UNL     1      46.721 -10.798   7.300  1.00  0.00     0.071 C 
ENDBRANCH   1   9
BRANCH   6  17
HETATM   17  C   UNL     1      42.255 -15.202   6.099  1.00  0.00     0.142 C 
BRANCH  17  18
HETATM   18  C   UNL     1      43.613 -15.765   5.664  1.00  0.00     0.061 C 
BRANCH  18  19
HETATM   19  C   UNL     1      43.516 -16.580   4.415  1.00  0.00    -0.029 A 
HETATM   20  C   UNL     1      43.677 -17.999   4.309  1.00  0.00    -0.002 A 
HETATM   21  C   UNL     1      43.516 -18.340   2.967  1.00  0.00     0.042 A 
HETATM   22  C   UNL     1      43.950 -19.028   5.236  1.00  0.00     0.014 A 
HETATM   23  C   UNL     1      43.615 -19.658   2.502  1.00  0.00     0.030 A 
HETATM   24  N   UNL     1      43.265 -17.175   2.280  1.00  0.00    -0.365 N 
HETATM   25  C   UNL     1      43.889 -20.657   3.440  1.00  0.00     0.002 A 
HETATM   26  C   UNL     1      44.054 -20.350   4.788  1.00  0.00     0.001 A 
HETATM   27  H   UNL     1      43.113 -17.120   1.283  1.00  0.00     0.165 HD
HETATM   28  C   UNL     1      43.260 -16.110   3.141  1.00  0.00     0.096 A 
ENDBRANCH  18  19
ENDBRANCH  17  18
ENDBRANCH   6  17
BRANCH   4  29
HETATM   29  C   UNL     1      40.439 -13.546   1.790  1.00  0.00     0.031 C 
HETATM   30  C   UNL     1      39.790 -14.740   2.507  1.00  0.00     0.025 C 
HETATM   31  C   UNL     1      39.319 -12.680   1.185  1.00  0.00     0.025 C 
HETATM   32  C   UNL     1      41.346 -14.039   0.652  1.00  0.00     0.025 C 
ENDBRANCH   4  29
TORSDOF 5
ENDMDL
MODEL 8
REMARK VINA RESULT:      -8.4      3.903      7.814
REMARK  5 active torsions:
REMARK  status: ('A' for Active; 'I' for Inactive)
REMARK    1  A    between atoms: C_4  and  N_5 
REMARK       I    between atoms: C_6  and  N_7 
REMARK       I    between atoms: C_6  and  N_14 
REMARK       I    between atoms: N_7  and  C_8 
REMARK    2  A    between atoms: C_8  and  C_9 
REMARK    3  A    between atoms: N_14  and  C_15 
REMARK    4  A    between atoms: C_15  and  C_16 
REMARK    5  A    between atoms: C_16  and  C_17 
ROOT
HETATM    1  N   UNL     1      42.515 -10.118   6.741  1.00  0.00     0.130 NA
HETATM    2  C   UNL     1      42.754 -11.334   6.382  1.00  0.00     0.718 C 
HETATM    3  N   UNL     1      42.462 -11.707   5.082  1.00  0.00    -0.157 N 
HETATM    4  C   UNL     1      41.953 -10.934   4.036  1.00  0.00     0.243 C 
HETATM    5  O   UNL     1      41.771  -9.721   4.070  1.00  0.00    -0.272 OA
HETATM    6  N   UNL     1      43.264 -12.317   7.194  1.00  0.00    -0.223 N 
HETATM    7  H   UNL     1      42.591 -12.683   4.893  1.00  0.00     0.187 HD
HETATM    8  H   UNL     1      43.655 -11.898   8.043  1.00  0.00     0.177 HD
ENDROOT
BRANCH   1   9
HETATM    9  C   UNL     1      42.756  -9.662   8.031  1.00  0.00     0.764 A 
HETATM   10  N   UNL     1      43.986  -9.822   8.564  1.00  0.00    -0.065 NA
HETATM   11  C   UNL     1      44.173  -9.329   9.805  1.00  0.00     0.051 A 
HETATM   12  C   UNL     1      45.537  -9.480  10.406  1.00  0.00     0.071 C 
HETATM   13  C   UNL     1      43.165  -8.706  10.514  1.00  0.00     0.054 A 
HETATM   14  C   UNL     1      41.939  -8.600   9.887  1.00  0.00     0.051 A 
HETATM   15  N   UNL     1      41.721  -9.072   8.645  1.00  0.00    -0.065 NA
HETATM   16  C   UNL     1      40.786  -7.944  10.582  1.00  0.00     0.071 C 
ENDBRANCH   1   9
BRANCH   6  17
HETATM   17  C   UNL     1      43.938 -13.536   6.785  1.00  0.00     0.142 C 
BRANCH  17  18
HETATM   18  C   UNL     1      43.091 -14.759   7.151  1.00  0.00     0.061 C 
BRANCH  18  19
HETATM   19  C   UNL     1      42.039 -15.049   6.129  1.00  0.00    -0.029 A 
HETATM   20  C   UNL     1      42.237 -15.679   4.859  1.00  0.00    -0.002 A 
HETATM   21  C   UNL     1      40.997 -15.743   4.225  1.00  0.00     0.042 A 
HETATM   22  C   UNL     1      43.364 -16.199   4.186  1.00  0.00     0.014 A 
HETATM   23  C   UNL     1      40.824 -16.299   2.951  1.00  0.00     0.030 A 
HETATM   24  N   UNL     1      40.078 -15.176   5.076  1.00  0.00    -0.365 N 
HETATM   25  C   UNL     1      41.956 -16.804   2.306  1.00  0.00     0.002 A 
HETATM   26  C   UNL     1      43.209 -16.757   2.912  1.00  0.00     0.001 A 
HETATM   27  H   UNL     1      39.093 -15.080   4.873  1.00  0.00     0.165 HD
HETATM   28  C   UNL     1      40.692 -14.756   6.225  1.00  0.00     0.096 A 
ENDBRANCH  18  19
ENDBRANCH  17  18
ENDBRANCH   6  17
BRANCH   4  29
HETATM   29  C   UNL     1      41.691 -11.743   2.743  1.00  0.00     0.031 C 
HETATM   30  C   UNL     1      40.285 -12.364   2.763  1.00  0.00     0.025 C 
HETATM   31  C   UNL     1      41.786 -10.805   1.525  1.00  0.00     0.025 C 
HETATM   32  C   UNL     1      42.754 -12.842   2.599  1.00  0.00     0.025 C 
ENDBRANCH   4  29
TORSDOF 5
ENDMDL
MODEL 9
REMARK VINA RESULT:      -8.4      3.071      6.868
REMARK  5 active torsions:
REMARK  status: ('A' for Active; 'I' for Inactive)
REMARK    1  A    between atoms: C_4  and  N_5 
REMARK       I    between atoms: C_6  and  N_7 
REMARK       I    between atoms: C_6  and  N_14 
REMARK       I    between atoms: N_7  and  C_8 
REMARK    2  A    between atoms: C_8  and  C_9 
REMARK    3  A    between atoms: N_14  and  C_15 
REMARK    4  A    between atoms: C_15  and  C_16 
REMARK    5  A    between atoms: C_16  and  C_17 
ROOT
HETATM    1  N   UNL     1      42.195 -10.967   5.631  1.00  0.00     0.130 NA
HETATM    2  C   UNL     1      41.857 -12.211   5.614  1.00  0.00     0.718 C 
HETATM    3  N   UNL     1      41.326 -12.735   4.448  1.00  0.00    -0.157 N 
HETATM    4  C   UNL     1      41.114 -12.109   3.218  1.00  0.00     0.243 C 
HETATM    5  O   UNL     1      41.475 -10.974   2.924  1.00  0.00    -0.272 OA
HETATM    6  N   UNL     1      41.961 -13.078   6.675  1.00  0.00    -0.223 N 
HETATM    7  H   UNL     1      41.006 -13.682   4.529  1.00  0.00     0.187 HD
HETATM    8  H   UNL     1      42.563 -12.672   7.397  1.00  0.00     0.177 HD
ENDROOT
BRANCH   1   9
HETATM    9  C   UNL     1      42.715 -10.352   6.763  1.00  0.00     0.764 A 
HETATM   10  N   UNL     1      44.053 -10.338   6.945  1.00  0.00    -0.065 NA
HETATM   11  C   UNL     1      44.504  -9.697   8.042  1.00  0.00     0.051 A 
HETATM   12  C   UNL     1      45.987  -9.654   8.251  1.00  0.00     0.071 C 
HETATM   13  C   UNL     1      43.656  -9.097   8.951  1.00  0.00     0.054 A 
HETATM   14  C   UNL     1      42.303  -9.175   8.682  1.00  0.00     0.051 A 
HETATM   15  N   UNL     1      41.820  -9.797   7.591  1.00  0.00    -0.065 NA
HETATM   16  C   UNL     1      41.307  -8.557   9.615  1.00  0.00     0.071 C 
ENDBRANCH   1   9
BRANCH   6  17
HETATM   17  C   UNL     1      42.008 -14.528   6.627  1.00  0.00     0.142 C 
BRANCH  17  18
HETATM   18  C   UNL     1      43.462 -15.008   6.544  1.00  0.00     0.061 C 
BRANCH  18  19
HETATM   19  C   UNL     1      43.581 -16.350   5.898  1.00  0.00    -0.029 A 
HETATM   20  C   UNL     1      43.476 -16.634   4.499  1.00  0.00    -0.002 A 
HETATM   21  C   UNL     1      43.641 -18.009   4.336  1.00  0.00     0.042 A 
HETATM   22  C   UNL     1      43.249 -15.844   3.351  1.00  0.00     0.014 A 
HETATM   23  C   UNL     1      43.591 -18.637   3.085  1.00  0.00     0.030 A 
HETATM   24  N   UNL     1      43.841 -18.544   5.587  1.00  0.00    -0.365 N 
HETATM   25  C   UNL     1      43.362 -17.832   1.966  1.00  0.00     0.002 A 
HETATM   26  C   UNL     1      43.195 -16.455   2.093  1.00  0.00     0.001 A 
HETATM   27  H   UNL     1      43.984 -19.526   5.774  1.00  0.00     0.165 HD
HETATM   28  C   UNL     1      43.810 -17.555   6.535  1.00  0.00     0.096 A 
ENDBRANCH  18  19
ENDBRANCH  17  18
ENDBRANCH   6  17
BRANCH   4  29
HETATM   29  C   UNL     1      40.422 -13.021   2.175  1.00  0.00     0.031 C 
HETATM   30  C   UNL     1      39.198 -12.319   1.564  1.00  0.00     0.025 C 
HETATM   31  C   UNL     1      41.411 -13.339   1.039  1.00  0.00     0.025 C 
HETATM   32  C   UNL     1      40.001 -14.339   2.842  1.00  0.00     0.025 C 
ENDBRANCH   4  29
TORSDOF 5
ENDMDL
MODEL 10
REMARK VINA RESULT:      -8.3      1.907      6.182
REMARK  5 active torsions:
REMARK  status: ('A' for Active; 'I' for Inactive)
REMARK    1  A    between atoms: C_4  and  N_5 
REMARK       I    between atoms: C_6  and  N_7 
REMARK       I    between atoms: C_6  and  N_14 
REMARK       I    between atoms: N_7  and  C_8 
REMARK    2  A    between atoms: C_8  and  C_9 
REMARK    3  A    between atoms: N_14  and  C_15 
REMARK    4  A    between atoms: C_15  and  C_16 
REMARK    5  A    between atoms: C_16  and  C_17 
ROOT
HETATM    1  N   UNL     1      42.031 -15.812   1.648  1.00  0.00     0.130 NA
HETATM    2  C   UNL     1      42.311 -14.553   1.643  1.00  0.00     0.718 C 
HETATM    3  N   UNL     1      41.551 -13.710   0.852  1.00  0.00    -0.157 N 
HETATM    4  C   UNL     1      40.456 -14.014   0.040  1.00  0.00     0.243 C 
HETATM    5  O   UNL     1      39.900 -15.106  -0.027  1.00  0.00    -0.272 OA
HETATM    6  N   UNL     1      43.329 -13.963   2.353  1.00  0.00    -0.223 N 
HETATM    7  H   UNL     1      41.875 -12.762   0.828  1.00  0.00     0.187 HD
HETATM    8  H   UNL     1      43.676 -14.610   3.066  1.00  0.00     0.177 HD
ENDROOT
BRANCH   1   9
HETATM    9  C   UNL     1      42.755 -16.733   2.395  1.00  0.00     0.764 A 
HETATM   10  N   UNL     1      43.320 -16.337   3.555  1.00  0.00    -0.065 NA
HETATM   11  C   UNL     1      43.979 -17.281   4.256  1.00  0.00     0.051 A 
HETATM   12  C   UNL     1      44.598 -16.865   5.556  1.00  0.00     0.071 C 
HETATM   13  C   UNL     1      44.096 -18.585   3.816  1.00  0.00     0.054 A 
HETATM   14  C   UNL     1      43.492 -18.889   2.612  1.00  0.00     0.051 A 
HETATM   15  N   UNL     1      42.816 -17.974   1.892  1.00  0.00    -0.065 NA
HETATM   16  C   UNL     1      43.570 -20.277   2.054  1.00  0.00     0.071 C 
ENDBRANCH   1   9
BRANCH   6  17
HETATM   17  C   UNL     1      43.446 -12.566   2.730  1.00  0.00     0.142 C 
BRANCH  17  18
HETATM   18  C   UNL     1      42.386 -12.210   3.778  1.00  0.00     0.061 C 
BRANCH  18  19
HETATM   19  C   UNL     1      42.559 -12.980   5.047  1.00  0.00    -0.029 A 
HETATM   20  C   UNL     1      41.817 -14.137   5.449  1.00  0.00    -0.002 A 
HETATM   21  C   UNL     1      42.294 -14.529   6.698  1.00  0.00     0.042 A 
HETATM   22  C   UNL     1      40.774 -14.887   4.863  1.00  0.00     0.014 A 
HETATM   23  C   UNL     1      41.784 -15.632   7.395  1.00  0.00     0.030 A 
HETATM   24  N   UNL     1      43.291 -13.646   7.045  1.00  0.00    -0.365 N 
HETATM   25  C   UNL     1      40.751 -16.355   6.793  1.00  0.00     0.002 A 
HETATM   26  C   UNL     1      40.252 -15.992   5.544  1.00  0.00     0.001 A 
HETATM   27  H   UNL     1      43.814 -13.685   7.909  1.00  0.00     0.165 HD
HETATM   28  C   UNL     1      43.460 -12.712   6.059  1.00  0.00     0.096 A 
ENDBRANCH  18  19
ENDBRANCH  17  18
ENDBRANCH   6  17
BRANCH   4  29
HETATM   29  C   UNL     1      39.921 -12.797  -0.754  1.00  0.00     0.031 C 
HETATM   30  C   UNL     1      39.288 -13.246  -2.080  1.00  0.00     0.025 C 
HETATM   31  C   UNL     1      38.842 -12.080   0.078  1.00  0.00     0.025 C 
HETATM   32  C   UNL     1      41.069 -11.812  -1.020  1.00  0.00     0.025 C 
ENDBRANCH   4  29
TORSDOF 5
ENDMDL
