MODEL 1
REMARK VINA RESULT:      -8.6      0.000      0.000
REMARK  5 active torsions:
REMARK  status: ('A' for Active; 'I' for Inactive)
REMARK    1  A    between atoms: O_2  and  C_3 
REMARK    2  A    between atoms: C_10  and  C_11 
REMARK    3  A    between atoms: C_11  and  C_12 
REMARK       I    between atoms: C_12  and  N_13 
REMARK    4  A    between atoms: N_13  and  C_14 
REMARK    5  A    between atoms: C_21  and  O_22 
ROOT
HETATM    1  C   UNL     1      41.329 -14.953   1.264  1.00  0.00     0.226 C 
HETATM    2  N   UNL     1      41.265 -13.793   0.496  1.00  0.00    -0.326 N 
HETATM    3  O   UNL     1      40.366 -15.598   1.665  1.00  0.00    -0.273 OA
HETATM    4  H   UNL     1      42.109 -13.589  -0.024  1.00  0.00     0.169 HD
ENDROOT
BRANCH   1   5
HETATM    5  C   UNL     1      42.775 -15.347   1.563  1.00  0.00     0.144 C 
BRANCH   5   6
HETATM    6  C   UNL     1      43.040 -15.744   2.982  1.00  0.00    -0.021 A 
HETATM    7  C   UNL     1      43.378 -17.045   3.484  1.00  0.00     0.001 A 
HETATM    8  C   UNL     1      43.532 -18.321   2.899  1.00  0.00     0.051 A 
HETATM    9  C   UNL     1      43.575 -16.926   4.859  1.00  0.00     0.043 A 
HETATM   10  C   UNL     1      43.856 -19.428   3.696  1.00  0.00     0.069 A 
HETATM   11  C   UNL     1      44.055 -19.266   5.066  1.00  0.00     0.039 A 
HETATM   12  C   UNL     1      43.919 -18.011   5.672  1.00  0.00     0.033 A 
HETATM   13  N   UNL     1      43.366 -15.608   5.186  1.00  0.00    -0.365 N 
HETATM   14  H   UNL     1      43.437 -15.232   6.122  1.00  0.00     0.165 HD
HETATM   15  C   UNL     1      43.055 -14.885   4.067  1.00  0.00     0.097 A 
BRANCH  10  16
HETATM   16  O   UNL     1      43.961 -20.608   3.009  1.00  0.00    -0.356 OA
HETATM   17  C   UNL     1      43.583 -20.581   1.637  1.00  0.00     0.210 C 
ENDBRANCH  10  16
ENDBRANCH   5   6
ENDBRANCH   1   5
BRANCH   2  18
HETATM   18  C   UNL     1      40.098 -13.138   0.018  1.00  0.00     0.047 A 
HETATM   19  C   UNL     1      39.306 -13.522  -1.105  1.00  0.00     0.022 A 
HETATM   20  C   UNL     1      38.215 -12.700  -1.502  1.00  0.00     0.102 A 
HETATM   21  C   UNL     1      39.467 -14.719  -1.842  1.00  0.00     0.017 A 
HETATM   22  N   UNL     1      37.445 -12.994  -2.577  1.00  0.00    -0.257 NA
HETATM   23  C   UNL     1      37.914 -11.558  -0.741  1.00  0.00     0.097 A 
HETATM   24  C   UNL     1      37.688 -14.116  -3.277  1.00  0.00     0.117 A 
HETATM   25  C   UNL     1      38.670 -15.015  -2.942  1.00  0.00     0.020 A 
HETATM   26  C   UNL     1      38.635 -11.244   0.411  1.00  0.00     0.041 A 
HETATM   27  C   UNL     1      39.715 -12.029   0.785  1.00  0.00     0.033 A 
BRANCH  23  28
HETATM   28  O   UNL     1      36.823 -10.815  -1.143  1.00  0.00    -0.354 OA
HETATM   29  C   UNL     1      36.318  -9.882  -0.197  1.00  0.00     0.210 C 
ENDBRANCH  23  28
ENDBRANCH   2  18
TORSDOF 5
ENDMDL
MODEL 2
REMARK VINA RESULT:      -8.4      1.640      2.752
REMARK  5 active torsions:
REMARK  status: ('A' for Active; 'I' for Inactive)
REMARK    1  A    between atoms: O_2  and  C_3 
REMARK    2  A    between atoms: C_10  and  C_11 
REMARK    3  A    between atoms: C_11  and  C_12 
REMARK       I    between atoms: C_12  and  N_13 
REMARK    4  A    between atoms: N_13  and  C_14 
REMARK    5  A    between atoms: C_21  and  O_22 
ROOT
HETATM    1  C   UNL     1      41.612 -15.223   1.447  1.00  0.00     0.226 C 
HETATM    2  N   UNL     1      41.517 -14.129   0.589  1.00  0.00    -0.326 N 
HETATM    3  O   UNL     1      40.683 -15.727   2.067  1.00  0.00    -0.273 OA
HETATM    4  H   UNL     1      42.269 -14.058  -0.083  1.00  0.00     0.169 HD
ENDROOT
BRANCH   1   5
HETATM    5  C   UNL     1      43.047 -15.740   1.535  1.00  0.00     0.144 C 
BRANCH   5   6
HETATM    6  C   UNL     1      43.282 -16.774   2.591  1.00  0.00    -0.021 A 
HETATM    7  C   UNL     1      43.350 -16.582   4.012  1.00  0.00     0.001 A 
HETATM    8  C   UNL     1      43.273 -15.458   4.862  1.00  0.00     0.051 A 
HETATM    9  C   UNL     1      43.541 -17.834   4.596  1.00  0.00     0.043 A 
HETATM   10  C   UNL     1      43.404 -15.611   6.250  1.00  0.00     0.069 A 
HETATM   11  C   UNL     1      43.583 -16.881   6.796  1.00  0.00     0.039 A 
HETATM   12  C   UNL     1      43.654 -18.016   5.978  1.00  0.00     0.033 A 
HETATM   13  N   UNL     1      43.587 -18.754   3.577  1.00  0.00    -0.365 N 
HETATM   14  H   UNL     1      43.722 -19.748   3.708  1.00  0.00     0.165 HD
HETATM   15  C   UNL     1      43.423 -18.133   2.369  1.00  0.00     0.097 A 
BRANCH  10  16
HETATM   16  O   UNL     1      43.326 -14.442   6.958  1.00  0.00    -0.356 OA
HETATM   17  C   UNL     1      43.409 -13.237   6.206  1.00  0.00     0.210 C 
ENDBRANCH  10  16
ENDBRANCH   5   6
ENDBRANCH   1   5
BRANCH   2  18
HETATM   18  C   UNL     1      40.346 -13.396   0.253  1.00  0.00     0.047 A 
HETATM   19  C   UNL     1      39.490 -13.626  -0.865  1.00  0.00     0.022 A 
HETATM   20  C   UNL     1      38.404 -12.740  -1.105  1.00  0.00     0.102 A 
HETATM   21  C   UNL     1      39.582 -14.730  -1.746  1.00  0.00     0.017 A 
HETATM   22  N   UNL     1      37.575 -12.886  -2.167  1.00  0.00    -0.257 NA
HETATM   23  C   UNL     1      38.172 -11.690  -0.201  1.00  0.00     0.097 A 
HETATM   24  C   UNL     1      37.753 -13.922  -3.006  1.00  0.00     0.117 A 
HETATM   25  C   UNL     1      38.724 -14.875  -2.831  1.00  0.00     0.020 A 
HETATM   26  C   UNL     1      38.956 -11.532   0.942  1.00  0.00     0.041 A 
HETATM   27  C   UNL     1      40.032 -12.380   1.164  1.00  0.00     0.033 A 
BRANCH  23  28
HETATM   28  O   UNL     1      37.084 -10.881  -0.456  1.00  0.00    -0.354 OA
HETATM   29  C   UNL     1      36.473 -10.280   0.678  1.00  0.00     0.210 C 
ENDBRANCH  23  28
ENDBRANCH   2  18
TORSDOF 5
ENDMDL
MODEL 3
REMARK VINA RESULT:      -8.3      2.253      8.513
REMARK  5 active torsions:
REMARK  status: ('A' for Active; 'I' for Inactive)
REMARK    1  A    between atoms: O_2  and  C_3 
REMARK    2  A    between atoms: C_10  and  C_11 
REMARK    3  A    between atoms: C_11  and  C_12 
REMARK       I    between atoms: C_12  and  N_13 
REMARK    4  A    between atoms: N_13  and  C_14 
REMARK    5  A    between atoms: C_21  and  O_22 
ROOT
HETATM    1  C   UNL     1      40.048 -14.880   2.308  1.00  0.00     0.226 C 
HETATM    2  N   UNL     1      41.237 -14.910   3.033  1.00  0.00    -0.326 N 
HETATM    3  O   UNL     1      39.488 -15.851   1.813  1.00  0.00    -0.273 OA
HETATM    4  H   UNL     1      41.376 -14.115   3.643  1.00  0.00     0.169 HD
ENDROOT
BRANCH   1   5
HETATM    5  C   UNL     1      39.500 -13.458   2.193  1.00  0.00     0.144 C 
BRANCH   5   6
HETATM    6  C   UNL     1      40.250 -12.567   1.252  1.00  0.00    -0.021 A 
HETATM    7  C   UNL     1      40.292 -12.637  -0.181  1.00  0.00     0.001 A 
HETATM    8  C   UNL     1      39.735 -13.505  -1.145  1.00  0.00     0.051 A 
HETATM    9  C   UNL     1      41.082 -11.578  -0.630  1.00  0.00     0.043 A 
HETATM   10  C   UNL     1      39.995 -13.304  -2.509  1.00  0.00     0.069 A 
HETATM   11  C   UNL     1      40.781 -12.229  -2.918  1.00  0.00     0.039 A 
HETATM   12  C   UNL     1      41.339 -11.346  -1.985  1.00  0.00     0.033 A 
HETATM   13  N   UNL     1      41.506 -10.890   0.482  1.00  0.00    -0.365 N 
HETATM   14  H   UNL     1      42.102 -10.073   0.456  1.00  0.00     0.165 HD
HETATM   15  C   UNL     1      41.005 -11.466   1.616  1.00  0.00     0.097 A 
BRANCH  10  16
HETATM   16  O   UNL     1      39.409 -14.224  -3.337  1.00  0.00    -0.356 OA
HETATM   17  C   UNL     1      38.658 -15.257  -2.709  1.00  0.00     0.210 C 
ENDBRANCH  10  16
ENDBRANCH   5   6
ENDBRANCH   1   5
BRANCH   2  18
HETATM   18  C   UNL     1      42.024 -16.050   3.351  1.00  0.00     0.047 A 
HETATM   19  C   UNL     1      42.433 -16.465   4.654  1.00  0.00     0.022 A 
HETATM   20  C   UNL     1      43.297 -17.586   4.789  1.00  0.00     0.102 A 
HETATM   21  C   UNL     1      41.990 -15.888   5.868  1.00  0.00     0.017 A 
HETATM   22  N   UNL     1      43.746 -18.010   5.995  1.00  0.00    -0.257 NA
HETATM   23  C   UNL     1      43.681 -18.290   3.636  1.00  0.00     0.097 A 
HETATM   24  C   UNL     1      43.337 -17.379   7.110  1.00  0.00     0.117 A 
HETATM   25  C   UNL     1      42.451 -16.331   7.102  1.00  0.00     0.020 A 
HETATM   26  C   UNL     1      43.199 -17.935   2.376  1.00  0.00     0.041 A 
HETATM   27  C   UNL     1      42.376 -16.826   2.239  1.00  0.00     0.033 A 
BRANCH  23  28
HETATM   28  O   UNL     1      44.488 -19.393   3.823  1.00  0.00    -0.354 OA
HETATM   29  C   UNL     1      43.907 -20.653   3.510  1.00  0.00     0.210 C 
ENDBRANCH  23  28
ENDBRANCH   2  18
TORSDOF 5
ENDMDL
MODEL 4
REMARK VINA RESULT:      -8.2      2.437      9.146
REMARK  5 active torsions:
REMARK  status: ('A' for Active; 'I' for Inactive)
REMARK    1  A    between atoms: O_2  and  C_3 
REMARK    2  A    between atoms: C_10  and  C_11 
REMARK    3  A    between atoms: C_11  and  C_12 
REMARK       I    between atoms: C_12  and  N_13 
REMARK    4  A    between atoms: N_13  and  C_14 
REMARK    5  A    between atoms: C_21  and  O_22 
ROOT
HETATM    1  C   UNL     1      41.149 -14.756   1.790  1.00  0.00     0.226 C 
HETATM    2  N   UNL     1      40.901 -15.928   2.499  1.00  0.00    -0.326 N 
HETATM    3  O   UNL     1      42.248 -14.237   1.628  1.00  0.00    -0.273 OA
HETATM    4  H   UNL     1      40.034 -16.390   2.255  1.00  0.00     0.169 HD
ENDROOT
BRANCH   1   5
HETATM    5  C   UNL     1      39.861 -14.166   1.217  1.00  0.00     0.144 C 
BRANCH   5   6
HETATM    6  C   UNL     1      39.933 -13.772  -0.225  1.00  0.00    -0.021 A 
HETATM    7  C   UNL     1      40.504 -12.580  -0.785  1.00  0.00     0.001 A 
HETATM    8  C   UNL     1      41.114 -11.428  -0.243  1.00  0.00     0.051 A 
HETATM    9  C   UNL     1      40.381 -12.667  -2.171  1.00  0.00     0.043 A 
HETATM   10  C   UNL     1      41.560 -10.402  -1.089  1.00  0.00     0.069 A 
HETATM   11  C   UNL     1      41.428 -10.530  -2.470  1.00  0.00     0.039 A 
HETATM   12  C   UNL     1      40.836 -11.666  -3.036  1.00  0.00     0.033 A 
HETATM   13  N   UNL     1      39.760 -13.861  -2.449  1.00  0.00    -0.365 N 
HETATM   14  H   UNL     1      39.536 -14.186  -3.380  1.00  0.00     0.165 HD
HETATM   15  C   UNL     1      39.495 -14.538  -1.291  1.00  0.00     0.097 A 
BRANCH  10  16
HETATM   16  O   UNL     1      42.118  -9.334  -0.437  1.00  0.00    -0.356 OA
HETATM   17  C   UNL     1      42.392  -8.181  -1.225  1.00  0.00     0.210 C 
ENDBRANCH  10  16
ENDBRANCH   5   6
ENDBRANCH   1   5
BRANCH   2  18
HETATM   18  C   UNL     1      41.851 -16.755   3.158  1.00  0.00     0.047 A 
HETATM   19  C   UNL     1      42.200 -16.715   4.542  1.00  0.00     0.022 A 
HETATM   20  C   UNL     1      43.240 -17.557   5.022  1.00  0.00     0.102 A 
HETATM   21  C   UNL     1      41.539 -15.940   5.524  1.00  0.00     0.017 A 
HETATM   22  N   UNL     1      43.638 -17.543   6.317  1.00  0.00    -0.257 NA
HETATM   23  C   UNL     1      43.860 -18.447   4.130  1.00  0.00     0.097 A 
HETATM   24  C   UNL     1      43.011 -16.737   7.192  1.00  0.00     0.117 A 
HETATM   25  C   UNL     1      41.951 -15.934   6.852  1.00  0.00     0.020 A 
HETATM   26  C   UNL     1      43.446 -18.547   2.802  1.00  0.00     0.041 A 
HETATM   27  C   UNL     1      42.449 -17.708   2.324  1.00  0.00     0.033 A 
BRANCH  23  28
HETATM   28  O   UNL     1      44.836 -19.270   4.653  1.00  0.00    -0.354 OA
HETATM   29  C   UNL     1      44.426 -20.588   4.993  1.00  0.00     0.210 C 
ENDBRANCH  23  28
ENDBRANCH   2  18
TORSDOF 5
ENDMDL
MODEL 5
REMARK VINA RESULT:      -8.1      2.000      8.882
REMARK  5 active torsions:
REMARK  status: ('A' for Active; 'I' for Inactive)
REMARK    1  A    between atoms: O_2  and  C_3 
REMARK    2  A    between atoms: C_10  and  C_11 
REMARK    3  A    between atoms: C_11  and  C_12 
REMARK       I    between atoms: C_12  and  N_13 
REMARK    4  A    between atoms: N_13  and  C_14 
REMARK    5  A    between atoms: C_21  and  O_22 
ROOT
HETATM    1  C   UNL     1      40.334 -15.352   1.443  1.00  0.00     0.226 C 
HETATM    2  N   UNL     1      41.688 -15.664   1.553  1.00  0.00    -0.326 N 
HETATM    3  O   UNL     1      39.525 -15.351   2.363  1.00  0.00    -0.273 OA
HETATM    4  H   UNL     1      42.263 -15.295   0.807  1.00  0.00     0.169 HD
ENDROOT
BRANCH   1   5
HETATM    5  C   UNL     1      39.956 -15.004   0.004  1.00  0.00     0.144 C 
BRANCH   5   6
HETATM    6  C   UNL     1      39.897 -13.539  -0.296  1.00  0.00    -0.021 A 
HETATM    7  C   UNL     1      38.947 -12.846  -1.120  1.00  0.00     0.001 A 
HETATM    8  C   UNL     1      37.849 -13.246  -1.912  1.00  0.00     0.051 A 
HETATM    9  C   UNL     1      39.260 -11.488  -1.070  1.00  0.00     0.043 A 
HETATM   10  C   UNL     1      37.117 -12.293  -2.635  1.00  0.00     0.069 A 
HETATM   11  C   UNL     1      37.454 -10.944  -2.550  1.00  0.00     0.039 A 
HETATM   12  C   UNL     1      38.533 -10.517  -1.765  1.00  0.00     0.033 A 
HETATM   13  N   UNL     1      40.355 -11.354  -0.250  1.00  0.00    -0.365 N 
HETATM   14  H   UNL     1      40.804 -10.474  -0.035  1.00  0.00     0.165 HD
HETATM   15  C   UNL     1      40.740 -12.576   0.230  1.00  0.00     0.097 A 
BRANCH  10  16
HETATM   16  O   UNL     1      36.088 -12.813  -3.374  1.00  0.00    -0.356 OA
HETATM   17  C   UNL     1      35.075 -11.901  -3.783  1.00  0.00     0.210 C 
ENDBRANCH  10  16
ENDBRANCH   5   6
ENDBRANCH   1   5
BRANCH   2  18
HETATM   18  C   UNL     1      42.397 -16.023   2.730  1.00  0.00     0.047 A 
HETATM   19  C   UNL     1      42.947 -17.305   3.035  1.00  0.00     0.022 A 
HETATM   20  C   UNL     1      43.552 -17.520   4.303  1.00  0.00     0.102 A 
HETATM   21  C   UNL     1      43.009 -18.397   2.137  1.00  0.00     0.017 A 
HETATM   22  N   UNL     1      44.064 -18.722   4.664  1.00  0.00    -0.257 NA
HETATM   23  C   UNL     1      43.641 -16.446   5.204  1.00  0.00     0.097 A 
HETATM   24  C   UNL     1      44.037 -19.741   3.787  1.00  0.00     0.117 A 
HETATM   25  C   UNL     1      43.540 -19.626   2.513  1.00  0.00     0.020 A 
HETATM   26  C   UNL     1      43.187 -15.172   4.860  1.00  0.00     0.041 A 
HETATM   27  C   UNL     1      42.573 -14.966   3.633  1.00  0.00     0.033 A 
BRANCH  23  28
HETATM   28  O   UNL     1      44.272 -16.694   6.405  1.00  0.00    -0.354 OA
HETATM   29  C   UNL     1      43.527 -16.391   7.577  1.00  0.00     0.210 C 
ENDBRANCH  23  28
ENDBRANCH   2  18
TORSDOF 5
ENDMDL
MODEL 6
REMARK VINA RESULT:      -8.0      2.382      8.469
REMARK  5 active torsions:
REMARK  status: ('A' for Active; 'I' for Inactive)
REMARK    1  A    between atoms: O_2  and  C_3 
REMARK    2  A    between atoms: C_10  and  C_11 
REMARK    3  A    between atoms: C_11  and  C_12 
REMARK       I    between atoms: C_12  and  N_13 
REMARK    4  A    between atoms: N_13  and  C_14 
REMARK    5  A    between atoms: C_21  and  O_22 
ROOT
HETATM    1  C   UNL     1      40.941 -15.424   1.452  1.00  0.00     0.226 C 
HETATM    2  N   UNL     1      42.293 -15.669   1.682  1.00  0.00    -0.326 N 
HETATM    3  O   UNL     1      40.007 -15.989   2.010  1.00  0.00    -0.273 OA
HETATM    4  H   UNL     1      42.907 -14.911   1.412  1.00  0.00     0.169 HD
ENDROOT
BRANCH   1   5
HETATM    5  C   UNL     1      40.741 -14.339   0.394  1.00  0.00     0.144 C 
BRANCH   5   6
HETATM    6  C   UNL     1      39.884 -13.189   0.822  1.00  0.00    -0.021 A 
HETATM    7  C   UNL     1      39.828 -12.566   2.114  1.00  0.00     0.001 A 
HETATM    8  C   UNL     1      40.462 -12.801   3.353  1.00  0.00     0.051 A 
HETATM    9  C   UNL     1      38.919 -11.511   2.032  1.00  0.00     0.043 A 
HETATM   10  C   UNL     1      40.161 -11.998   4.463  1.00  0.00     0.069 A 
HETATM   11  C   UNL     1      39.256 -10.947   4.338  1.00  0.00     0.039 A 
HETATM   12  C   UNL     1      38.618 -10.684   3.118  1.00  0.00     0.033 A 
HETATM   13  N   UNL     1      38.439 -11.490   0.744  1.00  0.00    -0.365 N 
HETATM   14  H   UNL     1      37.757 -10.828   0.399  1.00  0.00     0.165 HD
HETATM   15  C   UNL     1      39.017 -12.484   0.005  1.00  0.00     0.097 A 
BRANCH  10  16
HETATM   16  O   UNL     1      40.833 -12.341   5.607  1.00  0.00    -0.356 OA
HETATM   17  C   UNL     1      41.888 -11.474   6.007  1.00  0.00     0.210 C 
ENDBRANCH  10  16
ENDBRANCH   5   6
ENDBRANCH   1   5
BRANCH   2  18
HETATM   18  C   UNL     1      42.857 -16.596   2.599  1.00  0.00     0.047 A 
HETATM   19  C   UNL     1      43.237 -16.333   3.950  1.00  0.00     0.022 A 
HETATM   20  C   UNL     1      43.873 -17.356   4.706  1.00  0.00     0.102 A 
HETATM   21  C   UNL     1      42.969 -15.134   4.651  1.00  0.00     0.017 A 
HETATM   22  N   UNL     1      44.285 -17.159   5.981  1.00  0.00    -0.257 NA
HETATM   23  C   UNL     1      44.060 -18.618   4.118  1.00  0.00     0.097 A 
HETATM   24  C   UNL     1      44.057 -15.974   6.573  1.00  0.00     0.117 A 
HETATM   25  C   UNL     1      43.392 -14.941   5.961  1.00  0.00     0.020 A 
HETATM   26  C   UNL     1      43.599 -18.894   2.831  1.00  0.00     0.041 A 
HETATM   27  C   UNL     1      43.002 -17.890   2.082  1.00  0.00     0.033 A 
BRANCH  23  28
HETATM   28  O   UNL     1      44.646 -19.588   4.905  1.00  0.00    -0.354 OA
HETATM   29  C   UNL     1      43.945 -20.821   5.003  1.00  0.00     0.210 C 
ENDBRANCH  23  28
ENDBRANCH   2  18
TORSDOF 5
ENDMDL
MODEL 7
REMARK VINA RESULT:      -7.9      5.326      8.024
REMARK  5 active torsions:
REMARK  status: ('A' for Active; 'I' for Inactive)
REMARK    1  A    between atoms: O_2  and  C_3 
REMARK    2  A    between atoms: C_10  and  C_11 
REMARK    3  A    between atoms: C_11  and  C_12 
REMARK       I    between atoms: C_12  and  N_13 
REMARK    4  A    between atoms: N_13  and  C_14 
REMARK    5  A    between atoms: C_21  and  O_22 
ROOT
HETATM    1  C   UNL     1      42.648 -12.814   5.639  1.00  0.00     0.226 C 
HETATM    2  N   UNL     1      42.331 -12.132   6.812  1.00  0.00    -0.326 N 
HETATM    3  O   UNL     1      43.266 -12.350   4.688  1.00  0.00    -0.273 OA
HETATM    4  H   UNL     1      42.136 -12.731   7.604  1.00  0.00     0.169 HD
ENDROOT
BRANCH   1   5
HETATM    5  C   UNL     1      42.124 -14.249   5.668  1.00  0.00     0.144 C 
BRANCH   5   6
HETATM    6  C   UNL     1      42.131 -14.951   4.346  1.00  0.00    -0.021 A 
HETATM    7  C   UNL     1      42.717 -16.222   4.027  1.00  0.00     0.001 A 
HETATM    8  C   UNL     1      43.465 -17.175   4.751  1.00  0.00     0.051 A 
HETATM    9  C   UNL     1      42.437 -16.488   2.687  1.00  0.00     0.043 A 
HETATM   10  C   UNL     1      43.922 -18.341   4.120  1.00  0.00     0.069 A 
HETATM   11  C   UNL     1      43.613 -18.576   2.782  1.00  0.00     0.039 A 
HETATM   12  C   UNL     1      42.864 -17.653   2.041  1.00  0.00     0.033 A 
HETATM   13  N   UNL     1      41.712 -15.425   2.206  1.00  0.00    -0.365 N 
HETATM   14  H   UNL     1      41.375 -15.346   1.255  1.00  0.00     0.165 HD
HETATM   15  C   UNL     1      41.512 -14.501   3.193  1.00  0.00     0.097 A 
BRANCH  10  16
HETATM   16  O   UNL     1      44.648 -19.174   4.929  1.00  0.00    -0.356 OA
HETATM   17  C   UNL     1      44.199 -20.521   5.021  1.00  0.00     0.210 C 
ENDBRANCH  10  16
ENDBRANCH   5   6
ENDBRANCH   1   5
BRANCH   2  18
HETATM   18  C   UNL     1      42.662 -10.791   7.145  1.00  0.00     0.047 A 
HETATM   19  C   UNL     1      43.956 -10.292   7.482  1.00  0.00     0.022 A 
HETATM   20  C   UNL     1      44.097  -8.934   7.879  1.00  0.00     0.102 A 
HETATM   21  C   UNL     1      45.161 -11.028   7.389  1.00  0.00     0.017 A 
HETATM   22  N   UNL     1      45.293  -8.409   8.240  1.00  0.00    -0.257 NA
HETATM   23  C   UNL     1      42.964  -8.104   7.875  1.00  0.00     0.097 A 
HETATM   24  C   UNL     1      46.394  -9.179   8.191  1.00  0.00     0.117 A 
HETATM   25  C   UNL     1      46.385 -10.481   7.758  1.00  0.00     0.020 A 
HETATM   26  C   UNL     1      41.721  -8.576   7.452  1.00  0.00     0.041 A 
HETATM   27  C   UNL     1      41.576  -9.908   7.089  1.00  0.00     0.033 A 
BRANCH  23  28
HETATM   28  O   UNL     1      43.159  -6.785   8.230  1.00  0.00    -0.354 OA
HETATM   29  C   UNL     1      41.990  -5.981   8.318  1.00  0.00     0.210 C 
ENDBRANCH  23  28
ENDBRANCH   2  18
TORSDOF 5
ENDMDL
MODEL 8
REMARK VINA RESULT:      -7.9      2.047      3.806
REMARK  5 active torsions:
REMARK  status: ('A' for Active; 'I' for Inactive)
REMARK    1  A    between atoms: O_2  and  C_3 
REMARK    2  A    between atoms: C_10  and  C_11 
REMARK    3  A    between atoms: C_11  and  C_12 
REMARK       I    between atoms: C_12  and  N_13 
REMARK    4  A    between atoms: N_13  and  C_14 
REMARK    5  A    between atoms: C_21  and  O_22 
ROOT
HETATM    1  C   UNL     1      41.845 -15.500   1.455  1.00  0.00     0.226 C 
HETATM    2  N   UNL     1      41.830 -14.310   0.731  1.00  0.00    -0.326 N 
HETATM    3  O   UNL     1      40.860 -16.081   1.896  1.00  0.00    -0.273 OA
HETATM    4  H   UNL     1      42.654 -14.154   0.165  1.00  0.00     0.169 HD
ENDROOT
BRANCH   1   5
HETATM    5  C   UNL     1      43.270 -16.020   1.646  1.00  0.00     0.144 C 
BRANCH   5   6
HETATM    6  C   UNL     1      43.447 -16.967   2.791  1.00  0.00    -0.021 A 
HETATM    7  C   UNL     1      43.368 -16.678   4.195  1.00  0.00     0.001 A 
HETATM    8  C   UNL     1      43.155 -15.505   4.951  1.00  0.00     0.051 A 
HETATM    9  C   UNL     1      43.558 -17.877   4.882  1.00  0.00     0.043 A 
HETATM   10  C   UNL     1      43.158 -15.560   6.352  1.00  0.00     0.069 A 
HETATM   11  C   UNL     1      43.340 -16.779   7.002  1.00  0.00     0.039 A 
HETATM   12  C   UNL     1      43.544 -17.960   6.278  1.00  0.00     0.033 A 
HETATM   13  N   UNL     1      43.746 -18.859   3.939  1.00  0.00    -0.365 N 
HETATM   14  H   UNL     1      43.914 -19.833   4.153  1.00  0.00     0.165 HD
HETATM   15  C   UNL     1      43.672 -18.329   2.680  1.00  0.00     0.097 A 
BRANCH  10  16
HETATM   16  O   UNL     1      42.956 -14.352   6.966  1.00  0.00    -0.356 OA
HETATM   17  C   UNL     1      43.841 -13.299   6.601  1.00  0.00     0.210 C 
ENDBRANCH  10  16
ENDBRANCH   5   6
ENDBRANCH   1   5
BRANCH   2  18
HETATM   18  C   UNL     1      40.694 -13.545   0.353  1.00  0.00     0.047 A 
HETATM   19  C   UNL     1      39.986 -12.611   1.168  1.00  0.00     0.022 A 
HETATM   20  C   UNL     1      38.810 -11.994   0.659  1.00  0.00     0.102 A 
HETATM   21  C   UNL     1      40.398 -12.175   2.449  1.00  0.00     0.017 A 
HETATM   22  N   UNL     1      38.078 -11.123   1.394  1.00  0.00    -0.257 NA
HETATM   23  C   UNL     1      38.407 -12.281  -0.656  1.00  0.00     0.097 A 
HETATM   24  C   UNL     1      38.488 -10.796   2.632  1.00  0.00     0.117 A 
HETATM   25  C   UNL     1      39.643 -11.278   3.196  1.00  0.00     0.020 A 
HETATM   26  C   UNL     1      39.158 -13.121  -1.477  1.00  0.00     0.041 A 
HETATM   27  C   UNL     1      40.292 -13.745  -0.975  1.00  0.00     0.033 A 
BRANCH  23  28
HETATM   28  O   UNL     1      37.283 -11.627  -1.116  1.00  0.00    -0.354 OA
HETATM   29  C   UNL     1      37.410 -10.972  -2.371  1.00  0.00     0.210 C 
ENDBRANCH  23  28
ENDBRANCH   2  18
TORSDOF 5
ENDMDL
MODEL 9
REMARK VINA RESULT:      -7.8      1.101      2.435
REMARK  5 active torsions:
REMARK  status: ('A' for Active; 'I' for Inactive)
REMARK    1  A    between atoms: O_2  and  C_3 
REMARK    2  A    between atoms: C_10  and  C_11 
REMARK    3  A    between atoms: C_11  and  C_12 
REMARK       I    between atoms: C_12  and  N_13 
REMARK    4  A    between atoms: N_13  and  C_14 
REMARK    5  A    between atoms: C_21  and  O_22 
ROOT
HETATM    1  C   UNL     1      41.504 -14.897   1.249  1.00  0.00     0.226 C 
HETATM    2  N   UNL     1      41.515 -13.919   0.257  1.00  0.00    -0.326 N 
HETATM    3  O   UNL     1      40.503 -15.388   1.758  1.00  0.00    -0.273 OA
HETATM    4  H   UNL     1      42.372 -13.876  -0.278  1.00  0.00     0.169 HD
ENDROOT
BRANCH   1   5
HETATM    5  C   UNL     1      42.922 -15.303   1.649  1.00  0.00     0.144 C 
BRANCH   5   6
HETATM    6  C   UNL     1      43.079 -15.725   3.076  1.00  0.00    -0.021 A 
HETATM    7  C   UNL     1      43.391 -17.034   3.578  1.00  0.00     0.001 A 
HETATM    8  C   UNL     1      43.604 -18.295   2.982  1.00  0.00     0.051 A 
HETATM    9  C   UNL     1      43.477 -16.940   4.967  1.00  0.00     0.043 A 
HETATM   10  C   UNL     1      43.876 -19.415   3.781  1.00  0.00     0.069 A 
HETATM   11  C   UNL     1      43.965 -19.280   5.165  1.00  0.00     0.039 A 
HETATM   12  C   UNL     1      43.767 -18.038   5.783  1.00  0.00     0.033 A 
HETATM   13  N   UNL     1      43.229 -15.631   5.301  1.00  0.00    -0.365 N 
HETATM   14  H   UNL     1      43.221 -15.274   6.247  1.00  0.00     0.165 HD
HETATM   15  C   UNL     1      42.999 -14.889   4.176  1.00  0.00     0.097 A 
BRANCH  10  16
HETATM   16  O   UNL     1      44.047 -20.581   3.082  1.00  0.00    -0.356 OA
HETATM   17  C   UNL     1      43.585 -20.588   1.736  1.00  0.00     0.210 C 
ENDBRANCH  10  16
ENDBRANCH   5   6
ENDBRANCH   1   5
BRANCH   2  18
HETATM   18  C   UNL     1      40.392 -13.310  -0.366  1.00  0.00     0.047 A 
HETATM   19  C   UNL     1      39.952 -11.962  -0.199  1.00  0.00     0.022 A 
HETATM   20  C   UNL     1      38.751 -11.538  -0.831  1.00  0.00     0.102 A 
HETATM   21  C   UNL     1      40.659 -10.958   0.504  1.00  0.00     0.017 A 
HETATM   22  N   UNL     1      38.265 -10.282  -0.685  1.00  0.00    -0.257 NA
HETATM   23  C   UNL     1      38.058 -12.445  -1.649  1.00  0.00     0.097 A 
HETATM   24  C   UNL     1      38.952  -9.389   0.048  1.00  0.00     0.117 A 
HETATM   25  C   UNL     1      40.156  -9.670   0.645  1.00  0.00     0.020 A 
HETATM   26  C   UNL     1      38.547 -13.730  -1.884  1.00  0.00     0.041 A 
HETATM   27  C   UNL     1      39.705 -14.155  -1.247  1.00  0.00     0.033 A 
BRANCH  23  28
HETATM   28  O   UNL     1      36.920 -11.974  -2.271  1.00  0.00    -0.354 OA
HETATM   29  C   UNL     1      36.335 -12.834  -3.240  1.00  0.00     0.210 C 
ENDBRANCH  23  28
ENDBRANCH   2  18
TORSDOF 5
ENDMDL
MODEL 10
REMARK VINA RESULT:      -7.7      2.122      9.080
REMARK  5 active torsions:
REMARK  status: ('A' for Active; 'I' for Inactive)
REMARK    1  A    between atoms: O_2  and  C_3 
REMARK    2  A    between atoms: C_10  and  C_11 
REMARK    3  A    between atoms: C_11  and  C_12 
REMARK       I    between atoms: C_12  and  N_13 
REMARK    4  A    between atoms: N_13  and  C_14 
REMARK    5  A    between atoms: C_21  and  O_22 
ROOT
HETATM    1  C   UNL     1      41.995 -14.836   1.560  1.00  0.00     0.226 C 
HETATM    2  N   UNL     1      41.615 -16.100   2.005  1.00  0.00    -0.326 N 
HETATM    3  O   UNL     1      43.030 -14.253   1.864  1.00  0.00    -0.273 OA
HETATM    4  H   UNL     1      40.935 -16.564   1.416  1.00  0.00     0.169 HD
ENDROOT
BRANCH   1   5
HETATM    5  C   UNL     1      40.948 -14.235   0.623  1.00  0.00     0.144 C 
BRANCH   5   6
HETATM    6  C   UNL     1      39.983 -13.294   1.275  1.00  0.00    -0.021 A 
HETATM    7  C   UNL     1      39.069 -12.389   0.639  1.00  0.00     0.001 A 
HETATM    8  C   UNL     1      38.789 -12.048  -0.702  1.00  0.00     0.051 A 
HETATM    9  C   UNL     1      38.344 -11.750   1.644  1.00  0.00     0.043 A 
HETATM   10  C   UNL     1      37.820 -11.078  -0.995  1.00  0.00     0.069 A 
HETATM   11  C   UNL     1      37.109 -10.469   0.037  1.00  0.00     0.039 A 
HETATM   12  C   UNL     1      37.358 -10.794   1.377  1.00  0.00     0.033 A 
HETATM   13  N   UNL     1      38.795 -12.242   2.845  1.00  0.00    -0.365 N 
HETATM   14  H   UNL     1      38.449 -11.951   3.750  1.00  0.00     0.165 HD
HETATM   15  C   UNL     1      39.772 -13.177   2.638  1.00  0.00     0.097 A 
BRANCH  10  16
HETATM   16  O   UNL     1      37.656 -10.828  -2.332  1.00  0.00    -0.356 OA
HETATM   17  C   UNL     1      38.824 -10.903  -3.140  1.00  0.00     0.210 C 
ENDBRANCH  10  16
ENDBRANCH   5   6
ENDBRANCH   1   5
BRANCH   2  18
HETATM   18  C   UNL     1      42.337 -16.961   2.874  1.00  0.00     0.047 A 
HETATM   19  C   UNL     1      42.454 -16.837   4.292  1.00  0.00     0.022 A 
HETATM   20  C   UNL     1      43.292 -17.739   5.003  1.00  0.00     0.102 A 
HETATM   21  C   UNL     1      41.737 -15.914   5.089  1.00  0.00     0.017 A 
HETATM   22  N   UNL     1      43.470 -17.654   6.343  1.00  0.00    -0.257 NA
HETATM   23  C   UNL     1      43.941 -18.765   4.295  1.00  0.00     0.097 A 
HETATM   24  C   UNL     1      42.808 -16.713   7.039  1.00  0.00     0.117 A 
HETATM   25  C   UNL     1      41.922 -15.835   6.465  1.00  0.00     0.020 A 
HETATM   26  C   UNL     1      43.744 -18.937   2.925  1.00  0.00     0.041 A 
HETATM   27  C   UNL     1      42.947 -18.042   2.225  1.00  0.00     0.033 A 
BRANCH  23  28
HETATM   28  O   UNL     1      44.711 -19.638   5.035  1.00  0.00    -0.354 OA
HETATM   29  C   UNL     1      44.203 -20.958   5.174  1.00  0.00     0.210 C 
ENDBRANCH  23  28
ENDBRANCH   2  18
TORSDOF 5
ENDMDL
