MODEL 1
REMARK VINA RESULT:      -8.5      0.000      0.000
REMARK  5 active torsions:
REMARK  status: ('A' for Active; 'I' for Inactive)
REMARK    1  A    between atoms: C_3  and  C_4 
REMARK    2  A    between atoms: C_9  and  N_10 
REMARK       I    between atoms: N_10  and  C_11 
REMARK    3  A    between atoms: C_11  and  C_12 
REMARK    4  A    between atoms: C_14  and  C_15 
REMARK    5  A    between atoms: C_17  and  O_18 
ROOT
HETATM    1  C   UNL     1      42.757 -14.346   3.153  1.00  0.00     0.149 A 
HETATM    2  N   UNL     1      43.375 -15.509   3.602  1.00  0.00    -0.223 NA
HETATM    3  C   UNL     1      42.868 -16.500   2.888  1.00  0.00     0.139 A 
HETATM    4  N   UNL     1      41.926 -16.010   2.012  1.00  0.00    -0.342 N 
HETATM    5  H   UNL     1      41.370 -16.573   1.384  1.00  0.00     0.167 HD
HETATM    6  C   UNL     1      41.842 -14.652   2.163  1.00  0.00     0.041 A 
HETATM    7  C   UNL     1      40.917 -13.806   1.376  1.00  0.00     0.071 C 
ENDROOT
BRANCH   1   8
HETATM    8  C   UNL     1      43.069 -13.015   3.697  1.00  0.00     0.276 C 
HETATM    9  N   UNL     1      43.177 -13.046   5.073  1.00  0.00    -0.322 N 
HETATM   10  H   UNL     1      43.038 -13.972   5.471  1.00  0.00     0.169 HD
HETATM   11  O   UNL     1      43.208 -12.036   2.973  1.00  0.00    -0.266 OA
BRANCH   9  12
HETATM   12  C   UNL     1      43.441 -11.977   5.947  1.00  0.00     0.035 A 
HETATM   13  C   UNL     1      42.462 -11.112   6.430  1.00  0.00     0.030 A 
HETATM   14  C   UNL     1      42.795 -10.084   7.317  1.00  0.00     0.018 A 
HETATM   15  C   UNL     1      44.121  -9.896   7.732  1.00  0.00     0.015 A 
HETATM   16  C   UNL     1      45.126 -10.751   7.242  1.00  0.00    -0.046 A 
HETATM   17  C   UNL     1      46.571 -10.614   7.641  1.00  0.00     0.049 C 
HETATM   18  C   UNL     1      44.767 -11.789   6.359  1.00  0.00     0.037 A 
BRANCH  15  19
HETATM   19  C   UNL     1      44.423  -8.804   8.709  1.00  0.00     0.156 C 
HETATM   20  C   UNL     1      44.138  -9.051  10.169  1.00  0.00     0.097 C 
HETATM   21  O   UNL     1      44.918  -7.746   8.333  1.00  0.00    -0.293 OA
ENDBRANCH  15  19
ENDBRANCH   9  12
ENDBRANCH   1   8
BRANCH   3  22
HETATM   22  C   UNL     1      43.195 -17.924   3.009  1.00  0.00     0.013 A 
HETATM   23  C   UNL     1      43.599 -18.440   4.252  1.00  0.00     0.052 A 
HETATM   24  C   UNL     1      43.889 -19.798   4.402  1.00  0.00     0.069 A 
HETATM   25  C   UNL     1      43.791 -20.645   3.297  1.00  0.00     0.037 A 
HETATM   26  C   UNL     1      43.406 -20.148   2.053  1.00  0.00     0.004 A 
HETATM   27  C   UNL     1      43.109 -18.792   1.910  1.00  0.00     0.015 A 
BRANCH  24  28
HETATM   28  O   UNL     1      44.275 -20.417   5.559  1.00  0.00    -0.356 OA
HETATM   29  C   UNL     1      43.568 -20.068   6.742  1.00  0.00     0.210 C 
ENDBRANCH  24  28
ENDBRANCH   3  22
TORSDOF 5
ENDMDL
MODEL 2
REMARK VINA RESULT:      -8.5      3.444      9.820
REMARK  5 active torsions:
REMARK  status: ('A' for Active; 'I' for Inactive)
REMARK    1  A    between atoms: C_3  and  C_4 
REMARK    2  A    between atoms: C_9  and  N_10 
REMARK       I    between atoms: N_10  and  C_11 
REMARK    3  A    between atoms: C_11  and  C_12 
REMARK    4  A    between atoms: C_14  and  C_15 
REMARK    5  A    between atoms: C_17  and  O_18 
ROOT
HETATM    1  C   UNL     1      44.557 -10.700   8.587  1.00  0.00     0.149 A 
HETATM    2  N   UNL     1      43.613 -10.755   9.608  1.00  0.00    -0.223 NA
HETATM    3  C   UNL     1      43.854  -9.720  10.394  1.00  0.00     0.139 A 
HETATM    4  N   UNL     1      44.939  -9.017   9.922  1.00  0.00    -0.342 N 
HETATM    5  H   UNL     1      45.345  -8.206  10.369  1.00  0.00     0.167 HD
HETATM    6  C   UNL     1      45.397  -9.620   8.782  1.00  0.00     0.041 A 
HETATM    7  C   UNL     1      46.564  -9.124   8.016  1.00  0.00     0.071 C 
ENDROOT
BRANCH   1   8
HETATM    8  C   UNL     1      44.608 -11.682   7.493  1.00  0.00     0.276 C 
HETATM    9  N   UNL     1      43.446 -12.424   7.429  1.00  0.00    -0.322 N 
HETATM   10  H   UNL     1      42.755 -12.162   8.129  1.00  0.00     0.169 HD
HETATM   11  O   UNL     1      45.584 -11.785   6.760  1.00  0.00    -0.266 OA
BRANCH   9  12
HETATM   12  C   UNL     1      43.130 -13.467   6.539  1.00  0.00     0.035 A 
HETATM   13  C   UNL     1      42.818 -14.762   6.943  1.00  0.00     0.030 A 
HETATM   14  C   UNL     1      42.489 -15.743   6.002  1.00  0.00     0.018 A 
HETATM   15  C   UNL     1      42.476 -15.445   4.632  1.00  0.00     0.015 A 
HETATM   16  C   UNL     1      42.804 -14.144   4.203  1.00  0.00    -0.046 A 
HETATM   17  C   UNL     1      42.811 -13.748   2.751  1.00  0.00     0.049 C 
HETATM   18  C   UNL     1      43.119 -13.168   5.170  1.00  0.00     0.037 A 
BRANCH  15  19
HETATM   19  C   UNL     1      42.084 -16.517   3.665  1.00  0.00     0.156 C 
HETATM   20  C   UNL     1      43.126 -17.528   3.255  1.00  0.00     0.097 C 
HETATM   21  O   UNL     1      40.934 -16.588   3.240  1.00  0.00    -0.293 OA
ENDBRANCH  15  19
ENDBRANCH   9  12
ENDBRANCH   1   8
BRANCH   3  22
HETATM   22  C   UNL     1      43.131  -9.361  11.618  1.00  0.00     0.013 A 
HETATM   23  C   UNL     1      41.994 -10.098  11.993  1.00  0.00     0.052 A 
HETATM   24  C   UNL     1      41.303  -9.797  13.168  1.00  0.00     0.069 A 
HETATM   25  C   UNL     1      41.741  -8.740  13.968  1.00  0.00     0.037 A 
HETATM   26  C   UNL     1      42.857  -7.989  13.604  1.00  0.00     0.004 A 
HETATM   27  C   UNL     1      43.550  -8.299  12.434  1.00  0.00     0.015 A 
BRANCH  24  28
HETATM   28  O   UNL     1      40.198 -10.449  13.644  1.00  0.00    -0.356 OA
HETATM   29  C   UNL     1      39.223 -10.843  12.688  1.00  0.00     0.210 C 
ENDBRANCH  24  28
ENDBRANCH   3  22
TORSDOF 5
ENDMDL
MODEL 3
REMARK VINA RESULT:      -8.3      4.604      9.323
REMARK  5 active torsions:
REMARK  status: ('A' for Active; 'I' for Inactive)
REMARK    1  A    between atoms: C_3  and  C_4 
REMARK    2  A    between atoms: C_9  and  N_10 
REMARK       I    between atoms: N_10  and  C_11 
REMARK    3  A    between atoms: C_11  and  C_12 
REMARK    4  A    between atoms: C_14  and  C_15 
REMARK    5  A    between atoms: C_17  and  O_18 
ROOT
HETATM    1  C   UNL     1      40.583 -13.323  -0.243  1.00  0.00     0.149 A 
HETATM    2  N   UNL     1      41.182 -12.069  -0.324  1.00  0.00    -0.223 NA
HETATM    3  C   UNL     1      40.839 -11.567  -1.498  1.00  0.00     0.139 A 
HETATM    4  N   UNL     1      40.060 -12.472  -2.183  1.00  0.00    -0.342 N 
HETATM    5  H   UNL     1      39.704 -12.339  -3.119  1.00  0.00     0.167 HD
HETATM    6  C   UNL     1      39.887 -13.586  -1.408  1.00  0.00     0.041 A 
HETATM    7  C   UNL     1      39.102 -14.763  -1.845  1.00  0.00     0.071 C 
ENDROOT
BRANCH   1   8
HETATM    8  C   UNL     1      40.717 -14.197   0.932  1.00  0.00     0.276 C 
HETATM    9  N   UNL     1      42.005 -14.676   1.060  1.00  0.00    -0.322 N 
HETATM   10  H   UNL     1      42.639 -14.338   0.339  1.00  0.00     0.169 HD
HETATM   11  O   UNL     1      39.771 -14.435   1.673  1.00  0.00    -0.266 OA
BRANCH   9  12
HETATM   12  C   UNL     1      42.513 -15.551   2.037  1.00  0.00     0.035 A 
HETATM   13  C   UNL     1      42.896 -15.147   3.314  1.00  0.00     0.030 A 
HETATM   14  C   UNL     1      43.370 -16.079   4.243  1.00  0.00     0.018 A 
HETATM   15  C   UNL     1      43.479 -17.435   3.906  1.00  0.00     0.015 A 
HETATM   16  C   UNL     1      43.111 -17.859   2.615  1.00  0.00    -0.046 A 
HETATM   17  C   UNL     1      43.198 -19.297   2.179  1.00  0.00     0.049 C 
HETATM   18  C   UNL     1      42.623 -16.905   1.698  1.00  0.00     0.037 A 
BRANCH  15  19
HETATM   19  C   UNL     1      43.958 -18.400   4.944  1.00  0.00     0.156 C 
HETATM   20  C   UNL     1      43.358 -18.322   6.325  1.00  0.00     0.097 C 
HETATM   21  O   UNL     1      44.798 -19.252   4.668  1.00  0.00    -0.293 OA
ENDBRANCH  15  19
ENDBRANCH   9  12
ENDBRANCH   1   8
BRANCH   3  22
HETATM   22  C   UNL     1      41.242 -10.269  -2.048  1.00  0.00     0.013 A 
HETATM   23  C   UNL     1      42.081  -9.429  -1.297  1.00  0.00     0.052 A 
HETATM   24  C   UNL     1      42.504  -8.200  -1.809  1.00  0.00     0.069 A 
HETATM   25  C   UNL     1      42.071  -7.799  -3.074  1.00  0.00     0.037 A 
HETATM   26  C   UNL     1      41.226  -8.613  -3.826  1.00  0.00     0.004 A 
HETATM   27  C   UNL     1      40.813  -9.844  -3.315  1.00  0.00     0.015 A 
BRANCH  24  28
HETATM   28  O   UNL     1      43.329  -7.306  -1.182  1.00  0.00    -0.356 OA
HETATM   29  C   UNL     1      43.601  -6.091  -1.869  1.00  0.00     0.210 C 
ENDBRANCH  24  28
ENDBRANCH   3  22
TORSDOF 5
ENDMDL
MODEL 4
REMARK VINA RESULT:      -8.2      3.011      7.186
REMARK  5 active torsions:
REMARK  status: ('A' for Active; 'I' for Inactive)
REMARK    1  A    between atoms: C_3  and  C_4 
REMARK    2  A    between atoms: C_9  and  N_10 
REMARK       I    between atoms: N_10  and  C_11 
REMARK    3  A    between atoms: C_11  and  C_12 
REMARK    4  A    between atoms: C_14  and  C_15 
REMARK    5  A    between atoms: C_17  and  O_18 
ROOT
HETATM    1  C   UNL     1      42.472 -14.639   3.492  1.00  0.00     0.149 A 
HETATM    2  N   UNL     1      42.567 -16.011   3.282  1.00  0.00    -0.223 NA
HETATM    3  C   UNL     1      43.061 -16.525   4.396  1.00  0.00     0.139 A 
HETATM    4  N   UNL     1      43.307 -15.521   5.305  1.00  0.00    -0.342 N 
HETATM    5  H   UNL     1      43.720 -15.653   6.218  1.00  0.00     0.167 HD
HETATM    6  C   UNL     1      42.942 -14.323   4.754  1.00  0.00     0.041 A 
HETATM    7  C   UNL     1      43.080 -13.030   5.461  1.00  0.00     0.071 C 
ENDROOT
BRANCH   1   8
HETATM    8  C   UNL     1      41.946 -13.711   2.479  1.00  0.00     0.276 C 
HETATM    9  N   UNL     1      40.802 -14.207   1.888  1.00  0.00    -0.322 N 
HETATM   10  H   UNL     1      40.512 -15.110   2.256  1.00  0.00     0.169 HD
HETATM   11  O   UNL     1      42.494 -12.643   2.232  1.00  0.00    -0.266 OA
BRANCH   9  12
HETATM   12  C   UNL     1      40.029 -13.624   0.867  1.00  0.00     0.035 A 
HETATM   13  C   UNL     1      39.330 -12.429   1.012  1.00  0.00     0.030 A 
HETATM   14  C   UNL     1      38.602 -11.895  -0.056  1.00  0.00     0.018 A 
HETATM   15  C   UNL     1      38.553 -12.556  -1.291  1.00  0.00     0.015 A 
HETATM   16  C   UNL     1      39.242 -13.774  -1.452  1.00  0.00    -0.046 A 
HETATM   17  C   UNL     1      39.239 -14.541  -2.747  1.00  0.00     0.049 C 
HETATM   18  C   UNL     1      39.981 -14.287  -0.366  1.00  0.00     0.037 A 
BRANCH  15  19
HETATM   19  C   UNL     1      37.790 -11.929  -2.415  1.00  0.00     0.156 C 
HETATM   20  C   UNL     1      38.372 -10.709  -3.083  1.00  0.00     0.097 C 
HETATM   21  O   UNL     1      36.731 -12.416  -2.801  1.00  0.00    -0.293 OA
ENDBRANCH  15  19
ENDBRANCH   9  12
ENDBRANCH   1   8
BRANCH   3  22
HETATM   22  C   UNL     1      43.360 -17.937   4.653  1.00  0.00     0.013 A 
HETATM   23  C   UNL     1      43.536 -18.816   3.571  1.00  0.00     0.052 A 
HETATM   24  C   UNL     1      43.850 -20.160   3.787  1.00  0.00     0.069 A 
HETATM   25  C   UNL     1      43.972 -20.634   5.094  1.00  0.00     0.037 A 
HETATM   26  C   UNL     1      43.785 -19.780   6.179  1.00  0.00     0.004 A 
HETATM   27  C   UNL     1      43.480 -18.436   5.959  1.00  0.00     0.015 A 
BRANCH  24  28
HETATM   28  O   UNL     1      44.060 -21.104   2.819  1.00  0.00    -0.356 OA
HETATM   29  C   UNL     1      43.781 -20.724   1.478  1.00  0.00     0.210 C 
ENDBRANCH  24  28
ENDBRANCH   3  22
TORSDOF 5
ENDMDL
MODEL 5
REMARK VINA RESULT:      -8.0      3.742      6.683
REMARK  5 active torsions:
REMARK  status: ('A' for Active; 'I' for Inactive)
REMARK    1  A    between atoms: C_3  and  C_4 
REMARK    2  A    between atoms: C_9  and  N_10 
REMARK       I    between atoms: N_10  and  C_11 
REMARK    3  A    between atoms: C_11  and  C_12 
REMARK    4  A    between atoms: C_14  and  C_15 
REMARK    5  A    between atoms: C_17  and  O_18 
ROOT
HETATM    1  C   UNL     1      44.407 -11.004   8.784  1.00  0.00     0.149 A 
HETATM    2  N   UNL     1      43.699 -12.051   8.202  1.00  0.00    -0.223 NA
HETATM    3  C   UNL     1      44.166 -12.178   6.972  1.00  0.00     0.139 A 
HETATM    4  N   UNL     1      45.134 -11.229   6.739  1.00  0.00    -0.342 N 
HETATM    5  H   UNL     1      45.617 -11.095   5.861  1.00  0.00     0.167 HD
HETATM    6  C   UNL     1      45.302 -10.477   7.870  1.00  0.00     0.041 A 
HETATM    7  C   UNL     1      46.266  -9.358   7.964  1.00  0.00     0.071 C 
ENDROOT
BRANCH   1   8
HETATM    8  C   UNL     1      44.185 -10.562  10.169  1.00  0.00     0.276 C 
HETATM    9  N   UNL     1      42.925 -10.022  10.329  1.00  0.00    -0.322 N 
HETATM   10  H   UNL     1      42.366 -10.031   9.479  1.00  0.00     0.169 HD
HETATM   11  O   UNL     1      45.044 -10.685  11.034  1.00  0.00    -0.266 OA
BRANCH   9  12
HETATM   12  C   UNL     1      42.357  -9.474  11.494  1.00  0.00     0.035 A 
HETATM   13  C   UNL     1      41.099  -9.823  11.980  1.00  0.00     0.030 A 
HETATM   14  C   UNL     1      40.609  -9.255  13.159  1.00  0.00     0.018 A 
HETATM   15  C   UNL     1      41.367  -8.315  13.872  1.00  0.00     0.015 A 
HETATM   16  C   UNL     1      42.635  -7.939  13.387  1.00  0.00    -0.046 A 
HETATM   17  C   UNL     1      43.508  -6.939  14.096  1.00  0.00     0.049 C 
HETATM   18  C   UNL     1      43.115  -8.534  12.203  1.00  0.00     0.037 A 
BRANCH  15  19
HETATM   19  C   UNL     1      40.815  -7.761  15.147  1.00  0.00     0.156 C 
HETATM   20  C   UNL     1      39.888  -6.575  15.070  1.00  0.00     0.097 C 
HETATM   21  O   UNL     1      41.089  -8.280  16.226  1.00  0.00    -0.293 OA
ENDBRANCH  15  19
ENDBRANCH   9  12
ENDBRANCH   1   8
BRANCH   3  22
HETATM   22  C   UNL     1      43.718 -13.140   5.959  1.00  0.00     0.013 A 
HETATM   23  C   UNL     1      43.685 -14.510   6.271  1.00  0.00     0.052 A 
HETATM   24  C   UNL     1      43.236 -15.445   5.336  1.00  0.00     0.069 A 
HETATM   25  C   UNL     1      42.833 -15.010   4.072  1.00  0.00     0.037 A 
HETATM   26  C   UNL     1      42.873 -13.657   3.741  1.00  0.00     0.004 A 
HETATM   27  C   UNL     1      43.314 -12.725   4.681  1.00  0.00     0.015 A 
BRANCH  24  28
HETATM   28  O   UNL     1      43.144 -16.796   5.527  1.00  0.00    -0.356 OA
HETATM   29  C   UNL     1      43.861 -17.625   4.621  1.00  0.00     0.210 C 
ENDBRANCH  24  28
ENDBRANCH   3  22
TORSDOF 5
ENDMDL
MODEL 6
REMARK VINA RESULT:      -8.0      4.989      9.126
REMARK  5 active torsions:
REMARK  status: ('A' for Active; 'I' for Inactive)
REMARK    1  A    between atoms: C_3  and  C_4 
REMARK    2  A    between atoms: C_9  and  N_10 
REMARK       I    between atoms: N_10  and  C_11 
REMARK    3  A    between atoms: C_11  and  C_12 
REMARK    4  A    between atoms: C_14  and  C_15 
REMARK    5  A    between atoms: C_17  and  O_18 
ROOT
HETATM    1  C   UNL     1      40.285 -13.916  -0.812  1.00  0.00     0.149 A 
HETATM    2  N   UNL     1      40.886 -12.664  -0.728  1.00  0.00    -0.223 NA
HETATM    3  C   UNL     1      40.539 -12.011  -1.824  1.00  0.00     0.139 A 
HETATM    4  N   UNL     1      39.756 -12.815  -2.620  1.00  0.00    -0.342 N 
HETATM    5  H   UNL     1      39.396 -12.559  -3.529  1.00  0.00     0.167 HD
HETATM    6  C   UNL     1      39.583 -14.022  -1.998  1.00  0.00     0.041 A 
HETATM    7  C   UNL     1      38.795 -15.130  -2.585  1.00  0.00     0.071 C 
ENDROOT
BRANCH   1   8
HETATM    8  C   UNL     1      40.422 -14.939   0.237  1.00  0.00     0.276 C 
HETATM    9  N   UNL     1      41.641 -14.842   0.878  1.00  0.00    -0.322 N 
HETATM   10  H   UNL     1      42.224 -14.084   0.532  1.00  0.00     0.169 HD
HETATM   11  O   UNL     1      39.533 -15.749   0.471  1.00  0.00    -0.266 OA
BRANCH   9  12
HETATM   12  C   UNL     1      42.144 -15.652   1.913  1.00  0.00     0.035 A 
HETATM   13  C   UNL     1      43.260 -16.474   1.779  1.00  0.00     0.030 A 
HETATM   14  C   UNL     1      43.718 -17.234   2.860  1.00  0.00     0.018 A 
HETATM   15  C   UNL     1      43.059 -17.193   4.096  1.00  0.00     0.015 A 
HETATM   16  C   UNL     1      41.919 -16.379   4.245  1.00  0.00    -0.046 A 
HETATM   17  C   UNL     1      41.158 -16.281   5.540  1.00  0.00     0.049 C 
HETATM   18  C   UNL     1      41.482 -15.611   3.147  1.00  0.00     0.037 A 
BRANCH  15  19
HETATM   19  C   UNL     1      43.606 -17.996   5.232  1.00  0.00     0.156 C 
HETATM   20  C   UNL     1      43.965 -19.439   4.982  1.00  0.00     0.097 C 
HETATM   21  O   UNL     1      43.786 -17.482   6.333  1.00  0.00    -0.293 OA
ENDBRANCH  15  19
ENDBRANCH   9  12
ENDBRANCH   1   8
BRANCH   3  22
HETATM   22  C   UNL     1      40.942 -10.652  -2.199  1.00  0.00     0.013 A 
HETATM   23  C   UNL     1      41.870  -9.959  -1.403  1.00  0.00     0.052 A 
HETATM   24  C   UNL     1      42.294  -8.675  -1.752  1.00  0.00     0.069 A 
HETATM   25  C   UNL     1      41.774  -8.070  -2.897  1.00  0.00     0.037 A 
HETATM   26  C   UNL     1      40.841  -8.737  -3.691  1.00  0.00     0.004 A 
HETATM   27  C   UNL     1      40.427 -10.023  -3.343  1.00  0.00     0.015 A 
BRANCH  24  28
HETATM   28  O   UNL     1      43.200  -7.910  -1.069  1.00  0.00    -0.356 OA
HETATM   29  C   UNL     1      42.814  -6.576  -0.764  1.00  0.00     0.210 C 
ENDBRANCH  24  28
ENDBRANCH   3  22
TORSDOF 5
ENDMDL
MODEL 7
REMARK VINA RESULT:      -7.9      3.253     10.097
REMARK  5 active torsions:
REMARK  status: ('A' for Active; 'I' for Inactive)
REMARK    1  A    between atoms: C_3  and  C_4 
REMARK    2  A    between atoms: C_9  and  N_10 
REMARK       I    between atoms: N_10  and  C_11 
REMARK    3  A    between atoms: C_11  and  C_12 
REMARK    4  A    between atoms: C_14  and  C_15 
REMARK    5  A    between atoms: C_17  and  O_18 
ROOT
HETATM    1  C   UNL     1      44.440 -10.590   8.298  1.00  0.00     0.149 A 
HETATM    2  N   UNL     1      43.473 -10.647   9.297  1.00  0.00    -0.223 NA
HETATM    3  C   UNL     1      43.822  -9.751  10.205  1.00  0.00     0.139 A 
HETATM    4  N   UNL     1      44.997  -9.139   9.830  1.00  0.00    -0.342 N 
HETATM    5  H   UNL     1      45.489  -8.445  10.375  1.00  0.00     0.167 HD
HETATM    6  C   UNL     1      45.403  -9.655   8.629  1.00  0.00     0.041 A 
HETATM    7  C   UNL     1      46.639  -9.223   7.938  1.00  0.00     0.071 C 
ENDROOT
BRANCH   1   8
HETATM    8  C   UNL     1      44.394 -11.434   7.094  1.00  0.00     0.276 C 
HETATM    9  N   UNL     1      43.605 -12.550   7.291  1.00  0.00    -0.322 N 
HETATM   10  H   UNL     1      43.185 -12.593   8.217  1.00  0.00     0.169 HD
HETATM   11  O   UNL     1      44.997 -11.135   6.070  1.00  0.00    -0.266 OA
BRANCH   9  12
HETATM   12  C   UNL     1      43.338 -13.594   6.388  1.00  0.00     0.035 A 
HETATM   13  C   UNL     1      43.447 -14.944   6.711  1.00  0.00     0.030 A 
HETATM   14  C   UNL     1      43.141 -15.929   5.767  1.00  0.00     0.018 A 
HETATM   15  C   UNL     1      42.727 -15.580   4.474  1.00  0.00     0.015 A 
HETATM   16  C   UNL     1      42.625 -14.219   4.125  1.00  0.00    -0.046 A 
HETATM   17  C   UNL     1      42.187 -13.765   2.759  1.00  0.00     0.049 C 
HETATM   18  C   UNL     1      42.926 -13.242   5.096  1.00  0.00     0.037 A 
BRANCH  15  19
HETATM   19  C   UNL     1      42.377 -16.668   3.510  1.00  0.00     0.156 C 
HETATM   20  C   UNL     1      43.455 -17.642   3.106  1.00  0.00     0.097 C 
HETATM   21  O   UNL     1      41.231 -16.782   3.083  1.00  0.00    -0.293 OA
ENDBRANCH  15  19
ENDBRANCH   9  12
ENDBRANCH   1   8
BRANCH   3  22
HETATM   22  C   UNL     1      43.121  -9.452  11.457  1.00  0.00     0.013 A 
HETATM   23  C   UNL     1      43.573  -8.400  12.272  1.00  0.00     0.052 A 
HETATM   24  C   UNL     1      42.907  -8.076  13.456  1.00  0.00     0.069 A 
HETATM   25  C   UNL     1      41.790  -8.819  13.838  1.00  0.00     0.037 A 
HETATM   26  C   UNL     1      41.336  -9.876  13.050  1.00  0.00     0.004 A 
HETATM   27  C   UNL     1      41.999 -10.191  11.864  1.00  0.00     0.015 A 
BRANCH  24  28
HETATM   28  O   UNL     1      43.242  -7.069  14.319  1.00  0.00    -0.356 OA
HETATM   29  C   UNL     1      42.361  -6.841  15.412  1.00  0.00     0.210 C 
ENDBRANCH  24  28
ENDBRANCH   3  22
TORSDOF 5
ENDMDL
MODEL 8
REMARK VINA RESULT:      -7.8      3.163      9.185
REMARK  5 active torsions:
REMARK  status: ('A' for Active; 'I' for Inactive)
REMARK    1  A    between atoms: C_3  and  C_4 
REMARK    2  A    between atoms: C_9  and  N_10 
REMARK       I    between atoms: N_10  and  C_11 
REMARK    3  A    between atoms: C_11  and  C_12 
REMARK    4  A    between atoms: C_14  and  C_15 
REMARK    5  A    between atoms: C_17  and  O_18 
ROOT
HETATM    1  C   UNL     1      42.412 -13.263   5.088  1.00  0.00     0.149 A 
HETATM    2  N   UNL     1      42.764 -11.989   5.522  1.00  0.00    -0.223 NA
HETATM    3  C   UNL     1      43.712 -12.153   6.428  1.00  0.00     0.139 A 
HETATM    4  N   UNL     1      43.961 -13.494   6.608  1.00  0.00    -0.342 N 
HETATM    5  H   UNL     1      44.616 -13.879   7.274  1.00  0.00     0.167 HD
HETATM    6  C   UNL     1      43.150 -14.212   5.770  1.00  0.00     0.041 A 
HETATM    7  C   UNL     1      43.155 -15.692   5.711  1.00  0.00     0.071 C 
ENDROOT
BRANCH   1   8
HETATM    8  C   UNL     1      41.389 -13.502   4.058  1.00  0.00     0.276 C 
HETATM    9  N   UNL     1      41.933 -13.459   2.790  1.00  0.00    -0.322 N 
HETATM   10  H   UNL     1      42.936 -13.285   2.782  1.00  0.00     0.169 HD
HETATM   11  O   UNL     1      40.217 -13.711   4.345  1.00  0.00    -0.266 OA
BRANCH   9  12
HETATM   12  C   UNL     1      41.274 -13.616   1.557  1.00  0.00     0.035 A 
HETATM   13  C   UNL     1      40.594 -14.773   1.184  1.00  0.00     0.030 A 
HETATM   14  C   UNL     1      39.940 -14.848  -0.050  1.00  0.00     0.018 A 
HETATM   15  C   UNL     1      39.963 -13.766  -0.940  1.00  0.00     0.015 A 
HETATM   16  C   UNL     1      40.659 -12.593  -0.587  1.00  0.00    -0.046 A 
HETATM   17  C   UNL     1      40.728 -11.390  -1.488  1.00  0.00     0.049 C 
HETATM   18  C   UNL     1      41.300 -12.534   0.667  1.00  0.00     0.037 A 
BRANCH  15  19
HETATM   19  C   UNL     1      39.220 -13.880  -2.233  1.00  0.00     0.156 C 
HETATM   20  C   UNL     1      37.780 -13.434  -2.274  1.00  0.00     0.097 C 
HETATM   21  O   UNL     1      39.779 -14.300  -3.242  1.00  0.00    -0.293 OA
ENDBRANCH  15  19
ENDBRANCH   9  12
ENDBRANCH   1   8
BRANCH   3  22
HETATM   22  C   UNL     1      44.391 -11.098   7.187  1.00  0.00     0.013 A 
HETATM   23  C   UNL     1      43.639 -10.241   8.009  1.00  0.00     0.052 A 
HETATM   24  C   UNL     1      44.263  -9.246   8.764  1.00  0.00     0.069 A 
HETATM   25  C   UNL     1      45.648  -9.094   8.686  1.00  0.00     0.037 A 
HETATM   26  C   UNL     1      46.408  -9.925   7.865  1.00  0.00     0.004 A 
HETATM   27  C   UNL     1      45.782 -10.923   7.118  1.00  0.00     0.015 A 
BRANCH  24  28
HETATM   28  O   UNL     1      43.643  -8.366   9.609  1.00  0.00    -0.356 OA
HETATM   29  C   UNL     1      43.545  -7.016   9.172  1.00  0.00     0.210 C 
ENDBRANCH  24  28
ENDBRANCH   3  22
TORSDOF 5
ENDMDL
MODEL 9
REMARK VINA RESULT:      -7.7      3.073      5.305
REMARK  5 active torsions:
REMARK  status: ('A' for Active; 'I' for Inactive)
REMARK    1  A    between atoms: C_3  and  C_4 
REMARK    2  A    between atoms: C_9  and  N_10 
REMARK       I    between atoms: N_10  and  C_11 
REMARK    3  A    between atoms: C_11  and  C_12 
REMARK    4  A    between atoms: C_14  and  C_15 
REMARK    5  A    between atoms: C_17  and  O_18 
ROOT
HETATM    1  C   UNL     1      41.218 -13.968   3.935  1.00  0.00     0.149 A 
HETATM    2  N   UNL     1      41.186 -13.268   2.733  1.00  0.00    -0.223 NA
HETATM    3  C   UNL     1      40.669 -14.091   1.836  1.00  0.00     0.139 A 
HETATM    4  N   UNL     1      40.392 -15.305   2.421  1.00  0.00    -0.342 N 
HETATM    5  H   UNL     1      40.027 -16.113   1.937  1.00  0.00     0.167 HD
HETATM    6  C   UNL     1      40.731 -15.248   3.746  1.00  0.00     0.041 A 
HETATM    7  C   UNL     1      40.569 -16.390   4.674  1.00  0.00     0.071 C 
ENDROOT
BRANCH   1   8
HETATM    8  C   UNL     1      41.716 -13.380   5.188  1.00  0.00     0.276 C 
HETATM    9  N   UNL     1      42.225 -12.113   4.982  1.00  0.00    -0.322 N 
HETATM   10  H   UNL     1      42.159 -11.800   4.016  1.00  0.00     0.169 HD
HETATM   11  O   UNL     1      41.659 -13.982   6.253  1.00  0.00    -0.266 OA
BRANCH   9  12
HETATM   12  C   UNL     1      42.809 -11.248   5.926  1.00  0.00     0.035 A 
HETATM   13  C   UNL     1      42.108 -10.250   6.598  1.00  0.00     0.030 A 
HETATM   14  C   UNL     1      42.750  -9.443   7.542  1.00  0.00     0.018 A 
HETATM   15  C   UNL     1      44.112  -9.615   7.825  1.00  0.00     0.015 A 
HETATM   16  C   UNL     1      44.840 -10.609   7.144  1.00  0.00    -0.046 A 
HETATM   17  C   UNL     1      46.304 -10.855   7.393  1.00  0.00     0.049 C 
HETATM   18  C   UNL     1      44.171 -11.420   6.205  1.00  0.00     0.037 A 
BRANCH  15  19
HETATM   19  C   UNL     1      44.747  -8.751   8.869  1.00  0.00     0.156 C 
HETATM   20  C   UNL     1      44.825  -9.274  10.281  1.00  0.00     0.097 C 
HETATM   21  O   UNL     1      45.217  -7.655   8.574  1.00  0.00    -0.293 OA
ENDBRANCH  15  19
ENDBRANCH   9  12
ENDBRANCH   1   8
BRANCH   3  22
HETATM   22  C   UNL     1      40.449 -13.811   0.414  1.00  0.00     0.013 A 
HETATM   23  C   UNL     1      39.755 -14.743  -0.377  1.00  0.00     0.052 A 
HETATM   24  C   UNL     1      39.507 -14.490  -1.727  1.00  0.00     0.069 A 
HETATM   25  C   UNL     1      39.970 -13.303  -2.298  1.00  0.00     0.037 A 
HETATM   26  C   UNL     1      40.673 -12.375  -1.533  1.00  0.00     0.004 A 
HETATM   27  C   UNL     1      40.912 -12.628  -0.182  1.00  0.00     0.015 A 
BRANCH  24  28
HETATM   28  O   UNL     1      38.832 -15.309  -2.591  1.00  0.00    -0.356 OA
HETATM   29  C   UNL     1      38.135 -14.682  -3.660  1.00  0.00     0.210 C 
ENDBRANCH  24  28
ENDBRANCH   3  22
TORSDOF 5
ENDMDL
MODEL 10
REMARK VINA RESULT:      -7.6      5.018      7.563
REMARK  5 active torsions:
REMARK  status: ('A' for Active; 'I' for Inactive)
REMARK    1  A    between atoms: C_3  and  C_4 
REMARK    2  A    between atoms: C_9  and  N_10 
REMARK       I    between atoms: N_10  and  C_11 
REMARK    3  A    between atoms: C_11  and  C_12 
REMARK    4  A    between atoms: C_14  and  C_15 
REMARK    5  A    between atoms: C_17  and  O_18 
ROOT
HETATM    1  C   UNL     1      40.397 -13.263   0.276  1.00  0.00     0.149 A 
HETATM    2  N   UNL     1      41.049 -13.567   1.468  1.00  0.00    -0.223 NA
HETATM    3  C   UNL     1      40.986 -14.880   1.602  1.00  0.00     0.139 A 
HETATM    4  N   UNL     1      40.292 -15.426   0.546  1.00  0.00    -0.342 N 
HETATM    5  H   UNL     1      40.077 -16.407   0.438  1.00  0.00     0.167 HD
HETATM    6  C   UNL     1      39.913 -14.421  -0.302  1.00  0.00     0.041 A 
HETATM    7  C   UNL     1      39.139 -14.657  -1.543  1.00  0.00     0.071 C 
ENDROOT
BRANCH   1   8
HETATM    8  C   UNL     1      40.268 -11.890  -0.235  1.00  0.00     0.276 C 
HETATM    9  N   UNL     1      41.143 -11.657  -1.278  1.00  0.00    -0.322 N 
HETATM   10  H   UNL     1      41.710 -12.466  -1.522  1.00  0.00     0.169 HD
HETATM   11  O   UNL     1      39.467 -11.094   0.239  1.00  0.00    -0.266 OA
BRANCH   9  12
HETATM   12  C   UNL     1      41.329 -10.468  -2.005  1.00  0.00     0.035 A 
HETATM   13  C   UNL     1      40.759 -10.225  -3.252  1.00  0.00     0.030 A 
HETATM   14  C   UNL     1      40.969  -9.007  -3.906  1.00  0.00     0.018 A 
HETATM   15  C   UNL     1      41.765  -8.009  -3.326  1.00  0.00     0.015 A 
HETATM   16  C   UNL     1      42.362  -8.243  -2.072  1.00  0.00    -0.046 A 
HETATM   17  C   UNL     1      43.228  -7.222  -1.385  1.00  0.00     0.049 C 
HETATM   18  C   UNL     1      42.127  -9.473  -1.424  1.00  0.00     0.037 A 
BRANCH  15  19
HETATM   19  C   UNL     1      41.932  -6.710  -4.047  1.00  0.00     0.156 C 
HETATM   20  C   UNL     1      43.029  -6.597  -5.076  1.00  0.00     0.097 C 
HETATM   21  O   UNL     1      41.175  -5.768  -3.826  1.00  0.00    -0.293 OA
ENDBRANCH  15  19
ENDBRANCH   9  12
ENDBRANCH   1   8
BRANCH   3  22
HETATM   22  C   UNL     1      41.520 -15.674   2.713  1.00  0.00     0.013 A 
HETATM   23  C   UNL     1      42.540 -16.609   2.470  1.00  0.00     0.052 A 
HETATM   24  C   UNL     1      43.086 -17.358   3.515  1.00  0.00     0.069 A 
HETATM   25  C   UNL     1      42.598 -17.185   4.810  1.00  0.00     0.037 A 
HETATM   26  C   UNL     1      41.576 -16.273   5.067  1.00  0.00     0.004 A 
HETATM   27  C   UNL     1      41.039 -15.520   4.022  1.00  0.00     0.015 A 
BRANCH  24  28
HETATM   28  O   UNL     1      44.089 -18.283   3.406  1.00  0.00    -0.356 OA
HETATM   29  C   UNL     1      44.357 -19.079   4.553  1.00  0.00     0.210 C 
ENDBRANCH  24  28
ENDBRANCH   3  22
TORSDOF 5
ENDMDL
