MODEL 1
REMARK VINA RESULT:     -10.4      0.000      0.000
REMARK  3 active torsions:
REMARK  status: ('A' for Active; 'I' for Inactive)
REMARK    1  A    between atoms: C_6  and  C_7 
REMARK       I    between atoms: C_7  and  N_8 
REMARK    2  A    between atoms: N_8  and  C_9 
REMARK    3  A    between atoms: C_16  and  C_17 
REMARK       I    between atoms: C_17  and  N_18 
ROOT
HETATM    1  C   UNL     1      42.553 -15.495   2.041  1.00  0.00     0.257 C 
HETATM    2  N   UNL     1      41.183 -15.423   1.879  1.00  0.00    -0.323 N 
HETATM    3  O   UNL     1      43.390 -14.733   1.571  1.00  0.00    -0.267 OA
HETATM    4  H   UNL     1      40.616 -16.087   2.391  1.00  0.00     0.169 HD
ENDROOT
BRANCH   2   5
HETATM    5  C   UNL     1      40.475 -14.509   1.071  1.00  0.00     0.036 A 
HETATM    6  C   UNL     1      39.991 -14.827  -0.206  1.00  0.00     0.046 A 
HETATM    7  C   UNL     1      39.238 -13.871  -0.921  1.00  0.00     0.030 A 
HETATM    8  C   UNL     1      39.038 -12.616  -0.357  1.00  0.00     0.063 A 
HETATM    9  C   UNL     1      38.533 -13.833  -2.161  1.00  0.00     0.156 A 
HETATM   10  N   UNL     1      38.314 -11.916  -1.280  1.00  0.00    -0.277 N 
HETATM   11  C   UNL     1      39.519 -12.261   0.905  1.00  0.00     0.034 A 
HETATM   12  H   UNL     1      38.000 -10.954  -1.213  1.00  0.00     0.189 HD
HETATM   13  N   UNL     1      37.975 -12.619  -2.372  1.00  0.00    -0.168 NA
HETATM   14  C   UNL     1      40.220 -13.244   1.615  1.00  0.00     0.032 A 
BRANCH   9  15
HETATM   15  C   UNL     1      38.352 -14.930  -3.123  1.00  0.00     0.270 C 
HETATM   16  N   UNL     1      38.273 -16.170  -2.549  1.00  0.00    -0.365 N 
HETATM   17  H   UNL     1      38.375 -16.244  -1.544  1.00  0.00     0.159 HD
HETATM   18  H   UNL     1      38.206 -16.987  -3.135  1.00  0.00     0.159 HD
HETATM   19  O   UNL     1      38.298 -14.792  -4.341  1.00  0.00    -0.266 OA
ENDBRANCH   9  15
ENDBRANCH   2   5
BRANCH   1  20
HETATM   20  C   UNL     1      43.038 -16.655   2.836  1.00  0.00     0.046 A 
HETATM   21  C   UNL     1      43.316 -16.610   4.224  1.00  0.00     0.009 A 
HETATM   22  C   UNL     1      43.643 -17.846   4.826  1.00  0.00     0.071 A 
HETATM   23  C   UNL     1      43.311 -15.442   5.032  1.00  0.00     0.018 A 
HETATM   24  N   UNL     1      43.752 -18.992   4.136  1.00  0.00    -0.253 NA
HETATM   25  C   UNL     1      43.874 -17.895   6.191  1.00  0.00     0.074 A 
HETATM   26  C   UNL     1      43.558 -18.984   2.799  1.00  0.00     0.032 A 
HETATM   27  C   UNL     1      43.754 -20.276   2.064  1.00  0.00     0.070 C 
HETATM   28  C   UNL     1      43.190 -17.844   2.116  1.00  0.00     0.044 A 
HETATM   29  C   UNL     1      43.818 -16.748   6.971  1.00  0.00     0.118 A 
HETATM   30  F   UNL     1      44.039 -16.832   8.289  1.00  0.00    -0.206 F 
HETATM   31  C   UNL     1      43.550 -15.515   6.403  1.00  0.00     0.043 A 
ENDBRANCH   1  20
TORSDOF 3
ENDMDL
MODEL 2
REMARK VINA RESULT:     -10.1      1.764      3.023
REMARK  3 active torsions:
REMARK  status: ('A' for Active; 'I' for Inactive)
REMARK    1  A    between atoms: C_6  and  C_7 
REMARK       I    between atoms: C_7  and  N_8 
REMARK    2  A    between atoms: N_8  and  C_9 
REMARK    3  A    between atoms: C_16  and  C_17 
REMARK       I    between atoms: C_17  and  N_18 
ROOT
HETATM    1  C   UNL     1      42.459 -15.082   3.187  1.00  0.00     0.257 C 
HETATM    2  N   UNL     1      41.093 -14.877   3.140  1.00  0.00    -0.323 N 
HETATM    3  O   UNL     1      43.312 -14.497   2.532  1.00  0.00    -0.267 OA
HETATM    4  H   UNL     1      40.520 -15.391   3.798  1.00  0.00     0.169 HD
ENDROOT
BRANCH   2   5
HETATM    5  C   UNL     1      40.398 -14.015   2.267  1.00  0.00     0.036 A 
HETATM    6  C   UNL     1      40.302 -14.233   0.886  1.00  0.00     0.046 A 
HETATM    7  C   UNL     1      39.533 -13.352   0.096  1.00  0.00     0.030 A 
HETATM    8  C   UNL     1      38.929 -12.258   0.704  1.00  0.00     0.063 A 
HETATM    9  C   UNL     1      39.138 -13.275  -1.274  1.00  0.00     0.156 A 
HETATM   10  N   UNL     1      38.293 -11.588  -0.303  1.00  0.00    -0.277 N 
HETATM   11  C   UNL     1      39.018 -12.002   2.074  1.00  0.00     0.034 A 
HETATM   12  H   UNL     1      37.761 -10.728  -0.228  1.00  0.00     0.189 HD
HETATM   13  N   UNL     1      38.381 -12.179  -1.506  1.00  0.00    -0.168 NA
HETATM   14  C   UNL     1      39.744 -12.918   2.845  1.00  0.00     0.032 A 
BRANCH   9  15
HETATM   15  C   UNL     1      39.436 -14.234  -2.348  1.00  0.00     0.270 C 
HETATM   16  N   UNL     1      38.602 -15.319  -2.375  1.00  0.00    -0.365 N 
HETATM   17  H   UNL     1      37.889 -15.397  -1.660  1.00  0.00     0.159 HD
HETATM   18  H   UNL     1      38.766 -16.057  -3.041  1.00  0.00     0.159 HD
HETATM   19  O   UNL     1      40.355 -14.121  -3.152  1.00  0.00    -0.266 OA
ENDBRANCH   9  15
ENDBRANCH   2   5
BRANCH   1  20
HETATM   20  C   UNL     1      42.907 -16.163   4.105  1.00  0.00     0.046 A 
HETATM   21  C   UNL     1      43.180 -17.492   3.698  1.00  0.00     0.009 A 
HETATM   22  C   UNL     1      43.719 -18.342   4.690  1.00  0.00     0.071 A 
HETATM   23  C   UNL     1      42.938 -18.028   2.405  1.00  0.00     0.018 A 
HETATM   24  N   UNL     1      43.911 -17.954   5.961  1.00  0.00    -0.253 NA
HETATM   25  C   UNL     1      44.065 -19.640   4.357  1.00  0.00     0.074 A 
HETATM   26  C   UNL     1      43.565 -16.703   6.335  1.00  0.00     0.032 A 
HETATM   27  C   UNL     1      43.740 -16.339   7.779  1.00  0.00     0.070 C 
HETATM   28  C   UNL     1      43.073 -15.778   5.438  1.00  0.00     0.044 A 
HETATM   29  C   UNL     1      43.864 -20.130   3.074  1.00  0.00     0.118 A 
HETATM   30  F   UNL     1      44.215 -21.389   2.783  1.00  0.00    -0.206 F 
HETATM   31  C   UNL     1      43.290 -19.340   2.093  1.00  0.00     0.043 A 
ENDBRANCH   1  20
TORSDOF 3
ENDMDL
MODEL 3
REMARK VINA RESULT:      -9.8      2.474      4.071
REMARK  3 active torsions:
REMARK  status: ('A' for Active; 'I' for Inactive)
REMARK    1  A    between atoms: C_6  and  C_7 
REMARK       I    between atoms: C_7  and  N_8 
REMARK    2  A    between atoms: N_8  and  C_9 
REMARK    3  A    between atoms: C_16  and  C_17 
REMARK       I    between atoms: C_17  and  N_18 
ROOT
HETATM    1  C   UNL     1      42.892 -15.238   2.441  1.00  0.00     0.257 C 
HETATM    2  N   UNL     1      41.570 -14.877   2.262  1.00  0.00    -0.323 N 
HETATM    3  O   UNL     1      43.844 -14.913   1.741  1.00  0.00    -0.267 OA
HETATM    4  H   UNL     1      40.907 -15.167   2.970  1.00  0.00     0.169 HD
ENDROOT
BRANCH   2   5
HETATM    5  C   UNL     1      41.035 -14.133   1.190  1.00  0.00     0.036 A 
HETATM    6  C   UNL     1      41.312 -12.774   0.985  1.00  0.00     0.046 A 
HETATM    7  C   UNL     1      40.783 -12.122  -0.150  1.00  0.00     0.030 A 
HETATM    8  C   UNL     1      39.959 -12.837  -1.011  1.00  0.00     0.063 A 
HETATM    9  C   UNL     1      40.890 -10.824  -0.735  1.00  0.00     0.156 A 
HETATM   10  N   UNL     1      39.588 -11.946  -1.979  1.00  0.00    -0.277 N 
HETATM   11  C   UNL     1      39.651 -14.186  -0.828  1.00  0.00     0.034 A 
HETATM   12  H   UNL     1      38.972 -12.117  -2.766  1.00  0.00     0.189 HD
HETATM   13  N   UNL     1      40.141 -10.729  -1.858  1.00  0.00    -0.168 NA
HETATM   14  C   UNL     1      40.228 -14.824   0.278  1.00  0.00     0.032 A 
BRANCH   9  15
HETATM   15  C   UNL     1      41.710  -9.696  -0.271  1.00  0.00     0.270 C 
HETATM   16  N   UNL     1      41.325  -9.187   0.940  1.00  0.00    -0.365 N 
HETATM   17  H   UNL     1      40.514  -9.587   1.396  1.00  0.00     0.159 HD
HETATM   18  H   UNL     1      41.793  -8.376   1.311  1.00  0.00     0.159 HD
HETATM   19  O   UNL     1      42.647  -9.208  -0.894  1.00  0.00    -0.266 OA
ENDBRANCH   9  15
ENDBRANCH   2   5
BRANCH   1  20
HETATM   20  C   UNL     1      43.152 -16.154   3.584  1.00  0.00     0.046 A 
HETATM   21  C   UNL     1      43.354 -17.550   3.457  1.00  0.00     0.009 A 
HETATM   22  C   UNL     1      43.713 -18.230   4.642  1.00  0.00     0.071 A 
HETATM   23  C   UNL     1      43.203 -18.303   2.261  1.00  0.00     0.018 A 
HETATM   24  N   UNL     1      43.804 -17.625   5.836  1.00  0.00    -0.253 NA
HETATM   25  C   UNL     1      43.983 -19.588   4.589  1.00  0.00     0.074 A 
HETATM   26  C   UNL     1      43.527 -16.306   5.936  1.00  0.00     0.032 A 
HETATM   27  C   UNL     1      43.579 -15.690   7.302  1.00  0.00     0.070 C 
HETATM   28  C   UNL     1      43.209 -15.536   4.837  1.00  0.00     0.044 A 
HETATM   29  C   UNL     1      43.876 -20.296   3.400  1.00  0.00     0.118 A 
HETATM   30  F   UNL     1      44.150 -21.606   3.384  1.00  0.00    -0.206 F 
HETATM   31  C   UNL     1      43.476 -19.669   2.234  1.00  0.00     0.043 A 
ENDBRANCH   1  20
TORSDOF 3
ENDMDL
MODEL 4
REMARK VINA RESULT:      -9.5      2.110      3.135
REMARK  3 active torsions:
REMARK  status: ('A' for Active; 'I' for Inactive)
REMARK    1  A    between atoms: C_6  and  C_7 
REMARK       I    between atoms: C_7  and  N_8 
REMARK    2  A    between atoms: N_8  and  C_9 
REMARK    3  A    between atoms: C_16  and  C_17 
REMARK       I    between atoms: C_17  and  N_18 
ROOT
HETATM    1  C   UNL     1      41.217 -15.984   2.141  1.00  0.00     0.257 C 
HETATM    2  N   UNL     1      41.633 -15.276   1.030  1.00  0.00    -0.323 N 
HETATM    3  O   UNL     1      40.133 -15.896   2.706  1.00  0.00    -0.267 OA
HETATM    4  H   UNL     1      42.534 -15.513   0.635  1.00  0.00     0.169 HD
ENDROOT
BRANCH   2   5
HETATM    5  C   UNL     1      40.927 -14.248   0.371  1.00  0.00     0.036 A 
HETATM    6  C   UNL     1      41.258 -12.891   0.490  1.00  0.00     0.046 A 
HETATM    7  C   UNL     1      40.537 -11.933  -0.255  1.00  0.00     0.030 A 
HETATM    8  C   UNL     1      39.481 -12.359  -1.052  1.00  0.00     0.063 A 
HETATM    9  C   UNL     1      40.610 -10.523  -0.464  1.00  0.00     0.156 A 
HETATM   10  N   UNL     1      38.969 -11.222  -1.613  1.00  0.00    -0.277 N 
HETATM   11  C   UNL     1      39.115 -13.700  -1.181  1.00  0.00     0.034 A 
HETATM   12  H   UNL     1      38.177 -11.151  -2.241  1.00  0.00     0.189 HD
HETATM   13  N   UNL     1      39.633 -10.098  -1.298  1.00  0.00    -0.168 NA
HETATM   14  C   UNL     1      39.877 -14.636  -0.472  1.00  0.00     0.032 A 
BRANCH   9  15
HETATM   15  C   UNL     1      41.604  -9.586   0.081  1.00  0.00     0.270 C 
HETATM   16  N   UNL     1      41.406  -9.263   1.396  1.00  0.00    -0.365 N 
HETATM   17  H   UNL     1      40.600  -9.651   1.872  1.00  0.00     0.159 HD
HETATM   18  H   UNL     1      42.004  -8.584   1.838  1.00  0.00     0.159 HD
HETATM   19  O   UNL     1      42.528  -9.095  -0.560  1.00  0.00    -0.266 OA
ENDBRANCH   9  15
ENDBRANCH   2   5
BRANCH   1  20
HETATM   20  C   UNL     1      42.228 -16.909   2.719  1.00  0.00     0.046 A 
HETATM   21  C   UNL     1      42.932 -16.668   3.924  1.00  0.00     0.009 A 
HETATM   22  C   UNL     1      43.756 -17.723   4.377  1.00  0.00     0.071 A 
HETATM   23  C   UNL     1      42.891 -15.467   4.681  1.00  0.00     0.018 A 
HETATM   24  N   UNL     1      43.925 -18.866   3.694  1.00  0.00    -0.253 NA
HETATM   25  C   UNL     1      44.435 -17.587   5.576  1.00  0.00     0.074 A 
HETATM   26  C   UNL     1      43.300 -19.031   2.508  1.00  0.00     0.032 A 
HETATM   27  C   UNL     1      43.570 -20.298   1.754  1.00  0.00     0.070 C 
HETATM   28  C   UNL     1      42.437 -18.086   1.994  1.00  0.00     0.044 A 
HETATM   29  C   UNL     1      44.344 -16.421   6.325  1.00  0.00     0.118 A 
HETATM   30  F   UNL     1      45.009 -16.325   7.483  1.00  0.00    -0.206 F 
HETATM   31  C   UNL     1      43.586 -15.351   5.883  1.00  0.00     0.043 A 
ENDBRANCH   1  20
TORSDOF 3
ENDMDL
MODEL 5
REMARK VINA RESULT:      -9.0      5.395      8.584
REMARK  3 active torsions:
REMARK  status: ('A' for Active; 'I' for Inactive)
REMARK    1  A    between atoms: C_6  and  C_7 
REMARK       I    between atoms: C_7  and  N_8 
REMARK    2  A    between atoms: N_8  and  C_9 
REMARK    3  A    between atoms: C_16  and  C_17 
REMARK       I    between atoms: C_17  and  N_18 
ROOT
HETATM    1  C   UNL     1      42.873 -13.871   5.555  1.00  0.00     0.257 C 
HETATM    2  N   UNL     1      43.514 -12.666   5.337  1.00  0.00    -0.323 N 
HETATM    3  O   UNL     1      42.574 -14.358   6.639  1.00  0.00    -0.267 OA
HETATM    4  H   UNL     1      43.629 -12.365   4.377  1.00  0.00     0.169 HD
ENDROOT
BRANCH   2   5
HETATM    5  C   UNL     1      44.030 -11.794   6.318  1.00  0.00     0.036 A 
HETATM    6  C   UNL     1      43.221 -11.092   7.222  1.00  0.00     0.046 A 
HETATM    7  C   UNL     1      43.825 -10.288   8.213  1.00  0.00     0.030 A 
HETATM    8  C   UNL     1      45.210 -10.174   8.233  1.00  0.00     0.063 A 
HETATM    9  C   UNL     1      43.376  -9.509   9.322  1.00  0.00     0.156 A 
HETATM   10  N   UNL     1      45.489  -9.322   9.264  1.00  0.00    -0.277 N 
HETATM   11  C   UNL     1      46.044 -10.846   7.336  1.00  0.00     0.034 A 
HETATM   12  H   UNL     1      46.402  -8.996   9.561  1.00  0.00     0.189 HD
HETATM   13  N   UNL     1      44.413  -8.914   9.956  1.00  0.00    -0.168 NA
HETATM   14  C   UNL     1      45.424 -11.677   6.396  1.00  0.00     0.032 A 
BRANCH   9  15
HETATM   15  C   UNL     1      41.997  -9.350   9.807  1.00  0.00     0.270 C 
HETATM   16  N   UNL     1      41.712 -10.081  10.928  1.00  0.00    -0.365 N 
HETATM   17  H   UNL     1      42.432 -10.682  11.309  1.00  0.00     0.159 HD
HETATM   18  H   UNL     1      40.775 -10.079  11.299  1.00  0.00     0.159 HD
HETATM   19  O   UNL     1      41.141  -8.655   9.268  1.00  0.00    -0.266 OA
ENDBRANCH   9  15
ENDBRANCH   2   5
BRANCH   1  20
HETATM   20  C   UNL     1      42.569 -14.660   4.331  1.00  0.00     0.046 A 
HETATM   21  C   UNL     1      43.037 -15.975   4.093  1.00  0.00     0.009 A 
HETATM   22  C   UNL     1      42.536 -16.606   2.933  1.00  0.00     0.071 A 
HETATM   23  C   UNL     1      43.968 -16.681   4.901  1.00  0.00     0.018 A 
HETATM   24  N   UNL     1      41.715 -15.996   2.063  1.00  0.00    -0.253 NA
HETATM   25  C   UNL     1      42.902 -17.913   2.659  1.00  0.00     0.074 A 
HETATM   26  C   UNL     1      41.350 -14.713   2.280  1.00  0.00     0.032 A 
HETATM   27  C   UNL     1      40.484 -14.056   1.247  1.00  0.00     0.070 C 
HETATM   28  C   UNL     1      41.745 -14.017   3.403  1.00  0.00     0.044 A 
HETATM   29  C   UNL     1      43.777 -18.602   3.488  1.00  0.00     0.118 A 
HETATM   30  F   UNL     1      44.106 -19.867   3.197  1.00  0.00    -0.206 F 
HETATM   31  C   UNL     1      44.325 -17.995   4.603  1.00  0.00     0.043 A 
ENDBRANCH   1  20
TORSDOF 3
ENDMDL
MODEL 6
REMARK VINA RESULT:      -8.8      3.168      8.432
REMARK  3 active torsions:
REMARK  status: ('A' for Active; 'I' for Inactive)
REMARK    1  A    between atoms: C_6  and  C_7 
REMARK       I    between atoms: C_7  and  N_8 
REMARK    2  A    between atoms: N_8  and  C_9 
REMARK    3  A    between atoms: C_16  and  C_17 
REMARK       I    between atoms: C_17  and  N_18 
ROOT
HETATM    1  C   UNL     1      41.119 -14.256   1.061  1.00  0.00     0.257 C 
HETATM    2  N   UNL     1      40.961 -15.549   1.522  1.00  0.00    -0.323 N 
HETATM    3  O   UNL     1      42.054 -13.501   1.297  1.00  0.00    -0.267 OA
HETATM    4  H   UNL     1      40.166 -16.073   1.180  1.00  0.00     0.169 HD
ENDROOT
BRANCH   2   5
HETATM    5  C   UNL     1      41.802 -16.233   2.425  1.00  0.00     0.036 A 
HETATM    6  C   UNL     1      41.832 -15.963   3.800  1.00  0.00     0.046 A 
HETATM    7  C   UNL     1      42.660 -16.739   4.641  1.00  0.00     0.030 A 
HETATM    8  C   UNL     1      43.462 -17.721   4.072  1.00  0.00     0.063 A 
HETATM    9  C   UNL     1      42.906 -16.829   6.044  1.00  0.00     0.156 A 
HETATM   10  N   UNL     1      44.156 -18.269   5.114  1.00  0.00    -0.277 N 
HETATM   11  C   UNL     1      43.468 -18.004   2.705  1.00  0.00     0.034 A 
HETATM   12  H   UNL     1      44.851 -19.006   5.069  1.00  0.00     0.189 HD
HETATM   13  N   UNL     1      43.837 -17.772   6.320  1.00  0.00    -0.168 NA
HETATM   14  C   UNL     1      42.602 -17.255   1.899  1.00  0.00     0.032 A 
BRANCH   9  15
HETATM   15  C   UNL     1      42.255 -16.068   7.120  1.00  0.00     0.270 C 
HETATM   16  N   UNL     1      40.908 -15.896   6.947  1.00  0.00    -0.365 N 
HETATM   17  H   UNL     1      40.479 -16.261   6.105  1.00  0.00     0.159 HD
HETATM   18  H   UNL     1      40.388 -15.338   7.604  1.00  0.00     0.159 HD
HETATM   19  O   UNL     1      42.834 -15.590   8.090  1.00  0.00    -0.266 OA
ENDBRANCH   9  15
ENDBRANCH   2   5
BRANCH   1  20
HETATM   20  C   UNL     1      39.998 -13.736   0.233  1.00  0.00     0.046 A 
HETATM   21  C   UNL     1      39.162 -12.656   0.609  1.00  0.00     0.009 A 
HETATM   22  C   UNL     1      38.236 -12.225  -0.367  1.00  0.00     0.071 A 
HETATM   23  C   UNL     1      39.170 -12.005   1.871  1.00  0.00     0.018 A 
HETATM   24  N   UNL     1      38.096 -12.825  -1.560  1.00  0.00    -0.253 NA
HETATM   25  C   UNL     1      37.422 -11.139  -0.096  1.00  0.00     0.074 A 
HETATM   26  C   UNL     1      38.855 -13.903  -1.856  1.00  0.00     0.032 A 
HETATM   27  C   UNL     1      38.616 -14.576  -3.174  1.00  0.00     0.070 C 
HETATM   28  C   UNL     1      39.821 -14.380  -0.995  1.00  0.00     0.044 A 
HETATM   29  C   UNL     1      37.478 -10.486   1.127  1.00  0.00     0.118 A 
HETATM   30  F   UNL     1      36.680  -9.435   1.354  1.00  0.00    -0.206 F 
HETATM   31  C   UNL     1      38.338 -10.916   2.122  1.00  0.00     0.043 A 
ENDBRANCH   1  20
TORSDOF 3
ENDMDL
MODEL 7
REMARK VINA RESULT:      -8.7      5.563      8.438
REMARK  3 active torsions:
REMARK  status: ('A' for Active; 'I' for Inactive)
REMARK    1  A    between atoms: C_6  and  C_7 
REMARK       I    between atoms: C_7  and  N_8 
REMARK    2  A    between atoms: N_8  and  C_9 
REMARK    3  A    between atoms: C_16  and  C_17 
REMARK       I    between atoms: C_17  and  N_18 
ROOT
HETATM    1  C   UNL     1      43.220 -14.340   6.244  1.00  0.00     0.257 C 
HETATM    2  N   UNL     1      43.643 -13.124   5.741  1.00  0.00    -0.323 N 
HETATM    3  O   UNL     1      43.042 -14.626   7.422  1.00  0.00    -0.267 OA
HETATM    4  H   UNL     1      43.674 -13.020   4.735  1.00  0.00     0.169 HD
ENDROOT
BRANCH   2   5
HETATM    5  C   UNL     1      44.035 -11.992   6.486  1.00  0.00     0.036 A 
HETATM    6  C   UNL     1      43.125 -11.138   7.122  1.00  0.00     0.046 A 
HETATM    7  C   UNL     1      43.608 -10.064   7.900  1.00  0.00     0.030 A 
HETATM    8  C   UNL     1      44.980  -9.852   7.973  1.00  0.00     0.063 A 
HETATM    9  C   UNL     1      43.036  -9.057   8.734  1.00  0.00     0.156 A 
HETATM   10  N   UNL     1      45.135  -8.744   8.758  1.00  0.00    -0.277 N 
HETATM   11  C   UNL     1      45.914 -10.674   7.339  1.00  0.00     0.034 A 
HETATM   12  H   UNL     1      46.004  -8.289   9.013  1.00  0.00     0.189 HD
HETATM   13  N   UNL     1      43.989  -8.246   9.250  1.00  0.00    -0.168 NA
HETATM   14  C   UNL     1      45.411 -11.763   6.615  1.00  0.00     0.032 A 
BRANCH   9  15
HETATM   15  C   UNL     1      41.618  -8.874   9.075  1.00  0.00     0.270 C 
HETATM   16  N   UNL     1      41.203  -9.608  10.153  1.00  0.00    -0.365 N 
HETATM   17  H   UNL     1      41.869 -10.226  10.601  1.00  0.00     0.159 HD
HETATM   18  H   UNL     1      40.233  -9.590  10.425  1.00  0.00     0.159 HD
HETATM   19  O   UNL     1      40.836  -8.158   8.458  1.00  0.00    -0.266 OA
ENDBRANCH   9  15
ENDBRANCH   2   5
BRANCH   1  20
HETATM   20  C   UNL     1      43.013 -15.409   5.230  1.00  0.00     0.046 A 
HETATM   21  C   UNL     1      42.074 -15.333   4.172  1.00  0.00     0.009 A 
HETATM   22  C   UNL     1      42.114 -16.391   3.237  1.00  0.00     0.071 A 
HETATM   23  C   UNL     1      41.104 -14.310   3.999  1.00  0.00     0.018 A 
HETATM   24  N   UNL     1      42.939 -17.443   3.356  1.00  0.00    -0.253 NA
HETATM   25  C   UNL     1      41.266 -16.362   2.143  1.00  0.00     0.074 A 
HETATM   26  C   UNL     1      43.767 -17.524   4.420  1.00  0.00     0.032 A 
HETATM   27  C   UNL     1      44.622 -18.749   4.541  1.00  0.00     0.070 C 
HETATM   28  C   UNL     1      43.842 -16.526   5.369  1.00  0.00     0.044 A 
HETATM   29  C   UNL     1      40.357 -15.328   1.966  1.00  0.00     0.118 A 
HETATM   30  F   UNL     1      39.555 -15.327   0.894  1.00  0.00    -0.206 F 
HETATM   31  C   UNL     1      40.257 -14.304   2.892  1.00  0.00     0.043 A 
ENDBRANCH   1  20
TORSDOF 3
ENDMDL
MODEL 8
REMARK VINA RESULT:      -8.7      5.216      7.916
REMARK  3 active torsions:
REMARK  status: ('A' for Active; 'I' for Inactive)
REMARK    1  A    between atoms: C_6  and  C_7 
REMARK       I    between atoms: C_7  and  N_8 
REMARK    2  A    between atoms: N_8  and  C_9 
REMARK    3  A    between atoms: C_16  and  C_17 
REMARK       I    between atoms: C_17  and  N_18 
ROOT
HETATM    1  C   UNL     1      41.473 -13.764   5.190  1.00  0.00     0.257 C 
HETATM    2  N   UNL     1      42.028 -12.548   4.834  1.00  0.00    -0.323 N 
HETATM    3  O   UNL     1      40.915 -14.036   6.246  1.00  0.00    -0.267 OA
HETATM    4  H   UNL     1      42.392 -12.458   3.895  1.00  0.00     0.169 HD
ENDROOT
BRANCH   2   5
HETATM    5  C   UNL     1      42.138 -11.401   5.647  1.00  0.00     0.036 A 
HETATM    6  C   UNL     1      43.220 -11.170   6.507  1.00  0.00     0.046 A 
HETATM    7  C   UNL     1      43.280  -9.964   7.238  1.00  0.00     0.030 A 
HETATM    8  C   UNL     1      42.236  -9.055   7.121  1.00  0.00     0.063 A 
HETATM    9  C   UNL     1      44.212  -9.342   8.124  1.00  0.00     0.156 A 
HETATM   10  N   UNL     1      42.560  -8.021   7.954  1.00  0.00    -0.277 N 
HETATM   11  C   UNL     1      41.136  -9.261   6.285  1.00  0.00     0.034 A 
HETATM   12  H   UNL     1      42.016  -7.186   8.135  1.00  0.00     0.189 HD
HETATM   13  N   UNL     1      43.750  -8.148   8.562  1.00  0.00    -0.168 NA
HETATM   14  C   UNL     1      41.124 -10.441   5.533  1.00  0.00     0.032 A 
BRANCH   9  15
HETATM   15  C   UNL     1      45.535  -9.840   8.528  1.00  0.00     0.270 C 
HETATM   16  N   UNL     1      46.577  -9.278   7.842  1.00  0.00    -0.365 N 
HETATM   17  H   UNL     1      46.369  -8.610   7.110  1.00  0.00     0.159 HD
HETATM   18  H   UNL     1      47.516  -9.599   8.012  1.00  0.00     0.159 HD
HETATM   19  O   UNL     1      45.728 -10.699   9.381  1.00  0.00    -0.266 OA
ENDBRANCH   9  15
ENDBRANCH   2   5
BRANCH   1  20
HETATM   20  C   UNL     1      41.627 -14.850   4.185  1.00  0.00     0.046 A 
HETATM   21  C   UNL     1      42.544 -15.923   4.304  1.00  0.00     0.009 A 
HETATM   22  C   UNL     1      42.452 -16.924   3.311  1.00  0.00     0.071 A 
HETATM   23  C   UNL     1      43.539 -16.053   5.309  1.00  0.00     0.018 A 
HETATM   24  N   UNL     1      41.599 -16.854   2.277  1.00  0.00    -0.253 NA
HETATM   25  C   UNL     1      43.276 -18.034   3.389  1.00  0.00     0.074 A 
HETATM   26  C   UNL     1      40.794 -15.777   2.150  1.00  0.00     0.032 A 
HETATM   27  C   UNL     1      39.906 -15.716   0.943  1.00  0.00     0.070 C 
HETATM   28  C   UNL     1      40.769 -14.764   3.085  1.00  0.00     0.044 A 
HETATM   29  C   UNL     1      44.210 -18.165   4.407  1.00  0.00     0.118 A 
HETATM   30  F   UNL     1      44.988 -19.254   4.456  1.00  0.00    -0.206 F 
HETATM   31  C   UNL     1      44.360 -17.177   5.364  1.00  0.00     0.043 A 
ENDBRANCH   1  20
TORSDOF 3
ENDMDL
MODEL 9
REMARK VINA RESULT:      -8.7      4.850      7.847
REMARK  3 active torsions:
REMARK  status: ('A' for Active; 'I' for Inactive)
REMARK    1  A    between atoms: C_6  and  C_7 
REMARK       I    between atoms: C_7  and  N_8 
REMARK    2  A    between atoms: N_8  and  C_9 
REMARK    3  A    between atoms: C_16  and  C_17 
REMARK       I    between atoms: C_17  and  N_18 
ROOT
HETATM    1  C   UNL     1      41.706 -14.233   5.539  1.00  0.00     0.257 C 
HETATM    2  N   UNL     1      42.665 -14.451   4.568  1.00  0.00    -0.323 N 
HETATM    3  O   UNL     1      40.949 -15.065   6.025  1.00  0.00    -0.267 OA
HETATM    4  H   UNL     1      43.264 -13.674   4.319  1.00  0.00     0.169 HD
ENDROOT
BRANCH   2   5
HETATM    5  C   UNL     1      42.910 -15.657   3.879  1.00  0.00     0.036 A 
HETATM    6  C   UNL     1      43.286 -16.845   4.520  1.00  0.00     0.046 A 
HETATM    7  C   UNL     1      43.450 -18.023   3.758  1.00  0.00     0.030 A 
HETATM    8  C   UNL     1      43.281 -17.960   2.381  1.00  0.00     0.063 A 
HETATM    9  C   UNL     1      43.738 -19.394   4.032  1.00  0.00     0.156 A 
HETATM   10  N   UNL     1      43.530 -19.225   1.927  1.00  0.00    -0.277 N 
HETATM   11  C   UNL     1      42.922 -16.789   1.709  1.00  0.00     0.034 A 
HETATM   12  H   UNL     1      43.516 -19.546   0.965  1.00  0.00     0.189 HD
HETATM   13  N   UNL     1      43.791 -20.121   2.892  1.00  0.00    -0.168 NA
HETATM   14  C   UNL     1      42.716 -15.647   2.491  1.00  0.00     0.032 A 
BRANCH   9  15
HETATM   15  C   UNL     1      43.926 -20.027   5.345  1.00  0.00     0.270 C 
HETATM   16  N   UNL     1      44.638 -21.195   5.307  1.00  0.00    -0.365 N 
HETATM   17  H   UNL     1      44.943 -21.544   4.406  1.00  0.00     0.159 HD
HETATM   18  H   UNL     1      44.767 -21.728   6.151  1.00  0.00     0.159 HD
HETATM   19  O   UNL     1      43.479 -19.592   6.402  1.00  0.00    -0.266 OA
ENDBRANCH   9  15
ENDBRANCH   2   5
BRANCH   1  20
HETATM   20  C   UNL     1      41.568 -12.822   5.989  1.00  0.00     0.046 A 
HETATM   21  C   UNL     1      42.629 -12.046   6.517  1.00  0.00     0.009 A 
HETATM   22  C   UNL     1      42.332 -10.688   6.769  1.00  0.00     0.071 A 
HETATM   23  C   UNL     1      43.931 -12.525   6.826  1.00  0.00     0.018 A 
HETATM   24  N   UNL     1      41.113 -10.158   6.586  1.00  0.00    -0.253 NA
HETATM   25  C   UNL     1      43.333  -9.850   7.233  1.00  0.00     0.074 A 
HETATM   26  C   UNL     1      40.103 -10.945   6.157  1.00  0.00     0.032 A 
HETATM   27  C   UNL     1      38.745 -10.322   6.029  1.00  0.00     0.070 C 
HETATM   28  C   UNL     1      40.291 -12.274   5.838  1.00  0.00     0.044 A 
HETATM   29  C   UNL     1      44.611 -10.328   7.483  1.00  0.00     0.118 A 
HETATM   30  F   UNL     1      45.557  -9.489   7.926  1.00  0.00    -0.206 F 
HETATM   31  C   UNL     1      44.920 -11.664   7.296  1.00  0.00     0.043 A 
ENDBRANCH   1  20
TORSDOF 3
ENDMDL
MODEL 10
REMARK VINA RESULT:      -8.2     14.776     17.751
REMARK  3 active torsions:
REMARK  status: ('A' for Active; 'I' for Inactive)
REMARK    1  A    between atoms: C_6  and  C_7 
REMARK       I    between atoms: C_7  and  N_8 
REMARK    2  A    between atoms: N_8  and  C_9 
REMARK    3  A    between atoms: C_16  and  C_17 
REMARK       I    between atoms: C_17  and  N_18 
ROOT
HETATM    1  C   UNL     1      41.009  -5.936  16.952  1.00  0.00     0.257 C 
HETATM    2  N   UNL     1      41.669  -7.114  16.657  1.00  0.00    -0.323 N 
HETATM    3  O   UNL     1      40.515  -5.151  16.152  1.00  0.00    -0.267 OA
HETATM    4  H   UNL     1      41.960  -7.694  17.434  1.00  0.00     0.169 HD
ENDROOT
BRANCH   2   5
HETATM    5  C   UNL     1      41.982  -7.608  15.373  1.00  0.00     0.036 A 
HETATM    6  C   UNL     1      41.238  -8.607  14.732  1.00  0.00     0.046 A 
HETATM    7  C   UNL     1      41.585  -8.998  13.421  1.00  0.00     0.030 A 
HETATM    8  C   UNL     1      42.692  -8.413  12.817  1.00  0.00     0.063 A 
HETATM    9  C   UNL     1      41.055  -9.885  12.436  1.00  0.00     0.156 A 
HETATM   10  N   UNL     1      42.790  -9.005  11.590  1.00  0.00    -0.277 N 
HETATM   11  C   UNL     1      43.465  -7.427  13.434  1.00  0.00     0.034 A 
HETATM   12  H   UNL     1      43.494  -8.835  10.880  1.00  0.00     0.189 HD
HETATM   13  N   UNL     1      41.812  -9.884  11.315  1.00  0.00    -0.168 NA
HETATM   14  C   UNL     1      43.070  -7.020  14.714  1.00  0.00     0.032 A 
BRANCH   9  15
HETATM   15  C   UNL     1      39.833 -10.698  12.526  1.00  0.00     0.270 C 
HETATM   16  N   UNL     1      39.093 -10.725  11.376  1.00  0.00    -0.365 N 
HETATM   17  H   UNL     1      39.409 -10.175  10.586  1.00  0.00     0.159 HD
HETATM   18  H   UNL     1      38.210 -11.210  11.362  1.00  0.00     0.159 HD
HETATM   19  O   UNL     1      39.462 -11.295  13.532  1.00  0.00    -0.266 OA
ENDBRANCH   9  15
ENDBRANCH   2   5
BRANCH   1  20
HETATM   20  C   UNL     1      40.948  -5.587  18.397  1.00  0.00     0.046 A 
HETATM   21  C   UNL     1      40.458  -6.453  19.406  1.00  0.00     0.009 A 
HETATM   22  C   UNL     1      40.600  -5.992  20.734  1.00  0.00     0.071 A 
HETATM   23  C   UNL     1      39.829  -7.708  19.186  1.00  0.00     0.018 A 
HETATM   24  N   UNL     1      41.107  -4.788  21.041  1.00  0.00    -0.253 NA
HETATM   25  C   UNL     1      40.196  -6.804  21.780  1.00  0.00     0.074 A 
HETATM   26  C   UNL     1      41.492  -3.954  20.050  1.00  0.00     0.032 A 
HETATM   27  C   UNL     1      41.992  -2.596  20.442  1.00  0.00     0.070 C 
HETATM   28  C   UNL     1      41.439  -4.320  18.721  1.00  0.00     0.044 A 
HETATM   29  C   UNL     1      39.627  -8.048  21.546  1.00  0.00     0.118 A 
HETATM   30  F   UNL     1      39.254  -8.811  22.581  1.00  0.00    -0.206 F 
HETATM   31  C   UNL     1      39.428  -8.506  20.255  1.00  0.00     0.043 A 
ENDBRANCH   1  20
TORSDOF 3
ENDMDL
