MODEL 1
REMARK VINA RESULT:      -9.5      0.000      0.000
REMARK  6 active torsions:
REMARK  status: ('A' for Active; 'I' for Inactive)
REMARK    1  A    between atoms: O_2  and  C_3 
REMARK    2  A    between atoms: C_6  and  C_7 
REMARK    3  A    between atoms: C_7  and  N_8 
REMARK       I    between atoms: N_8  and  C_9 
REMARK    4  A    between atoms: C_9  and  C_10 
REMARK    5  A    between atoms: C_10  and  O_11 
REMARK    6  A    between atoms: N_12  and  C_13 
ROOT
HETATM    1  C   UNL     1      42.572 -15.874   3.138  1.00  0.00     0.256 C 
HETATM    2  N   UNL     1      42.613 -15.258   4.470  1.00  0.00    -0.248 N 
HETATM    3  C   UNL     1      43.588 -15.635   5.379  1.00  0.00     0.330 C 
HETATM    4  O   UNL     1      43.948 -14.955   6.339  1.00  0.00    -0.246 OA
HETATM    5  N   UNL     1      44.180 -16.848   5.190  1.00  0.00    -0.308 N 
HETATM    6  C   UNL     1      43.835 -17.752   4.194  1.00  0.00     0.048 A 
HETATM    7  C   UNL     1      42.989 -17.338   3.169  1.00  0.00     0.034 A 
HETATM    8  C   UNL     1      44.344 -19.053   4.246  1.00  0.00     0.030 A 
HETATM    9  C   UNL     1      43.982 -19.973   3.266  1.00  0.00     0.002 A 
HETATM   10  C   UNL     1      43.133 -19.585   2.233  1.00  0.00     0.001 A 
HETATM   11  C   UNL     1      42.650 -18.274   2.174  1.00  0.00     0.015 A 
HETATM   12  H   UNL     1      44.830 -17.113   5.917  1.00  0.00     0.170 HD
ENDROOT
BRANCH   1  13
HETATM   13  C   UNL     1      41.143 -15.746   2.442  1.00  0.00     0.279 C 
HETATM   14  N   UNL     1      41.197 -15.119   1.205  1.00  0.00    -0.352 N 
HETATM   15  H   UNL     1      42.119 -14.895   0.841  1.00  0.00     0.162 HD
HETATM   16  O   UNL     1      40.093 -16.156   2.932  1.00  0.00    -0.268 OA
BRANCH  14  17
HETATM   17  C   UNL     1      40.037 -14.889   0.384  1.00  0.00     0.161 C 
BRANCH  17  18
HETATM   18  C   UNL     1      40.300 -13.830  -0.652  1.00  0.00    -0.040 A 
HETATM   19  C   UNL     1      40.044 -14.087  -2.006  1.00  0.00     0.011 A 
HETATM   20  C   UNL     1      40.260 -13.100  -2.974  1.00  0.00     0.037 A 
HETATM   21  C   UNL     1      40.741 -11.846  -2.601  1.00  0.00     0.068 A 
HETATM   22  C   UNL     1      41.036 -11.600  -1.259  1.00  0.00     0.037 A 
HETATM   23  C   UNL     1      40.818 -12.581  -0.289  1.00  0.00     0.011 A 
BRANCH  21  24
HETATM   24  O   UNL     1      40.975 -10.794  -3.444  1.00  0.00    -0.356 OA
HETATM   25  C   UNL     1      40.984  -9.499  -2.854  1.00  0.00     0.210 C 
ENDBRANCH  21  24
ENDBRANCH  17  18
ENDBRANCH  14  17
ENDBRANCH   1  13
BRANCH   1  26
HETATM   26  O   UNL     1      43.557 -15.212   2.332  1.00  0.00    -0.359 OA
HETATM   27  H   UNL     1      43.140 -14.364   2.099  1.00  0.00     0.213 HD
ENDBRANCH   1  26
BRANCH   2  28
HETATM   28  C   UNL     1      41.779 -14.137   4.810  1.00  0.00     0.120 A 
HETATM   29  C   UNL     1      42.019 -12.843   4.336  1.00  0.00     0.146 A 
HETATM   30  F   UNL     1      43.105 -12.586   3.591  1.00  0.00    -0.204 F 
HETATM   31  C   UNL     1      41.187 -11.772   4.668  1.00  0.00     0.045 A 
HETATM   32  C   UNL     1      40.083 -11.978   5.493  1.00  0.00     0.006 A 
HETATM   33  C   UNL     1      39.821 -13.255   5.980  1.00  0.00     0.045 A 
HETATM   34  C   UNL     1      40.661 -14.317   5.639  1.00  0.00     0.146 A 
HETATM   35  F   UNL     1      40.320 -15.543   6.069  1.00  0.00    -0.204 F 
ENDBRANCH   2  28
TORSDOF 6
ENDMDL
MODEL 2
REMARK VINA RESULT:      -9.3      2.450      6.862
REMARK  6 active torsions:
REMARK  status: ('A' for Active; 'I' for Inactive)
REMARK    1  A    between atoms: O_2  and  C_3 
REMARK    2  A    between atoms: C_6  and  C_7 
REMARK    3  A    between atoms: C_7  and  N_8 
REMARK       I    between atoms: N_8  and  C_9 
REMARK    4  A    between atoms: C_9  and  C_10 
REMARK    5  A    between atoms: C_10  and  O_11 
REMARK    6  A    between atoms: N_12  and  C_13 
ROOT
HETATM    1  C   UNL     1      40.494 -13.736   3.286  1.00  0.00     0.256 C 
HETATM    2  N   UNL     1      40.570 -13.428   4.719  1.00  0.00    -0.248 N 
HETATM    3  C   UNL     1      39.641 -12.578   5.296  1.00  0.00     0.330 C 
HETATM    4  O   UNL     1      39.376 -12.543   6.498  1.00  0.00    -0.246 OA
HETATM    5  N   UNL     1      38.981 -11.721   4.467  1.00  0.00    -0.308 N 
HETATM    6  C   UNL     1      39.217 -11.597   3.104  1.00  0.00     0.048 A 
HETATM    7  C   UNL     1      40.012 -12.547   2.467  1.00  0.00     0.034 A 
HETATM    8  C   UNL     1      38.654 -10.526   2.406  1.00  0.00     0.030 A 
HETATM    9  C   UNL     1      38.907 -10.381   1.045  1.00  0.00     0.002 A 
HETATM   10  C   UNL     1      39.702 -11.314   0.387  1.00  0.00     0.001 A 
HETATM   11  C   UNL     1      40.241 -12.398   1.087  1.00  0.00     0.015 A 
HETATM   12  H   UNL     1      38.370 -11.070   4.939  1.00  0.00     0.170 HD
ENDROOT
BRANCH   1  13
HETATM   13  C   UNL     1      41.878 -14.261   2.693  1.00  0.00     0.279 C 
HETATM   14  N   UNL     1      41.815 -15.574   2.248  1.00  0.00    -0.352 N 
HETATM   15  H   UNL     1      40.903 -16.022   2.260  1.00  0.00     0.162 HD
HETATM   16  O   UNL     1      42.904 -13.587   2.626  1.00  0.00    -0.268 OA
BRANCH  14  17
HETATM   17  C   UNL     1      42.936 -16.268   1.670  1.00  0.00     0.161 C 
BRANCH  17  18
HETATM   18  C   UNL     1      43.331 -17.458   2.502  1.00  0.00    -0.040 A 
HETATM   19  C   UNL     1      43.307 -18.746   1.950  1.00  0.00     0.011 A 
HETATM   20  C   UNL     1      43.698 -19.856   2.708  1.00  0.00     0.037 A 
HETATM   21  C   UNL     1      44.113 -19.692   4.028  1.00  0.00     0.068 A 
HETATM   22  C   UNL     1      44.100 -18.416   4.594  1.00  0.00     0.037 A 
HETATM   23  C   UNL     1      43.713 -17.305   3.841  1.00  0.00     0.011 A 
BRANCH  21  24
HETATM   24  O   UNL     1      44.537 -20.688   4.865  1.00  0.00    -0.356 OA
HETATM   25  C   UNL     1      43.830 -20.829   6.091  1.00  0.00     0.210 C 
ENDBRANCH  21  24
ENDBRANCH  17  18
ENDBRANCH  14  17
ENDBRANCH   1  13
BRANCH   1  26
HETATM   26  O   UNL     1      39.490 -14.748   3.121  1.00  0.00    -0.359 OA
HETATM   27  H   UNL     1      39.734 -15.189   2.289  1.00  0.00     0.213 HD
ENDBRANCH   1  26
BRANCH   2  28
HETATM   28  C   UNL     1      41.476 -14.122   5.594  1.00  0.00     0.120 A 
HETATM   29  C   UNL     1      42.691 -13.573   6.017  1.00  0.00     0.146 A 
HETATM   30  F   UNL     1      43.095 -12.382   5.547  1.00  0.00    -0.204 F 
HETATM   31  C   UNL     1      43.549 -14.259   6.879  1.00  0.00     0.045 A 
HETATM   32  C   UNL     1      43.202 -15.527   7.341  1.00  0.00     0.006 A 
HETATM   33  C   UNL     1      41.999 -16.099   6.936  1.00  0.00     0.045 A 
HETATM   34  C   UNL     1      41.152 -15.400   6.075  1.00  0.00     0.146 A 
HETATM   35  F   UNL     1      39.968 -15.960   5.777  1.00  0.00    -0.204 F 
ENDBRANCH   2  28
TORSDOF 6
ENDMDL
MODEL 3
REMARK VINA RESULT:      -9.1      2.269      6.730
REMARK  6 active torsions:
REMARK  status: ('A' for Active; 'I' for Inactive)
REMARK    1  A    between atoms: O_2  and  C_3 
REMARK    2  A    between atoms: C_6  and  C_7 
REMARK    3  A    between atoms: C_7  and  N_8 
REMARK       I    between atoms: N_8  and  C_9 
REMARK    4  A    between atoms: C_9  and  C_10 
REMARK    5  A    between atoms: C_10  and  O_11 
REMARK    6  A    between atoms: N_12  and  C_13 
ROOT
HETATM    1  C   UNL     1      40.110 -13.182   1.214  1.00  0.00     0.256 C 
HETATM    2  N   UNL     1      40.989 -12.266   1.951  1.00  0.00    -0.248 N 
HETATM    3  C   UNL     1      41.353 -11.053   1.389  1.00  0.00     0.330 C 
HETATM    4  O   UNL     1      41.751 -10.079   2.027  1.00  0.00    -0.246 OA
HETATM    5  N   UNL     1      41.266 -10.943   0.033  1.00  0.00    -0.308 N 
HETATM    6  C   UNL     1      40.899 -11.972  -0.823  1.00  0.00     0.048 A 
HETATM    7  C   UNL     1      40.364 -13.140  -0.286  1.00  0.00     0.034 A 
HETATM    8  C   UNL     1      41.075 -11.812  -2.200  1.00  0.00     0.030 A 
HETATM    9  C   UNL     1      40.734 -12.849  -3.064  1.00  0.00     0.002 A 
HETATM   10  C   UNL     1      40.202 -14.028  -2.551  1.00  0.00     0.001 A 
HETATM   11  C   UNL     1      40.004 -14.171  -1.174  1.00  0.00     0.015 A 
HETATM   12  H   UNL     1      41.612 -10.069  -0.338  1.00  0.00     0.170 HD
ENDROOT
BRANCH   1  13
HETATM   13  C   UNL     1      40.219 -14.688   1.727  1.00  0.00     0.279 C 
HETATM   14  N   UNL     1      41.500 -15.210   1.609  1.00  0.00    -0.352 N 
HETATM   15  H   UNL     1      42.231 -14.575   1.304  1.00  0.00     0.162 HD
HETATM   16  O   UNL     1      39.279 -15.335   2.186  1.00  0.00    -0.268 OA
BRANCH  14  17
HETATM   17  C   UNL     1      41.848 -16.550   2.007  1.00  0.00     0.161 C 
BRANCH  17  18
HETATM   18  C   UNL     1      42.282 -16.598   3.447  1.00  0.00    -0.040 A 
HETATM   19  C   UNL     1      41.334 -16.495   4.475  1.00  0.00     0.011 A 
HETATM   20  C   UNL     1      41.725 -16.566   5.817  1.00  0.00     0.037 A 
HETATM   21  C   UNL     1      43.069 -16.735   6.147  1.00  0.00     0.068 A 
HETATM   22  C   UNL     1      44.020 -16.796   5.127  1.00  0.00     0.037 A 
HETATM   23  C   UNL     1      43.634 -16.730   3.786  1.00  0.00     0.011 A 
BRANCH  21  24
HETATM   24  O   UNL     1      43.576 -16.838   7.414  1.00  0.00    -0.356 OA
HETATM   25  C   UNL     1      43.234 -15.796   8.320  1.00  0.00     0.210 C 
ENDBRANCH  21  24
ENDBRANCH  17  18
ENDBRANCH  14  17
ENDBRANCH   1  13
BRANCH   1  26
HETATM   26  O   UNL     1      38.765 -12.715   1.389  1.00  0.00    -0.359 OA
HETATM   27  H   UNL     1      38.263 -13.518   1.615  1.00  0.00     0.213 HD
ENDBRANCH   1  26
BRANCH   2  28
HETATM   28  C   UNL     1      41.347 -12.502   3.323  1.00  0.00     0.120 A 
HETATM   29  C   UNL     1      40.437 -12.373   4.377  1.00  0.00     0.146 A 
HETATM   30  F   UNL     1      39.188 -11.941   4.143  1.00  0.00    -0.204 F 
HETATM   31  C   UNL     1      40.803 -12.621   5.702  1.00  0.00     0.045 A 
HETATM   32  C   UNL     1      42.108 -13.009   6.001  1.00  0.00     0.006 A 
HETATM   33  C   UNL     1      43.036 -13.144   4.972  1.00  0.00     0.045 A 
HETATM   34  C   UNL     1      42.654 -12.893   3.653  1.00  0.00     0.146 A 
HETATM   35  F   UNL     1      43.563 -13.114   2.690  1.00  0.00    -0.204 F 
ENDBRANCH   2  28
TORSDOF 6
ENDMDL
MODEL 4
REMARK VINA RESULT:      -9.1      1.663      2.059
REMARK  6 active torsions:
REMARK  status: ('A' for Active; 'I' for Inactive)
REMARK    1  A    between atoms: O_2  and  C_3 
REMARK    2  A    between atoms: C_6  and  C_7 
REMARK    3  A    between atoms: C_7  and  N_8 
REMARK       I    between atoms: N_8  and  C_9 
REMARK    4  A    between atoms: C_9  and  C_10 
REMARK    5  A    between atoms: C_10  and  O_11 
REMARK    6  A    between atoms: N_12  and  C_13 
ROOT
HETATM    1  C   UNL     1      42.676 -16.037   3.197  1.00  0.00     0.256 C 
HETATM    2  N   UNL     1      42.737 -15.484   4.554  1.00  0.00    -0.248 N 
HETATM    3  C   UNL     1      43.686 -15.949   5.450  1.00  0.00     0.330 C 
HETATM    4  O   UNL     1      44.072 -15.331   6.443  1.00  0.00    -0.246 OA
HETATM    5  N   UNL     1      44.220 -17.179   5.210  1.00  0.00    -0.308 N 
HETATM    6  C   UNL     1      43.839 -18.020   4.173  1.00  0.00     0.048 A 
HETATM    7  C   UNL     1      43.021 -17.520   3.163  1.00  0.00     0.034 A 
HETATM    8  C   UNL     1      44.282 -19.345   4.168  1.00  0.00     0.030 A 
HETATM    9  C   UNL     1      43.883 -20.202   3.146  1.00  0.00     0.002 A 
HETATM   10  C   UNL     1      43.062 -19.727   2.128  1.00  0.00     0.001 A 
HETATM   11  C   UNL     1      42.644 -18.392   2.126  1.00  0.00     0.015 A 
HETATM   12  H   UNL     1      44.851 -17.508   5.928  1.00  0.00     0.170 HD
ENDROOT
BRANCH   1  13
HETATM   13  C   UNL     1      41.261 -15.808   2.499  1.00  0.00     0.279 C 
HETATM   14  N   UNL     1      41.338 -15.018   1.361  1.00  0.00    -0.352 N 
HETATM   15  H   UNL     1      42.267 -14.751   1.046  1.00  0.00     0.162 HD
HETATM   16  O   UNL     1      40.200 -16.276   2.910  1.00  0.00    -0.268 OA
BRANCH  14  17
HETATM   17  C   UNL     1      40.193 -14.672   0.559  1.00  0.00     0.161 C 
BRANCH  17  18
HETATM   18  C   UNL     1      39.801 -13.233   0.756  1.00  0.00    -0.040 A 
HETATM   19  C   UNL     1      39.831 -12.337  -0.322  1.00  0.00     0.011 A 
HETATM   20  C   UNL     1      39.442 -11.004  -0.154  1.00  0.00     0.037 A 
HETATM   21  C   UNL     1      39.023 -10.548   1.095  1.00  0.00     0.068 A 
HETATM   22  C   UNL     1      39.031 -11.426   2.179  1.00  0.00     0.037 A 
HETATM   23  C   UNL     1      39.415 -12.759   2.016  1.00  0.00     0.011 A 
BRANCH  21  24
HETATM   24  O   UNL     1      38.601  -9.279   1.384  1.00  0.00    -0.356 OA
HETATM   25  C   UNL     1      38.104  -9.061   2.699  1.00  0.00     0.210 C 
ENDBRANCH  21  24
ENDBRANCH  17  18
ENDBRANCH  14  17
ENDBRANCH   1  13
BRANCH   1  26
HETATM   26  O   UNL     1      43.698 -15.388   2.426  1.00  0.00    -0.359 OA
HETATM   27  H   UNL     1      44.380 -15.162   3.081  1.00  0.00     0.213 HD
ENDBRANCH   1  26
BRANCH   2  28
HETATM   28  C   UNL     1      41.957 -14.340   4.940  1.00  0.00     0.120 A 
HETATM   29  C   UNL     1      42.293 -13.033   4.571  1.00  0.00     0.146 A 
HETATM   30  F   UNL     1      43.424 -12.794   3.889  1.00  0.00    -0.204 F 
HETATM   31  C   UNL     1      41.511 -11.938   4.945  1.00  0.00     0.045 A 
HETATM   32  C   UNL     1      40.362 -12.132   5.708  1.00  0.00     0.006 A 
HETATM   33  C   UNL     1      40.004 -13.421   6.093  1.00  0.00     0.045 A 
HETATM   34  C   UNL     1      40.795 -14.507   5.710  1.00  0.00     0.146 A 
HETATM   35  F   UNL     1      40.364 -15.736   6.037  1.00  0.00    -0.204 F 
ENDBRANCH   2  28
TORSDOF 6
ENDMDL
MODEL 5
REMARK VINA RESULT:      -8.8      2.297      3.462
REMARK  6 active torsions:
REMARK  status: ('A' for Active; 'I' for Inactive)
REMARK    1  A    between atoms: O_2  and  C_3 
REMARK    2  A    between atoms: C_6  and  C_7 
REMARK    3  A    between atoms: C_7  and  N_8 
REMARK       I    between atoms: N_8  and  C_9 
REMARK    4  A    between atoms: C_9  and  C_10 
REMARK    5  A    between atoms: C_10  and  O_11 
REMARK    6  A    between atoms: N_12  and  C_13 
ROOT
HETATM    1  C   UNL     1      42.326 -13.107   3.928  1.00  0.00     0.256 C 
HETATM    2  N   UNL     1      41.110 -13.021   4.746  1.00  0.00    -0.248 N 
HETATM    3  C   UNL     1      40.659 -14.135   5.435  1.00  0.00     0.330 C 
HETATM    4  O   UNL     1      39.909 -14.097   6.411  1.00  0.00    -0.246 OA
HETATM    5  N   UNL     1      41.077 -15.354   4.992  1.00  0.00    -0.308 N 
HETATM    6  C   UNL     1      41.867 -15.561   3.870  1.00  0.00     0.048 A 
HETATM    7  C   UNL     1      42.476 -14.467   3.260  1.00  0.00     0.034 A 
HETATM    8  C   UNL     1      42.033 -16.859   3.379  1.00  0.00     0.030 A 
HETATM    9  C   UNL     1      42.803 -17.072   2.239  1.00  0.00     0.002 A 
HETATM   10  C   UNL     1      43.417 -15.994   1.609  1.00  0.00     0.001 A 
HETATM   11  C   UNL     1      43.269 -14.701   2.121  1.00  0.00     0.015 A 
HETATM   12  H   UNL     1      40.664 -16.139   5.477  1.00  0.00     0.170 HD
ENDROOT
BRANCH   1  13
HETATM   13  C   UNL     1      42.407 -11.962   2.821  1.00  0.00     0.279 C 
HETATM   14  N   UNL     1      41.517 -12.156   1.773  1.00  0.00    -0.352 N 
HETATM   15  H   UNL     1      40.865 -12.931   1.859  1.00  0.00     0.162 HD
HETATM   16  O   UNL     1      43.169 -10.999   2.873  1.00  0.00    -0.268 OA
BRANCH  14  17
HETATM   17  C   UNL     1      41.403 -11.257   0.655  1.00  0.00     0.161 C 
BRANCH  17  18
HETATM   18  C   UNL     1      40.785 -11.937  -0.535  1.00  0.00    -0.040 A 
HETATM   19  C   UNL     1      41.209 -11.618  -1.833  1.00  0.00     0.011 A 
HETATM   20  C   UNL     1      40.659 -12.265  -2.944  1.00  0.00     0.037 A 
HETATM   21  C   UNL     1      39.673 -13.235  -2.774  1.00  0.00     0.068 A 
HETATM   22  C   UNL     1      39.219 -13.528  -1.486  1.00  0.00     0.037 A 
HETATM   23  C   UNL     1      39.768 -12.887  -0.373  1.00  0.00     0.011 A 
BRANCH  21  24
HETATM   24  O   UNL     1      39.072 -13.951  -3.773  1.00  0.00    -0.356 OA
HETATM   25  C   UNL     1      38.237 -15.029  -3.365  1.00  0.00     0.210 C 
ENDBRANCH  21  24
ENDBRANCH  17  18
ENDBRANCH  14  17
ENDBRANCH   1  13
BRANCH   1  26
HETATM   26  O   UNL     1      43.446 -12.990   4.817  1.00  0.00    -0.359 OA
HETATM   27  H   UNL     1      43.514 -13.869   5.229  1.00  0.00     0.213 HD
ENDBRANCH   1  26
BRANCH   2  28
HETATM   28  C   UNL     1      40.460 -11.766   5.004  1.00  0.00     0.120 A 
HETATM   29  C   UNL     1      39.314 -11.350   4.317  1.00  0.00     0.146 A 
HETATM   30  F   UNL     1      38.817 -12.096   3.319  1.00  0.00    -0.204 F 
HETATM   31  C   UNL     1      38.690 -10.132   4.595  1.00  0.00     0.045 A 
HETATM   32  C   UNL     1      39.209  -9.293   5.580  1.00  0.00     0.006 A 
HETATM   33  C   UNL     1      40.350  -9.681   6.278  1.00  0.00     0.045 A 
HETATM   34  C   UNL     1      40.961 -10.902   5.990  1.00  0.00     0.146 A 
HETATM   35  F   UNL     1      42.010 -11.266   6.745  1.00  0.00    -0.204 F 
ENDBRANCH   2  28
TORSDOF 6
ENDMDL
MODEL 6
REMARK VINA RESULT:      -8.7      2.992      7.639
REMARK  6 active torsions:
REMARK  status: ('A' for Active; 'I' for Inactive)
REMARK    1  A    between atoms: O_2  and  C_3 
REMARK    2  A    between atoms: C_6  and  C_7 
REMARK    3  A    between atoms: C_7  and  N_8 
REMARK       I    between atoms: N_8  and  C_9 
REMARK    4  A    between atoms: C_9  and  C_10 
REMARK    5  A    between atoms: C_10  and  O_11 
REMARK    6  A    between atoms: N_12  and  C_13 
ROOT
HETATM    1  C   UNL     1      42.406 -12.009   4.528  1.00  0.00     0.256 C 
HETATM    2  N   UNL     1      41.822 -12.201   3.195  1.00  0.00    -0.248 N 
HETATM    3  C   UNL     1      41.695 -11.125   2.332  1.00  0.00     0.330 C 
HETATM    4  O   UNL     1      41.581 -11.219   1.110  1.00  0.00    -0.246 OA
HETATM    5  N   UNL     1      41.691  -9.879   2.885  1.00  0.00    -0.308 N 
HETATM    6  C   UNL     1      41.744  -9.617   4.248  1.00  0.00     0.048 A 
HETATM    7  C   UNL     1      42.044 -10.656   5.125  1.00  0.00     0.034 A 
HETATM    8  C   UNL     1      41.494  -8.320   4.705  1.00  0.00     0.030 A 
HETATM    9  C   UNL     1      41.519  -8.055   6.071  1.00  0.00     0.002 A 
HETATM   10  C   UNL     1      41.812  -9.077   6.969  1.00  0.00     0.001 A 
HETATM   11  C   UNL     1      42.087 -10.366   6.501  1.00  0.00     0.015 A 
HETATM   12  H   UNL     1      41.522  -9.131   2.228  1.00  0.00     0.170 HD
ENDROOT
BRANCH   1  13
HETATM   13  C   UNL     1      42.003 -13.163   5.551  1.00  0.00     0.279 C 
HETATM   14  N   UNL     1      43.085 -13.933   5.955  1.00  0.00    -0.352 N 
HETATM   15  H   UNL     1      44.005 -13.637   5.640  1.00  0.00     0.162 HD
HETATM   16  O   UNL     1      40.859 -13.364   5.955  1.00  0.00    -0.268 OA
BRANCH  14  17
HETATM   17  C   UNL     1      42.973 -15.033   6.876  1.00  0.00     0.161 C 
BRANCH  17  18
HETATM   18  C   UNL     1      43.275 -16.344   6.203  1.00  0.00    -0.040 A 
HETATM   19  C   UNL     1      43.565 -16.386   4.832  1.00  0.00     0.011 A 
HETATM   20  C   UNL     1      43.873 -17.596   4.203  1.00  0.00     0.037 A 
HETATM   21  C   UNL     1      43.888 -18.783   4.935  1.00  0.00     0.068 A 
HETATM   22  C   UNL     1      43.560 -18.752   6.291  1.00  0.00     0.037 A 
HETATM   23  C   UNL     1      43.255 -17.545   6.924  1.00  0.00     0.011 A 
BRANCH  21  24
HETATM   24  O   UNL     1      44.191 -20.024   4.444  1.00  0.00    -0.356 OA
HETATM   25  C   UNL     1      43.878 -20.257   3.076  1.00  0.00     0.210 C 
ENDBRANCH  21  24
ENDBRANCH  17  18
ENDBRANCH  14  17
ENDBRANCH   1  13
BRANCH   1  26
HETATM   26  O   UNL     1      43.832 -11.988   4.369  1.00  0.00    -0.359 OA
HETATM   27  H   UNL     1      44.108 -11.170   4.816  1.00  0.00     0.213 HD
ENDBRANCH   1  26
BRANCH   2  28
HETATM   28  C   UNL     1      41.535 -13.511   2.678  1.00  0.00     0.120 A 
HETATM   29  C   UNL     1      42.522 -14.350   2.150  1.00  0.00     0.146 A 
HETATM   30  F   UNL     1      43.788 -13.919   2.040  1.00  0.00    -0.204 F 
HETATM   31  C   UNL     1      42.223 -15.626   1.666  1.00  0.00     0.045 A 
HETATM   32  C   UNL     1      40.910 -16.092   1.700  1.00  0.00     0.006 A 
HETATM   33  C   UNL     1      39.907 -15.278   2.218  1.00  0.00     0.045 A 
HETATM   34  C   UNL     1      40.222 -14.006   2.699  1.00  0.00     0.146 A 
HETATM   35  F   UNL     1      39.233 -13.291   3.261  1.00  0.00    -0.204 F 
ENDBRANCH   2  28
TORSDOF 6
ENDMDL
MODEL 7
REMARK VINA RESULT:      -8.6      2.948      6.649
REMARK  6 active torsions:
REMARK  status: ('A' for Active; 'I' for Inactive)
REMARK    1  A    between atoms: O_2  and  C_3 
REMARK    2  A    between atoms: C_6  and  C_7 
REMARK    3  A    between atoms: C_7  and  N_8 
REMARK       I    between atoms: N_8  and  C_9 
REMARK    4  A    between atoms: C_9  and  C_10 
REMARK    5  A    between atoms: C_10  and  O_11 
REMARK    6  A    between atoms: N_12  and  C_13 
ROOT
HETATM    1  C   UNL     1      41.214 -15.328   4.518  1.00  0.00     0.256 C 
HETATM    2  N   UNL     1      41.762 -15.533   3.172  1.00  0.00    -0.248 N 
HETATM    3  C   UNL     1      42.586 -16.618   2.918  1.00  0.00     0.330 C 
HETATM    4  O   UNL     1      42.790 -17.094   1.801  1.00  0.00    -0.246 OA
HETATM    5  N   UNL     1      43.213 -17.188   3.985  1.00  0.00    -0.308 N 
HETATM    6  C   UNL     1      43.134 -16.725   5.291  1.00  0.00     0.048 A 
HETATM    7  C   UNL     1      42.188 -15.754   5.608  1.00  0.00     0.034 A 
HETATM    8  C   UNL     1      44.004 -17.243   6.255  1.00  0.00     0.030 A 
HETATM    9  C   UNL     1      43.949 -16.765   7.561  1.00  0.00     0.002 A 
HETATM   10  C   UNL     1      43.015 -15.790   7.901  1.00  0.00     0.001 A 
HETATM   11  C   UNL     1      42.131 -15.296   6.937  1.00  0.00     0.015 A 
HETATM   12  H   UNL     1      43.860 -17.926   3.744  1.00  0.00     0.170 HD
ENDROOT
BRANCH   1  13
HETATM   13  C   UNL     1      40.758 -13.822   4.775  1.00  0.00     0.279 C 
HETATM   14  N   UNL     1      41.811 -12.987   5.119  1.00  0.00    -0.352 N 
HETATM   15  H   UNL     1      42.746 -13.385   5.085  1.00  0.00     0.162 HD
HETATM   16  O   UNL     1      39.599 -13.422   4.681  1.00  0.00    -0.268 OA
BRANCH  14  17
HETATM   17  C   UNL     1      41.650 -11.583   5.398  1.00  0.00     0.161 C 
BRANCH  17  18
HETATM   18  C   UNL     1      42.694 -11.093   6.364  1.00  0.00    -0.040 A 
HETATM   19  C   UNL     1      43.850 -11.849   6.600  1.00  0.00     0.011 A 
HETATM   20  C   UNL     1      44.839 -11.389   7.476  1.00  0.00     0.037 A 
HETATM   21  C   UNL     1      44.682 -10.169   8.132  1.00  0.00     0.068 A 
HETATM   22  C   UNL     1      43.513  -9.432   7.931  1.00  0.00     0.037 A 
HETATM   23  C   UNL     1      42.525  -9.886   7.054  1.00  0.00     0.011 A 
BRANCH  21  24
HETATM   24  O   UNL     1      45.579  -9.600   8.994  1.00  0.00    -0.356 OA
HETATM   25  C   UNL     1      45.280  -9.706  10.380  1.00  0.00     0.210 C 
ENDBRANCH  21  24
ENDBRANCH  17  18
ENDBRANCH  14  17
ENDBRANCH   1  13
BRANCH   1  26
HETATM   26  O   UNL     1      40.082 -16.199   4.654  1.00  0.00    -0.359 OA
HETATM   27  H   UNL     1      39.995 -16.325   5.615  1.00  0.00     0.213 HD
ENDBRANCH   1  26
BRANCH   2  28
HETATM   28  C   UNL     1      41.331 -14.744   2.052  1.00  0.00     0.120 A 
HETATM   29  C   UNL     1      40.193 -15.052   1.300  1.00  0.00     0.146 A 
HETATM   30  F   UNL     1      39.491 -16.166   1.562  1.00  0.00    -0.204 F 
HETATM   31  C   UNL     1      39.784 -14.262   0.223  1.00  0.00     0.045 A 
HETATM   32  C   UNL     1      40.519 -13.131  -0.127  1.00  0.00     0.006 A 
HETATM   33  C   UNL     1      41.658 -12.800   0.602  1.00  0.00     0.045 A 
HETATM   34  C   UNL     1      42.053 -13.600   1.676  1.00  0.00     0.146 A 
HETATM   35  F   UNL     1      43.111 -13.195   2.396  1.00  0.00    -0.204 F 
ENDBRANCH   2  28
TORSDOF 6
ENDMDL
MODEL 8
REMARK VINA RESULT:      -8.5      3.251      6.556
REMARK  6 active torsions:
REMARK  status: ('A' for Active; 'I' for Inactive)
REMARK    1  A    between atoms: O_2  and  C_3 
REMARK    2  A    between atoms: C_6  and  C_7 
REMARK    3  A    between atoms: C_7  and  N_8 
REMARK       I    between atoms: N_8  and  C_9 
REMARK    4  A    between atoms: C_9  and  C_10 
REMARK    5  A    between atoms: C_10  and  O_11 
REMARK    6  A    between atoms: N_12  and  C_13 
ROOT
HETATM    1  C   UNL     1      41.306 -14.054   3.972  1.00  0.00     0.256 C 
HETATM    2  N   UNL     1      41.500 -12.777   3.274  1.00  0.00    -0.248 N 
HETATM    3  C   UNL     1      41.691 -12.759   1.902  1.00  0.00     0.330 C 
HETATM    4  O   UNL     1      41.492 -11.780   1.182  1.00  0.00    -0.246 OA
HETATM    5  N   UNL     1      42.135 -13.908   1.319  1.00  0.00    -0.308 N 
HETATM    6  C   UNL     1      42.465 -15.068   2.006  1.00  0.00     0.048 A 
HETATM    7  C   UNL     1      42.124 -15.178   3.351  1.00  0.00     0.034 A 
HETATM    8  C   UNL     1      43.131 -16.096   1.332  1.00  0.00     0.030 A 
HETATM    9  C   UNL     1      43.489 -17.252   2.020  1.00  0.00     0.002 A 
HETATM   10  C   UNL     1      43.164 -17.384   3.367  1.00  0.00     0.001 A 
HETATM   11  C   UNL     1      42.474 -16.362   4.027  1.00  0.00     0.015 A 
HETATM   12  H   UNL     1      42.331 -13.826   0.331  1.00  0.00     0.170 HD
ENDROOT
BRANCH   1  13
HETATM   13  C   UNL     1      41.631 -13.962   5.530  1.00  0.00     0.279 C 
HETATM   14  N   UNL     1      42.979 -13.762   5.793  1.00  0.00    -0.352 N 
HETATM   15  H   UNL     1      43.587 -13.609   4.994  1.00  0.00     0.162 HD
HETATM   16  O   UNL     1      40.788 -14.052   6.421  1.00  0.00    -0.268 OA
BRANCH  14  17
HETATM   17  C   UNL     1      43.516 -13.645   7.124  1.00  0.00     0.161 C 
BRANCH  17  18
HETATM   18  C   UNL     1      44.054 -12.263   7.378  1.00  0.00    -0.040 A 
HETATM   19  C   UNL     1      45.278 -11.866   6.822  1.00  0.00     0.011 A 
HETATM   20  C   UNL     1      45.773 -10.575   7.030  1.00  0.00     0.037 A 
HETATM   21  C   UNL     1      45.053  -9.664   7.802  1.00  0.00     0.068 A 
HETATM   22  C   UNL     1      43.853 -10.068   8.391  1.00  0.00     0.037 A 
HETATM   23  C   UNL     1      43.354 -11.355   8.183  1.00  0.00     0.011 A 
BRANCH  21  24
HETATM   24  O   UNL     1      45.416  -8.371   8.064  1.00  0.00    -0.356 OA
HETATM   25  C   UNL     1      44.496  -7.596   8.822  1.00  0.00     0.210 C 
ENDBRANCH  21  24
ENDBRANCH  17  18
ENDBRANCH  14  17
ENDBRANCH   1  13
BRANCH   1  26
HETATM   26  O   UNL     1      39.934 -14.433   3.792  1.00  0.00    -0.359 OA
HETATM   27  H   UNL     1      39.960 -15.405   3.757  1.00  0.00     0.213 HD
ENDBRANCH   1  26
BRANCH   2  28
HETATM   28  C   UNL     1      41.321 -11.516   3.942  1.00  0.00     0.120 A 
HETATM   29  C   UNL     1      40.063 -11.019   4.298  1.00  0.00     0.146 A 
HETATM   30  F   UNL     1      38.951 -11.686   3.954  1.00  0.00    -0.204 F 
HETATM   31  C   UNL     1      39.914  -9.799   4.960  1.00  0.00     0.045 A 
HETATM   32  C   UNL     1      41.037  -9.040   5.280  1.00  0.00     0.006 A 
HETATM   33  C   UNL     1      42.302  -9.508   4.936  1.00  0.00     0.045 A 
HETATM   34  C   UNL     1      42.435 -10.731   4.276  1.00  0.00     0.146 A 
HETATM   35  F   UNL     1      43.680 -11.177   4.037  1.00  0.00    -0.204 F 
ENDBRANCH   2  28
TORSDOF 6
ENDMDL
MODEL 9
REMARK VINA RESULT:      -8.4      2.579      6.898
REMARK  6 active torsions:
REMARK  status: ('A' for Active; 'I' for Inactive)
REMARK    1  A    between atoms: O_2  and  C_3 
REMARK    2  A    between atoms: C_6  and  C_7 
REMARK    3  A    between atoms: C_7  and  N_8 
REMARK       I    between atoms: N_8  and  C_9 
REMARK    4  A    between atoms: C_9  and  C_10 
REMARK    5  A    between atoms: C_10  and  O_11 
REMARK    6  A    between atoms: N_12  and  C_13 
ROOT
HETATM    1  C   UNL     1      39.975 -12.995   2.383  1.00  0.00     0.256 C 
HETATM    2  N   UNL     1      39.579 -11.643   2.794  1.00  0.00    -0.248 N 
HETATM    3  C   UNL     1      38.517 -11.011   2.167  1.00  0.00     0.330 C 
HETATM    4  O   UNL     1      37.873 -10.080   2.650  1.00  0.00    -0.246 OA
HETATM    5  N   UNL     1      38.173 -11.455   0.925  1.00  0.00    -0.308 N 
HETATM    6  C   UNL     1      38.845 -12.448   0.224  1.00  0.00     0.048 A 
HETATM    7  C   UNL     1      39.798 -13.217   0.888  1.00  0.00     0.034 A 
HETATM    8  C   UNL     1      38.549 -12.652  -1.126  1.00  0.00     0.030 A 
HETATM    9  C   UNL     1      39.237 -13.627  -1.842  1.00  0.00     0.002 A 
HETATM   10  C   UNL     1      40.198 -14.405  -1.203  1.00  0.00     0.001 A 
HETATM   11  C   UNL     1      40.469 -14.213   0.155  1.00  0.00     0.015 A 
HETATM   12  H   UNL     1      37.445 -10.918   0.476  1.00  0.00     0.170 HD
ENDROOT
BRANCH   1  13
HETATM   13  C   UNL     1      41.473 -13.351   2.797  1.00  0.00     0.279 C 
HETATM   14  N   UNL     1      41.546 -14.279   3.826  1.00  0.00    -0.352 N 
HETATM   15  H   UNL     1      40.671 -14.690   4.139  1.00  0.00     0.162 HD
HETATM   16  O   UNL     1      42.473 -12.867   2.269  1.00  0.00    -0.268 OA
BRANCH  14  17
HETATM   17  C   UNL     1      42.789 -14.759   4.372  1.00  0.00     0.161 C 
BRANCH  17  18
HETATM   18  C   UNL     1      43.098 -16.150   3.890  1.00  0.00    -0.040 A 
HETATM   19  C   UNL     1      43.954 -16.981   4.626  1.00  0.00     0.011 A 
HETATM   20  C   UNL     1      44.226 -18.285   4.200  1.00  0.00     0.037 A 
HETATM   21  C   UNL     1      43.650 -18.774   3.028  1.00  0.00     0.068 A 
HETATM   22  C   UNL     1      42.830 -17.937   2.271  1.00  0.00     0.037 A 
HETATM   23  C   UNL     1      42.553 -16.635   2.694  1.00  0.00     0.011 A 
BRANCH  21  24
HETATM   24  O   UNL     1      43.820 -20.031   2.516  1.00  0.00    -0.356 OA
HETATM   25  C   UNL     1      43.950 -21.088   3.460  1.00  0.00     0.210 C 
ENDBRANCH  21  24
ENDBRANCH  17  18
ENDBRANCH  14  17
ENDBRANCH   1  13
BRANCH   1  26
HETATM   26  O   UNL     1      39.074 -13.914   3.017  1.00  0.00    -0.359 OA
HETATM   27  H   UNL     1      39.019 -13.597   3.935  1.00  0.00     0.213 HD
ENDBRANCH   1  26
BRANCH   2  28
HETATM   28  C   UNL     1      40.141 -11.010   3.956  1.00  0.00     0.120 A 
HETATM   29  C   UNL     1      39.763 -11.346   5.260  1.00  0.00     0.146 A 
HETATM   30  F   UNL     1      38.785 -12.241   5.471  1.00  0.00    -0.204 F 
HETATM   31  C   UNL     1      40.334 -10.729   6.375  1.00  0.00     0.045 A 
HETATM   32  C   UNL     1      41.308  -9.747   6.203  1.00  0.00     0.006 A 
HETATM   33  C   UNL     1      41.702  -9.390   4.917  1.00  0.00     0.045 A 
HETATM   34  C   UNL     1      41.123 -10.018   3.812  1.00  0.00     0.146 A 
HETATM   35  F   UNL     1      41.594  -9.696   2.596  1.00  0.00    -0.204 F 
ENDBRANCH   2  28
TORSDOF 6
ENDMDL
MODEL 10
REMARK VINA RESULT:      -8.3      1.814      2.577
REMARK  6 active torsions:
REMARK  status: ('A' for Active; 'I' for Inactive)
REMARK    1  A    between atoms: O_2  and  C_3 
REMARK    2  A    between atoms: C_6  and  C_7 
REMARK    3  A    between atoms: C_7  and  N_8 
REMARK       I    between atoms: N_8  and  C_9 
REMARK    4  A    between atoms: C_9  and  C_10 
REMARK    5  A    between atoms: C_10  and  O_11 
REMARK    6  A    between atoms: N_12  and  C_13 
ROOT
HETATM    1  C   UNL     1      42.374 -13.554   3.594  1.00  0.00     0.256 C 
HETATM    2  N   UNL     1      42.258 -13.362   5.045  1.00  0.00    -0.248 N 
HETATM    3  C   UNL     1      43.013 -14.139   5.909  1.00  0.00     0.330 C 
HETATM    4  O   UNL     1      43.281 -13.832   7.071  1.00  0.00    -0.246 OA
HETATM    5  N   UNL     1      43.483 -15.325   5.431  1.00  0.00    -0.308 N 
HETATM    6  C   UNL     1      43.210 -15.836   4.170  1.00  0.00     0.048 A 
HETATM    7  C   UNL     1      42.606 -15.012   3.223  1.00  0.00     0.034 A 
HETATM    8  C   UNL     1      43.547 -17.161   3.880  1.00  0.00     0.030 A 
HETATM    9  C   UNL     1      43.252 -17.688   2.626  1.00  0.00     0.002 A 
HETATM   10  C   UNL     1      42.644 -16.887   1.664  1.00  0.00     0.001 A 
HETATM   11  C   UNL     1      42.334 -15.554   1.953  1.00  0.00     0.015 A 
HETATM   12  H   UNL     1      43.964 -15.890   6.117  1.00  0.00     0.170 HD
ENDROOT
BRANCH   1  13
HETATM   13  C   UNL     1      41.110 -13.000   2.795  1.00  0.00     0.279 C 
HETATM   14  N   UNL     1      41.392 -11.860   2.056  1.00  0.00    -0.352 N 
HETATM   15  H   UNL     1      42.362 -11.557   2.027  1.00  0.00     0.162 HD
HETATM   16  O   UNL     1      39.994 -13.516   2.817  1.00  0.00    -0.268 OA
BRANCH  14  17
HETATM   17  C   UNL     1      40.414 -11.176   1.251  1.00  0.00     0.161 C 
BRANCH  17  18
HETATM   18  C   UNL     1      40.178 -11.893  -0.050  1.00  0.00    -0.040 A 
HETATM   19  C   UNL     1      41.111 -11.794  -1.092  1.00  0.00     0.011 A 
HETATM   20  C   UNL     1      40.913 -12.479  -2.296  1.00  0.00     0.037 A 
HETATM   21  C   UNL     1      39.777 -13.266  -2.476  1.00  0.00     0.068 A 
HETATM   22  C   UNL     1      38.826 -13.335  -1.457  1.00  0.00     0.037 A 
HETATM   23  C   UNL     1      39.021 -12.656  -0.252  1.00  0.00     0.011 A 
BRANCH  21  24
HETATM   24  O   UNL     1      39.478 -13.998  -3.593  1.00  0.00    -0.356 OA
HETATM   25  C   UNL     1      38.227 -14.674  -3.591  1.00  0.00     0.210 C 
ENDBRANCH  21  24
ENDBRANCH  17  18
ENDBRANCH  14  17
ENDBRANCH   1  13
BRANCH   1  26
HETATM   26  O   UNL     1      43.552 -12.857   3.165  1.00  0.00    -0.359 OA
HETATM   27  H   UNL     1      44.142 -12.893   3.938  1.00  0.00     0.213 HD
ENDBRANCH   1  26
BRANCH   2  28
HETATM   28  C   UNL     1      41.515 -12.267   5.605  1.00  0.00     0.120 A 
HETATM   29  C   UNL     1      42.021 -10.964   5.674  1.00  0.00     0.146 A 
HETATM   30  F   UNL     1      43.276 -10.705   5.277  1.00  0.00    -0.204 F 
HETATM   31  C   UNL     1      41.276  -9.912   6.210  1.00  0.00     0.045 A 
HETATM   32  C   UNL     1      39.991 -10.147   6.696  1.00  0.00     0.006 A 
HETATM   33  C   UNL     1      39.462 -11.434   6.642  1.00  0.00     0.045 A 
HETATM   34  C   UNL     1      40.219 -12.475   6.102  1.00  0.00     0.146 A 
HETATM   35  F   UNL     1      39.635 -13.680   5.999  1.00  0.00    -0.204 F 
ENDBRANCH   2  28
TORSDOF 6
ENDMDL
