MODEL 1
REMARK VINA RESULT:      -8.4      0.000      0.000
REMARK  7 active torsions:
REMARK  status: ('A' for Active; 'I' for Inactive)
REMARK       I    between atoms: N_2  and  C_3 
REMARK    1  A    between atoms: N_2  and  C_24 
REMARK    2  A    between atoms: C_3  and  C_4 
REMARK    3  A    between atoms: C_7  and  N_8 
REMARK    4  A    between atoms: C_11  and  N_12 
REMARK       I    between atoms: N_12  and  C_13 
REMARK    5  A    between atoms: C_13  and  C_14 
REMARK    6  A    between atoms: C_24  and  C_25 
REMARK    7  A    between atoms: C_27  and  O_28 
ROOT
HETATM    1  C   UNL     1      41.835 -12.826   2.548  1.00  0.00     0.032 A 
HETATM    2  C   UNL     1      41.209 -12.224   3.640  1.00  0.00     0.019 A 
HETATM    3  C   UNL     1      41.963 -11.759   4.720  1.00  0.00     0.032 A 
HETATM    4  C   UNL     1      43.355 -11.939   4.746  1.00  0.00     0.058 A 
HETATM    5  C   UNL     1      43.986 -12.552   3.656  1.00  0.00     0.032 A 
HETATM    6  C   UNL     1      43.226 -12.993   2.565  1.00  0.00     0.019 A 
ENDROOT
BRANCH   4   7
HETATM    7  N   UNL     1      44.077 -11.551   5.909  1.00  0.00    -0.243 N 
HETATM    8  N   UNL     1      45.384 -11.193   5.823  1.00  0.00    -0.178 NA
HETATM    9  C   UNL     1      45.701 -10.771   7.047  1.00  0.00     0.170 A 
HETATM   10  C   UNL     1      44.622 -10.864   7.942  1.00  0.00     0.071 A 
HETATM   11  C   UNL     1      43.606 -11.418   7.200  1.00  0.00     0.149 A 
BRANCH  10  12
HETATM   12  N   UNL     1      44.494 -10.487   9.264  1.00  0.00    -0.324 N 
HETATM   13  C   UNL     1      44.402  -9.176   9.690  1.00  0.00     0.228 C 
HETATM   14  O   UNL     1      44.506  -8.188   8.964  1.00  0.00    -0.273 OA
HETATM   15  H   UNL     1      44.442 -11.230   9.955  1.00  0.00     0.169 HD
BRANCH  13  16
HETATM   16  C   UNL     1      44.063  -9.006  11.167  1.00  0.00     0.104 C 
HETATM   17  C   UNL     1      43.374 -10.223  11.739  1.00  0.00     0.181 C 
HETATM   18  O   UNL     1      41.983 -10.032  11.430  1.00  0.00    -0.390 OA
HETATM   19  C   UNL     1      41.715  -8.622  11.501  1.00  0.00     0.168 C 
HETATM   20  C   UNL     1      43.048  -7.902  11.387  1.00  0.00     0.042 C 
ENDBRANCH  13  16
ENDBRANCH  10  12
ENDBRANCH   4   7
BRANCH   1  21
HETATM   21  C   UNL     1      41.062 -13.425   1.427  1.00  0.00     0.253 C 
HETATM   22  N   UNL     1      40.574 -14.732   1.509  1.00  0.00    -0.348 N 
HETATM   23  C   UNL     1      39.901 -15.263   0.331  1.00  0.00     0.153 C 
HETATM   24  O   UNL     1      40.892 -12.718   0.432  1.00  0.00    -0.267 OA
BRANCH  22  25
HETATM   25  C   UNL     1      40.327 -15.441   2.766  1.00  0.00     0.164 C 
BRANCH  25  26
HETATM   26  C   UNL     1      41.511 -16.210   3.316  1.00  0.00    -0.038 A 
HETATM   27  C   UNL     1      42.152 -17.244   2.608  1.00  0.00     0.045 A 
HETATM   28  C   UNL     1      43.296 -17.864   3.118  1.00  0.00     0.068 A 
HETATM   29  C   UNL     1      43.782 -17.483   4.367  1.00  0.00     0.037 A 
HETATM   30  C   UNL     1      43.154 -16.470   5.091  1.00  0.00     0.003 A 
HETATM   31  C   UNL     1      42.031 -15.832   4.565  1.00  0.00     0.009 A 
BRANCH  28  32
HETATM   32  O   UNL     1      44.013 -18.848   2.494  1.00  0.00    -0.356 OA
HETATM   33  C   UNL     1      43.283 -19.995   2.072  1.00  0.00     0.210 C 
ENDBRANCH  28  32
ENDBRANCH  25  26
ENDBRANCH  22  25
ENDBRANCH   1  21
TORSDOF 7
ENDMDL
MODEL 2
REMARK VINA RESULT:      -8.3      0.852      1.516
REMARK  7 active torsions:
REMARK  status: ('A' for Active; 'I' for Inactive)
REMARK       I    between atoms: N_2  and  C_3 
REMARK    1  A    between atoms: N_2  and  C_24 
REMARK    2  A    between atoms: C_3  and  C_4 
REMARK    3  A    between atoms: C_7  and  N_8 
REMARK    4  A    between atoms: C_11  and  N_12 
REMARK       I    between atoms: N_12  and  C_13 
REMARK    5  A    between atoms: C_13  and  C_14 
REMARK    6  A    between atoms: C_24  and  C_25 
REMARK    7  A    between atoms: C_27  and  O_28 
ROOT
HETATM    1  C   UNL     1      41.809 -12.686   2.692  1.00  0.00     0.032 A 
HETATM    2  C   UNL     1      41.199 -12.179   3.841  1.00  0.00     0.019 A 
HETATM    3  C   UNL     1      41.973 -11.730   4.914  1.00  0.00     0.032 A 
HETATM    4  C   UNL     1      43.372 -11.832   4.873  1.00  0.00     0.058 A 
HETATM    5  C   UNL     1      43.988 -12.350   3.727  1.00  0.00     0.032 A 
HETATM    6  C   UNL     1      43.207 -12.774   2.644  1.00  0.00     0.019 A 
ENDROOT
BRANCH   4   7
HETATM    7  N   UNL     1      44.123 -11.467   6.026  1.00  0.00    -0.243 N 
HETATM    8  N   UNL     1      45.430 -11.116   5.917  1.00  0.00    -0.178 NA
HETATM    9  C   UNL     1      45.776 -10.714   7.140  1.00  0.00     0.170 A 
HETATM   10  C   UNL     1      44.716 -10.814   8.057  1.00  0.00     0.071 A 
HETATM   11  C   UNL     1      43.680 -11.350   7.329  1.00  0.00     0.149 A 
BRANCH  10  12
HETATM   12  N   UNL     1      44.619 -10.456   9.387  1.00  0.00    -0.324 N 
HETATM   13  C   UNL     1      44.189  -9.219   9.826  1.00  0.00     0.228 C 
HETATM   14  O   UNL     1      43.922  -8.264   9.099  1.00  0.00    -0.273 OA
HETATM   15  H   UNL     1      44.860 -11.164  10.076  1.00  0.00     0.169 HD
BRANCH  13  16
HETATM   16  C   UNL     1      43.969  -9.117  11.332  1.00  0.00     0.104 C 
HETATM   17  C   UNL     1      43.227 -10.312  11.883  1.00  0.00     0.181 C 
HETATM   18  O   UNL     1      41.838  -9.998  11.691  1.00  0.00    -0.390 OA
HETATM   19  C   UNL     1      41.689  -8.580  11.862  1.00  0.00     0.168 C 
HETATM   20  C   UNL     1      43.063  -7.956  11.690  1.00  0.00     0.042 C 
ENDBRANCH  13  16
ENDBRANCH  10  12
ENDBRANCH   4   7
BRANCH   1  21
HETATM   21  C   UNL     1      41.022 -13.266   1.572  1.00  0.00     0.253 C 
HETATM   22  N   UNL     1      40.627 -14.608   1.591  1.00  0.00    -0.348 N 
HETATM   23  C   UNL     1      39.932 -15.110   0.413  1.00  0.00     0.153 C 
HETATM   24  O   UNL     1      40.754 -12.513   0.635  1.00  0.00    -0.267 OA
BRANCH  22  25
HETATM   25  C   UNL     1      40.493 -15.409   2.809  1.00  0.00     0.164 C 
BRANCH  25  26
HETATM   26  C   UNL     1      41.709 -16.235   3.174  1.00  0.00    -0.038 A 
HETATM   27  C   UNL     1      42.436 -16.047   4.365  1.00  0.00     0.045 A 
HETATM   28  C   UNL     1      43.498 -16.891   4.702  1.00  0.00     0.068 A 
HETATM   29  C   UNL     1      43.869 -17.907   3.823  1.00  0.00     0.037 A 
HETATM   30  C   UNL     1      43.172 -18.102   2.632  1.00  0.00     0.003 A 
HETATM   31  C   UNL     1      42.093 -17.277   2.314  1.00  0.00     0.009 A 
BRANCH  28  32
HETATM   32  O   UNL     1      44.240 -16.818   5.849  1.00  0.00    -0.356 OA
HETATM   33  C   UNL     1      43.614 -17.283   7.040  1.00  0.00     0.210 C 
ENDBRANCH  28  32
ENDBRANCH  25  26
ENDBRANCH  22  25
ENDBRANCH   1  21
TORSDOF 7
ENDMDL
MODEL 3
REMARK VINA RESULT:      -8.2      4.616      8.782
REMARK  7 active torsions:
REMARK  status: ('A' for Active; 'I' for Inactive)
REMARK       I    between atoms: N_2  and  C_3 
REMARK    1  A    between atoms: N_2  and  C_24 
REMARK    2  A    between atoms: C_3  and  C_4 
REMARK    3  A    between atoms: C_7  and  N_8 
REMARK    4  A    between atoms: C_11  and  N_12 
REMARK       I    between atoms: N_12  and  C_13 
REMARK    5  A    between atoms: C_13  and  C_14 
REMARK    6  A    between atoms: C_24  and  C_25 
REMARK    7  A    between atoms: C_27  and  O_28 
ROOT
HETATM    1  C   UNL     1      40.582 -14.474   4.308  1.00  0.00     0.032 A 
HETATM    2  C   UNL     1      40.824 -13.198   3.797  1.00  0.00     0.019 A 
HETATM    3  C   UNL     1      40.622 -12.930   2.440  1.00  0.00     0.032 A 
HETATM    4  C   UNL     1      40.226 -13.953   1.565  1.00  0.00     0.058 A 
HETATM    5  C   UNL     1      39.992 -15.237   2.072  1.00  0.00     0.032 A 
HETATM    6  C   UNL     1      40.172 -15.493   3.438  1.00  0.00     0.019 A 
ENDROOT
BRANCH   4   7
HETATM    7  N   UNL     1      40.135 -13.670   0.172  1.00  0.00    -0.243 N 
HETATM    8  N   UNL     1      39.646 -14.597  -0.690  1.00  0.00    -0.178 NA
HETATM    9  C   UNL     1      39.579 -13.967  -1.863  1.00  0.00     0.170 A 
HETATM   10  C   UNL     1      40.037 -12.640  -1.785  1.00  0.00     0.071 A 
HETATM   11  C   UNL     1      40.438 -12.491  -0.479  1.00  0.00     0.149 A 
BRANCH  10  12
HETATM   12  N   UNL     1      40.084 -11.632  -2.727  1.00  0.00    -0.324 N 
HETATM   13  C   UNL     1      38.997 -10.861  -3.092  1.00  0.00     0.228 C 
HETATM   14  O   UNL     1      37.846 -11.028  -2.692  1.00  0.00    -0.273 OA
HETATM   15  H   UNL     1      40.986 -11.439  -3.154  1.00  0.00     0.169 HD
BRANCH  13  16
HETATM   16  C   UNL     1      39.328  -9.679  -3.996  1.00  0.00     0.104 C 
HETATM   17  C   UNL     1      40.816  -9.486  -4.164  1.00  0.00     0.181 C 
HETATM   18  O   UNL     1      41.210  -8.691  -3.033  1.00  0.00    -0.390 OA
HETATM   19  C   UNL     1      40.127  -7.795  -2.738  1.00  0.00     0.168 C 
HETATM   20  C   UNL     1      38.879  -8.364  -3.388  1.00  0.00     0.042 C 
ENDBRANCH  13  16
ENDBRANCH  10  12
ENDBRANCH   4   7
BRANCH   1  21
HETATM   21  C   UNL     1      40.881 -14.826   5.722  1.00  0.00     0.253 C 
HETATM   22  N   UNL     1      42.075 -15.467   6.066  1.00  0.00    -0.348 N 
HETATM   23  C   UNL     1      42.245 -15.847   7.462  1.00  0.00     0.153 C 
HETATM   24  O   UNL     1      40.023 -14.537   6.558  1.00  0.00    -0.267 OA
BRANCH  22  25
HETATM   25  C   UNL     1      43.295 -15.423   5.258  1.00  0.00     0.164 C 
BRANCH  25  26
HETATM   26  C   UNL     1      43.593 -16.682   4.469  1.00  0.00    -0.038 A 
HETATM   27  C   UNL     1      44.112 -17.851   5.056  1.00  0.00     0.045 A 
HETATM   28  C   UNL     1      44.288 -19.017   4.307  1.00  0.00     0.068 A 
HETATM   29  C   UNL     1      43.984 -19.008   2.946  1.00  0.00     0.037 A 
HETATM   30  C   UNL     1      43.481 -17.856   2.342  1.00  0.00     0.003 A 
HETATM   31  C   UNL     1      43.279 -16.704   3.101  1.00  0.00     0.009 A 
BRANCH  28  32
HETATM   32  O   UNL     1      44.747 -20.212   4.788  1.00  0.00    -0.356 OA
HETATM   33  C   UNL     1      43.759 -21.155   5.191  1.00  0.00     0.210 C 
ENDBRANCH  28  32
ENDBRANCH  25  26
ENDBRANCH  22  25
ENDBRANCH   1  21
TORSDOF 7
ENDMDL
MODEL 4
REMARK VINA RESULT:      -7.9      3.593      9.022
REMARK  7 active torsions:
REMARK  status: ('A' for Active; 'I' for Inactive)
REMARK       I    between atoms: N_2  and  C_3 
REMARK    1  A    between atoms: N_2  and  C_24 
REMARK    2  A    between atoms: C_3  and  C_4 
REMARK    3  A    between atoms: C_7  and  N_8 
REMARK    4  A    between atoms: C_11  and  N_12 
REMARK       I    between atoms: N_12  and  C_13 
REMARK    5  A    between atoms: C_13  and  C_14 
REMARK    6  A    between atoms: C_24  and  C_25 
REMARK    7  A    between atoms: C_27  and  O_28 
ROOT
HETATM    1  C   UNL     1      42.455 -16.423   3.665  1.00  0.00     0.032 A 
HETATM    2  C   UNL     1      41.071 -16.411   3.488  1.00  0.00     0.019 A 
HETATM    3  C   UNL     1      40.506 -15.793   2.370  1.00  0.00     0.032 A 
HETATM    4  C   UNL     1      41.318 -15.130   1.437  1.00  0.00     0.058 A 
HETATM    5  C   UNL     1      42.708 -15.131   1.616  1.00  0.00     0.032 A 
HETATM    6  C   UNL     1      43.269 -15.776   2.726  1.00  0.00     0.019 A 
ENDROOT
BRANCH   4   7
HETATM    7  N   UNL     1      40.701 -14.419   0.370  1.00  0.00    -0.243 N 
HETATM    8  N   UNL     1      39.730 -15.002  -0.378  1.00  0.00    -0.178 NA
HETATM    9  C   UNL     1      39.291 -14.031  -1.179  1.00  0.00     0.170 A 
HETATM   10  C   UNL     1      39.976 -12.820  -0.979  1.00  0.00     0.071 A 
HETATM   11  C   UNL     1      40.913 -13.110  -0.016  1.00  0.00     0.149 A 
BRANCH  10  12
HETATM   12  N   UNL     1      39.807 -11.569  -1.539  1.00  0.00    -0.324 N 
HETATM   13  C   UNL     1      40.361 -11.178  -2.742  1.00  0.00     0.228 C 
HETATM   14  O   UNL     1      41.135 -11.854  -3.418  1.00  0.00    -0.273 OA
HETATM   15  H   UNL     1      39.215 -10.913  -1.036  1.00  0.00     0.169 HD
BRANCH  13  16
HETATM   16  C   UNL     1      39.874  -9.828  -3.260  1.00  0.00     0.104 C 
HETATM   17  C   UNL     1      40.925  -9.120  -4.083  1.00  0.00     0.181 C 
HETATM   18  O   UNL     1      41.733  -8.423  -3.120  1.00  0.00    -0.390 OA
HETATM   19  C   UNL     1      40.868  -8.004  -2.053  1.00  0.00     0.168 C 
HETATM   20  C   UNL     1      39.611  -8.854  -2.129  1.00  0.00     0.042 C 
ENDBRANCH  13  16
ENDBRANCH  10  12
ENDBRANCH   4   7
BRANCH   1  21
HETATM   21  C   UNL     1      43.089 -16.981   4.890  1.00  0.00     0.253 C 
HETATM   22  N   UNL     1      43.250 -16.196   6.036  1.00  0.00    -0.348 N 
HETATM   23  C   UNL     1      43.956 -16.800   7.158  1.00  0.00     0.153 C 
HETATM   24  O   UNL     1      43.471 -18.151   4.832  1.00  0.00    -0.267 OA
BRANCH  22  25
HETATM   25  C   UNL     1      42.444 -15.013   6.343  1.00  0.00     0.164 C 
BRANCH  25  26
HETATM   26  C   UNL     1      43.133 -13.684   6.108  1.00  0.00    -0.038 A 
HETATM   27  C   UNL     1      42.923 -12.903   4.956  1.00  0.00     0.045 A 
HETATM   28  C   UNL     1      43.512 -11.643   4.822  1.00  0.00     0.068 A 
HETATM   29  C   UNL     1      44.356 -11.173   5.827  1.00  0.00     0.037 A 
HETATM   30  C   UNL     1      44.589 -11.937   6.969  1.00  0.00     0.003 A 
HETATM   31  C   UNL     1      43.974 -13.180   7.112  1.00  0.00     0.009 A 
BRANCH  28  32
HETATM   32  O   UNL     1      43.341 -10.792   3.765  1.00  0.00    -0.356 OA
HETATM   33  C   UNL     1      42.545 -11.272   2.686  1.00  0.00     0.210 C 
ENDBRANCH  28  32
ENDBRANCH  25  26
ENDBRANCH  22  25
ENDBRANCH   1  21
TORSDOF 7
ENDMDL
MODEL 5
REMARK VINA RESULT:      -7.9      2.744      9.846
REMARK  7 active torsions:
REMARK  status: ('A' for Active; 'I' for Inactive)
REMARK       I    between atoms: N_2  and  C_3 
REMARK    1  A    between atoms: N_2  and  C_24 
REMARK    2  A    between atoms: C_3  and  C_4 
REMARK    3  A    between atoms: C_7  and  N_8 
REMARK    4  A    between atoms: C_11  and  N_12 
REMARK       I    between atoms: N_12  and  C_13 
REMARK    5  A    between atoms: C_13  and  C_14 
REMARK    6  A    between atoms: C_24  and  C_25 
REMARK    7  A    between atoms: C_27  and  O_28 
ROOT
HETATM    1  C   UNL     1      43.113  -8.537  12.136  1.00  0.00     0.032 A 
HETATM    2  C   UNL     1      43.336  -9.914  12.082  1.00  0.00     0.019 A 
HETATM    3  C   UNL     1      43.637 -10.535  10.868  1.00  0.00     0.032 A 
HETATM    4  C   UNL     1      43.668  -9.792   9.678  1.00  0.00     0.058 A 
HETATM    5  C   UNL     1      43.436  -8.412   9.725  1.00  0.00     0.032 A 
HETATM    6  C   UNL     1      43.159  -7.791  10.951  1.00  0.00     0.019 A 
ENDROOT
BRANCH   4   7
HETATM    7  N   UNL     1      43.871 -10.475   8.445  1.00  0.00    -0.243 N 
HETATM    8  N   UNL     1      44.946 -11.286   8.273  1.00  0.00    -0.178 NA
HETATM    9  C   UNL     1      44.755 -11.854   7.082  1.00  0.00     0.170 A 
HETATM   10  C   UNL     1      43.575 -11.412   6.461  1.00  0.00     0.071 A 
HETATM   11  C   UNL     1      43.053 -10.487   7.333  1.00  0.00     0.149 A 
BRANCH  10  12
HETATM   12  N   UNL     1      42.973 -11.779   5.274  1.00  0.00    -0.324 N 
HETATM   13  C   UNL     1      43.605 -11.757   4.046  1.00  0.00     0.228 C 
HETATM   14  O   UNL     1      44.742 -11.333   3.843  1.00  0.00    -0.273 OA
HETATM   15  H   UNL     1      42.012 -12.106   5.323  1.00  0.00     0.169 HD
BRANCH  13  16
HETATM   16  C   UNL     1      42.814 -12.395   2.908  1.00  0.00     0.104 C 
HETATM   17  C   UNL     1      41.380 -12.669   3.294  1.00  0.00     0.181 C 
HETATM   18  O   UNL     1      41.416 -13.950   3.945  1.00  0.00    -0.390 OA
HETATM   19  C   UNL     1      42.430 -14.734   3.298  1.00  0.00     0.168 C 
HETATM   20  C   UNL     1      43.344 -13.772   2.560  1.00  0.00     0.042 C 
ENDBRANCH  13  16
ENDBRANCH  10  12
ENDBRANCH   4   7
BRANCH   1  21
HETATM   21  C   UNL     1      42.691  -7.855  13.388  1.00  0.00     0.253 C 
HETATM   22  N   UNL     1      41.346  -7.824  13.771  1.00  0.00    -0.348 N 
HETATM   23  C   UNL     1      41.015  -7.062  14.967  1.00  0.00     0.153 C 
HETATM   24  O   UNL     1      43.578  -7.316  14.051  1.00  0.00    -0.267 OA
BRANCH  22  25
HETATM   25  C   UNL     1      40.341  -8.790  13.324  1.00  0.00     0.164 C 
BRANCH  25  26
HETATM   26  C   UNL     1      39.829  -8.582  11.912  1.00  0.00    -0.038 A 
HETATM   27  C   UNL     1      39.642  -9.637  11.000  1.00  0.00     0.045 A 
HETATM   28  C   UNL     1      39.084  -9.409   9.739  1.00  0.00     0.068 A 
HETATM   29  C   UNL     1      38.750  -8.109   9.365  1.00  0.00     0.037 A 
HETATM   30  C   UNL     1      38.941  -7.047  10.248  1.00  0.00     0.003 A 
HETATM   31  C   UNL     1      39.469  -7.284  11.517  1.00  0.00     0.009 A 
BRANCH  28  32
HETATM   32  O   UNL     1      38.825 -10.367   8.798  1.00  0.00    -0.356 OA
HETATM   33  C   UNL     1      39.325 -10.120   7.488  1.00  0.00     0.210 C 
ENDBRANCH  28  32
ENDBRANCH  25  26
ENDBRANCH  22  25
ENDBRANCH   1  21
TORSDOF 7
ENDMDL
MODEL 6
REMARK VINA RESULT:      -7.9      1.752      2.643
REMARK  7 active torsions:
REMARK  status: ('A' for Active; 'I' for Inactive)
REMARK       I    between atoms: N_2  and  C_3 
REMARK    1  A    between atoms: N_2  and  C_24 
REMARK    2  A    between atoms: C_3  and  C_4 
REMARK    3  A    between atoms: C_7  and  N_8 
REMARK    4  A    between atoms: C_11  and  N_12 
REMARK       I    between atoms: N_12  and  C_13 
REMARK    5  A    between atoms: C_13  and  C_14 
REMARK    6  A    between atoms: C_24  and  C_25 
REMARK    7  A    between atoms: C_27  and  O_28 
ROOT
HETATM    1  C   UNL     1      42.764 -11.360   3.975  1.00  0.00     0.032 A 
HETATM    2  C   UNL     1      44.049 -11.726   4.377  1.00  0.00     0.019 A 
HETATM    3  C   UNL     1      44.507 -11.406   5.658  1.00  0.00     0.032 A 
HETATM    4  C   UNL     1      43.702 -10.665   6.536  1.00  0.00     0.058 A 
HETATM    5  C   UNL     1      42.415 -10.286   6.132  1.00  0.00     0.032 A 
HETATM    6  C   UNL     1      41.952 -10.634   4.856  1.00  0.00     0.019 A 
ENDROOT
BRANCH   4   7
HETATM    7  N   UNL     1      44.241 -10.262   7.791  1.00  0.00    -0.243 N 
HETATM    8  N   UNL     1      45.493  -9.742   7.869  1.00  0.00    -0.178 NA
HETATM    9  C   UNL     1      45.621  -9.358   9.139  1.00  0.00     0.170 A 
HETATM   10  C   UNL     1      44.474  -9.636   9.902  1.00  0.00     0.071 A 
HETATM   11  C   UNL     1      43.622 -10.265   9.025  1.00  0.00     0.149 A 
BRANCH  10  12
HETATM   12  N   UNL     1      44.159  -9.357  11.217  1.00  0.00    -0.324 N 
HETATM   13  C   UNL     1      43.444  -8.247  11.623  1.00  0.00     0.228 C 
HETATM   14  O   UNL     1      43.074  -7.335  10.885  1.00  0.00    -0.273 OA
HETATM   15  H   UNL     1      44.457 -10.030  11.918  1.00  0.00     0.169 HD
BRANCH  13  16
HETATM   16  C   UNL     1      43.040  -8.250  13.094  1.00  0.00     0.104 C 
HETATM   17  C   UNL     1      42.164  -9.430  13.443  1.00  0.00     0.181 C 
HETATM   18  O   UNL     1      40.832  -9.006  13.111  1.00  0.00    -0.390 OA
HETATM   19  C   UNL     1      40.747  -7.599  13.386  1.00  0.00     0.168 C 
HETATM   20  C   UNL     1      42.166  -7.060  13.439  1.00  0.00     0.042 C 
ENDBRANCH  13  16
ENDBRANCH  10  12
ENDBRANCH   4   7
BRANCH   1  21
HETATM   21  C   UNL     1      42.276 -11.592   2.589  1.00  0.00     0.253 C 
HETATM   22  N   UNL     1      41.777 -12.840   2.203  1.00  0.00    -0.348 N 
HETATM   23  C   UNL     1      41.400 -12.999   0.805  1.00  0.00     0.153 C 
HETATM   24  O   UNL     1      42.348 -10.641   1.809  1.00  0.00    -0.267 OA
BRANCH  22  25
HETATM   25  C   UNL     1      41.237 -13.834   3.132  1.00  0.00     0.164 C 
BRANCH  25  26
HETATM   26  C   UNL     1      41.999 -15.143   3.191  1.00  0.00    -0.038 A 
HETATM   27  C   UNL     1      42.985 -15.415   4.157  1.00  0.00     0.045 A 
HETATM   28  C   UNL     1      43.599 -16.669   4.227  1.00  0.00     0.068 A 
HETATM   29  C   UNL     1      43.259 -17.649   3.296  1.00  0.00     0.037 A 
HETATM   30  C   UNL     1      42.295 -17.396   2.322  1.00  0.00     0.003 A 
HETATM   31  C   UNL     1      41.663 -16.154   2.275  1.00  0.00     0.009 A 
BRANCH  28  32
HETATM   32  O   UNL     1      44.536 -17.047   5.148  1.00  0.00    -0.356 OA
HETATM   33  C   UNL     1      44.211 -16.816   6.515  1.00  0.00     0.210 C 
ENDBRANCH  28  32
ENDBRANCH  25  26
ENDBRANCH  22  25
ENDBRANCH   1  21
TORSDOF 7
ENDMDL
MODEL 7
REMARK VINA RESULT:      -7.8      1.918      2.616
REMARK  7 active torsions:
REMARK  status: ('A' for Active; 'I' for Inactive)
REMARK       I    between atoms: N_2  and  C_3 
REMARK    1  A    between atoms: N_2  and  C_24 
REMARK    2  A    between atoms: C_3  and  C_4 
REMARK    3  A    between atoms: C_7  and  N_8 
REMARK    4  A    between atoms: C_11  and  N_12 
REMARK       I    between atoms: N_12  and  C_13 
REMARK    5  A    between atoms: C_13  and  C_14 
REMARK    6  A    between atoms: C_24  and  C_25 
REMARK    7  A    between atoms: C_27  and  O_28 
ROOT
HETATM    1  C   UNL     1      40.317 -12.573   1.929  1.00  0.00     0.032 A 
HETATM    2  C   UNL     1      41.633 -12.260   2.271  1.00  0.00     0.019 A 
HETATM    3  C   UNL     1      41.924 -11.684   3.510  1.00  0.00     0.032 A 
HETATM    4  C   UNL     1      40.891 -11.363   4.405  1.00  0.00     0.058 A 
HETATM    5  C   UNL     1      39.568 -11.666   4.061  1.00  0.00     0.032 A 
HETATM    6  C   UNL     1      39.286 -12.268   2.827  1.00  0.00     0.019 A 
ENDROOT
BRANCH   4   7
HETATM    7  N   UNL     1      41.213 -10.677   5.611  1.00  0.00    -0.243 N 
HETATM    8  N   UNL     1      40.310  -9.852   6.198  1.00  0.00    -0.178 NA
HETATM    9  C   UNL     1      40.877  -9.492   7.349  1.00  0.00     0.170 A 
HETATM   10  C   UNL     1      42.153 -10.059   7.518  1.00  0.00     0.071 A 
HETATM   11  C   UNL     1      42.367 -10.773   6.363  1.00  0.00     0.149 A 
BRANCH  10  12
HETATM   12  N   UNL     1      43.047 -10.003   8.568  1.00  0.00    -0.324 N 
HETATM   13  C   UNL     1      43.793  -8.886   8.891  1.00  0.00     0.228 C 
HETATM   14  O   UNL     1      43.819  -7.841   8.243  1.00  0.00    -0.273 OA
HETATM   15  H   UNL     1      43.136 -10.835   9.146  1.00  0.00     0.169 HD
BRANCH  13  16
HETATM   16  C   UNL     1      44.559  -8.988  10.207  1.00  0.00     0.104 C 
HETATM   17  C   UNL     1      45.129 -10.369  10.430  1.00  0.00     0.181 C 
HETATM   18  O   UNL     1      44.057 -11.113  11.032  1.00  0.00    -0.390 OA
HETATM   19  C   UNL     1      43.316 -10.206  11.864  1.00  0.00     0.168 C 
HETATM   20  C   UNL     1      43.647  -8.797  11.403  1.00  0.00     0.042 C 
ENDBRANCH  13  16
ENDBRANCH  10  12
ENDBRANCH   4   7
BRANCH   1  21
HETATM   21  C   UNL     1      39.955 -13.093   0.583  1.00  0.00     0.253 C 
HETATM   22  N   UNL     1      39.929 -14.467   0.327  1.00  0.00    -0.348 N 
HETATM   23  C   UNL     1      39.645 -14.880  -1.041  1.00  0.00     0.153 C 
HETATM   24  O   UNL     1      39.697 -12.255  -0.283  1.00  0.00    -0.267 OA
BRANCH  22  25
HETATM   25  C   UNL     1      39.763 -15.493   1.357  1.00  0.00     0.164 C 
BRANCH  25  26
HETATM   26  C   UNL     1      41.018 -15.835   2.135  1.00  0.00    -0.038 A 
HETATM   27  C   UNL     1      41.006 -16.169   3.503  1.00  0.00     0.045 A 
HETATM   28  C   UNL     1      42.176 -16.563   4.158  1.00  0.00     0.068 A 
HETATM   29  C   UNL     1      43.380 -16.583   3.455  1.00  0.00     0.037 A 
HETATM   30  C   UNL     1      43.415 -16.243   2.104  1.00  0.00     0.003 A 
HETATM   31  C   UNL     1      42.240 -15.880   1.446  1.00  0.00     0.009 A 
BRANCH  28  32
HETATM   32  O   UNL     1      42.266 -16.944   5.468  1.00  0.00    -0.356 OA
HETATM   33  C   UNL     1      43.434 -17.667   5.840  1.00  0.00     0.210 C 
ENDBRANCH  28  32
ENDBRANCH  25  26
ENDBRANCH  22  25
ENDBRANCH   1  21
TORSDOF 7
ENDMDL
MODEL 8
REMARK VINA RESULT:      -7.5      3.274      8.678
REMARK  7 active torsions:
REMARK  status: ('A' for Active; 'I' for Inactive)
REMARK       I    between atoms: N_2  and  C_3 
REMARK    1  A    between atoms: N_2  and  C_24 
REMARK    2  A    between atoms: C_3  and  C_4 
REMARK    3  A    between atoms: C_7  and  N_8 
REMARK    4  A    between atoms: C_11  and  N_12 
REMARK       I    between atoms: N_12  and  C_13 
REMARK    5  A    between atoms: C_13  and  C_14 
REMARK    6  A    between atoms: C_24  and  C_25 
REMARK    7  A    between atoms: C_27  and  O_28 
ROOT
HETATM    1  C   UNL     1      42.371 -16.247   3.740  1.00  0.00     0.032 A 
HETATM    2  C   UNL     1      43.182 -15.441   2.939  1.00  0.00     0.019 A 
HETATM    3  C   UNL     1      42.628 -14.697   1.894  1.00  0.00     0.032 A 
HETATM    4  C   UNL     1      41.258 -14.791   1.602  1.00  0.00     0.058 A 
HETATM    5  C   UNL     1      40.443 -15.607   2.397  1.00  0.00     0.032 A 
HETATM    6  C   UNL     1      41.001 -16.330   3.459  1.00  0.00     0.019 A 
ENDROOT
BRANCH   4   7
HETATM    7  N   UNL     1      40.748 -14.105   0.464  1.00  0.00    -0.243 N 
HETATM    8  N   UNL     1      39.841 -14.700  -0.352  1.00  0.00    -0.178 NA
HETATM    9  C   UNL     1      39.487 -13.748  -1.216  1.00  0.00     0.170 A 
HETATM   10  C   UNL     1      40.166 -12.539  -0.990  1.00  0.00     0.071 A 
HETATM   11  C   UNL     1      41.009 -12.810   0.062  1.00  0.00     0.149 A 
BRANCH  10  12
HETATM   12  N   UNL     1      40.063 -11.304  -1.597  1.00  0.00    -0.324 N 
HETATM   13  C   UNL     1      39.105 -10.361  -1.277  1.00  0.00     0.228 C 
HETATM   14  O   UNL     1      38.183 -10.532  -0.481  1.00  0.00    -0.273 OA
HETATM   15  H   UNL     1      40.755 -11.076  -2.306  1.00  0.00     0.169 HD
BRANCH  13  16
HETATM   16  C   UNL     1      39.307  -8.998  -1.930  1.00  0.00     0.104 C 
HETATM   17  C   UNL     1      40.394  -9.022  -2.978  1.00  0.00     0.181 C 
HETATM   18  O   UNL     1      41.613  -8.816  -2.244  1.00  0.00    -0.390 OA
HETATM   19  C   UNL     1      41.314  -7.931  -1.153  1.00  0.00     0.168 C 
HETATM   20  C   UNL     1      39.812  -7.969  -0.936  1.00  0.00     0.042 C 
ENDBRANCH  13  16
ENDBRANCH  10  12
ENDBRANCH   4   7
BRANCH   1  21
HETATM   21  C   UNL     1      42.935 -17.131   4.795  1.00  0.00     0.253 C 
HETATM   22  N   UNL     1      42.904 -16.753   6.140  1.00  0.00    -0.348 N 
HETATM   23  C   UNL     1      43.554 -17.642   7.094  1.00  0.00     0.153 C 
HETATM   24  O   UNL     1      43.435 -18.192   4.419  1.00  0.00    -0.267 OA
BRANCH  22  25
HETATM   25  C   UNL     1      41.957 -15.788   6.703  1.00  0.00     0.164 C 
BRANCH  25  26
HETATM   26  C   UNL     1      42.351 -14.332   6.547  1.00  0.00    -0.038 A 
HETATM   27  C   UNL     1      43.617 -13.837   6.912  1.00  0.00     0.045 A 
HETATM   28  C   UNL     1      43.967 -12.506   6.669  1.00  0.00     0.068 A 
HETATM   29  C   UNL     1      43.031 -11.646   6.097  1.00  0.00     0.037 A 
HETATM   30  C   UNL     1      41.767 -12.114   5.741  1.00  0.00     0.003 A 
HETATM   31  C   UNL     1      41.433 -13.450   5.957  1.00  0.00     0.009 A 
BRANCH  28  32
HETATM   32  O   UNL     1      45.179 -11.937   6.948  1.00  0.00    -0.356 OA
HETATM   33  C   UNL     1      45.165 -10.805   7.812  1.00  0.00     0.210 C 
ENDBRANCH  28  32
ENDBRANCH  25  26
ENDBRANCH  22  25
ENDBRANCH   1  21
TORSDOF 7
ENDMDL
MODEL 9
REMARK VINA RESULT:      -7.5      2.705      4.869
REMARK  7 active torsions:
REMARK  status: ('A' for Active; 'I' for Inactive)
REMARK       I    between atoms: N_2  and  C_3 
REMARK    1  A    between atoms: N_2  and  C_24 
REMARK    2  A    between atoms: C_3  and  C_4 
REMARK    3  A    between atoms: C_7  and  N_8 
REMARK    4  A    between atoms: C_11  and  N_12 
REMARK       I    between atoms: N_12  and  C_13 
REMARK    5  A    between atoms: C_13  and  C_14 
REMARK    6  A    between atoms: C_24  and  C_25 
REMARK    7  A    between atoms: C_27  and  O_28 
ROOT
HETATM    1  C   UNL     1      42.406 -15.934   5.455  1.00  0.00     0.032 A 
HETATM    2  C   UNL     1      43.185 -14.789   5.628  1.00  0.00     0.019 A 
HETATM    3  C   UNL     1      42.585 -13.566   5.936  1.00  0.00     0.032 A 
HETATM    4  C   UNL     1      41.189 -13.460   6.023  1.00  0.00     0.058 A 
HETATM    5  C   UNL     1      40.402 -14.604   5.839  1.00  0.00     0.032 A 
HETATM    6  C   UNL     1      41.012 -15.834   5.556  1.00  0.00     0.019 A 
ENDROOT
BRANCH   4   7
HETATM    7  N   UNL     1      40.607 -12.177   6.230  1.00  0.00    -0.243 N 
HETATM    8  N   UNL     1      39.258 -12.029   6.270  1.00  0.00    -0.178 NA
HETATM    9  C   UNL     1      39.067 -10.753   6.607  1.00  0.00     0.170 A 
HETATM   10  C   UNL     1      40.276 -10.055   6.770  1.00  0.00     0.071 A 
HETATM   11  C   UNL     1      41.249 -10.979   6.471  1.00  0.00     0.149 A 
BRANCH  10  12
HETATM   12  N   UNL     1      40.539  -8.760   7.168  1.00  0.00    -0.324 N 
HETATM   13  C   UNL     1      40.438  -8.314   8.471  1.00  0.00     0.228 C 
HETATM   14  O   UNL     1      40.027  -8.984   9.418  1.00  0.00    -0.273 OA
HETATM   15  H   UNL     1      40.847  -8.108   6.450  1.00  0.00     0.169 HD
BRANCH  13  16
HETATM   16  C   UNL     1      40.971  -6.905   8.707  1.00  0.00     0.104 C 
HETATM   17  C   UNL     1      41.730  -6.374   7.515  1.00  0.00     0.181 C 
HETATM   18  O   UNL     1      43.068  -6.873   7.683  1.00  0.00    -0.390 OA
HETATM   19  C   UNL     1      43.342  -6.905   9.093  1.00  0.00     0.168 C 
HETATM   20  C   UNL     1      42.006  -6.873   9.815  1.00  0.00     0.042 C 
ENDBRANCH  13  16
ENDBRANCH  10  12
ENDBRANCH   4   7
BRANCH   1  21
HETATM   21  C   UNL     1      42.995 -17.232   5.028  1.00  0.00     0.253 C 
HETATM   22  N   UNL     1      43.328 -17.463   3.690  1.00  0.00    -0.348 N 
HETATM   23  C   UNL     1      43.821 -18.791   3.350  1.00  0.00     0.153 C 
HETATM   24  O   UNL     1      43.156 -18.082   5.905  1.00  0.00    -0.267 OA
BRANCH  22  25
HETATM   25  C   UNL     1      43.603 -16.405   2.715  1.00  0.00     0.164 C 
BRANCH  25  26
HETATM   26  C   UNL     1      42.377 -15.722   2.143  1.00  0.00    -0.038 A 
HETATM   27  C   UNL     1      42.385 -14.392   1.682  1.00  0.00     0.045 A 
HETATM   28  C   UNL     1      41.255 -13.832   1.080  1.00  0.00     0.068 A 
HETATM   29  C   UNL     1      40.089 -14.589   0.977  1.00  0.00     0.037 A 
HETATM   30  C   UNL     1      40.056 -15.903   1.440  1.00  0.00     0.003 A 
HETATM   31  C   UNL     1      41.196 -16.469   2.011  1.00  0.00     0.009 A 
BRANCH  28  32
HETATM   32  O   UNL     1      41.170 -12.568   0.565  1.00  0.00    -0.356 OA
HETATM   33  C   UNL     1      40.494 -12.434  -0.681  1.00  0.00     0.210 C 
ENDBRANCH  28  32
ENDBRANCH  25  26
ENDBRANCH  22  25
ENDBRANCH   1  21
TORSDOF 7
ENDMDL
MODEL 10
REMARK VINA RESULT:      -7.4      2.962     10.109
REMARK  7 active torsions:
REMARK  status: ('A' for Active; 'I' for Inactive)
REMARK       I    between atoms: N_2  and  C_3 
REMARK    1  A    between atoms: N_2  and  C_24 
REMARK    2  A    between atoms: C_3  and  C_4 
REMARK    3  A    between atoms: C_7  and  N_8 
REMARK    4  A    between atoms: C_11  and  N_12 
REMARK       I    between atoms: N_12  and  C_13 
REMARK    5  A    between atoms: C_13  and  C_14 
REMARK    6  A    between atoms: C_24  and  C_25 
REMARK    7  A    between atoms: C_27  and  O_28 
ROOT
HETATM    1  C   UNL     1      43.001  -8.626  12.212  1.00  0.00     0.032 A 
HETATM    2  C   UNL     1      43.230 -10.001  12.153  1.00  0.00     0.019 A 
HETATM    3  C   UNL     1      43.680 -10.593  10.970  1.00  0.00     0.032 A 
HETATM    4  C   UNL     1      43.856  -9.822   9.811  1.00  0.00     0.058 A 
HETATM    5  C   UNL     1      43.618  -8.443   9.863  1.00  0.00     0.032 A 
HETATM    6  C   UNL     1      43.192  -7.851  11.060  1.00  0.00     0.019 A 
ENDROOT
BRANCH   4   7
HETATM    7  N   UNL     1      44.210 -10.475   8.596  1.00  0.00    -0.243 N 
HETATM    8  N   UNL     1      45.504 -10.791   8.334  1.00  0.00    -0.178 NA
HETATM    9  C   UNL     1      45.457 -11.496   7.203  1.00  0.00     0.170 A 
HETATM   10  C   UNL     1      44.149 -11.632   6.709  1.00  0.00     0.071 A 
HETATM   11  C   UNL     1      43.372 -10.922   7.594  1.00  0.00     0.149 A 
BRANCH  10  12
HETATM   12  N   UNL     1      43.647 -12.321   5.623  1.00  0.00    -0.324 N 
HETATM   13  C   UNL     1      43.247 -13.642   5.661  1.00  0.00     0.228 C 
HETATM   14  O   UNL     1      43.364 -14.389   6.632  1.00  0.00    -0.273 OA
HETATM   15  H   UNL     1      43.549 -11.805   4.752  1.00  0.00     0.169 HD
BRANCH  13  16
HETATM   16  C   UNL     1      42.539 -14.132   4.402  1.00  0.00     0.104 C 
HETATM   17  C   UNL     1      42.380 -13.037   3.374  1.00  0.00     0.181 C 
HETATM   18  O   UNL     1      41.172 -12.356   3.750  1.00  0.00    -0.390 OA
HETATM   19  C   UNL     1      40.274 -13.338   4.292  1.00  0.00     0.168 C 
HETATM   20  C   UNL     1      41.108 -14.545   4.687  1.00  0.00     0.042 C 
ENDBRANCH  13  16
ENDBRANCH  10  12
ENDBRANCH   4   7
BRANCH   1  21
HETATM   21  C   UNL     1      42.427  -7.973  13.419  1.00  0.00     0.253 C 
HETATM   22  N   UNL     1      41.047  -7.970  13.645  1.00  0.00    -0.348 N 
HETATM   23  C   UNL     1      40.569  -7.235  14.809  1.00  0.00     0.153 C 
HETATM   24  O   UNL     1      43.223  -7.433  14.188  1.00  0.00    -0.267 OA
BRANCH  22  25
HETATM   25  C   UNL     1      40.116  -8.942  13.070  1.00  0.00     0.164 C 
BRANCH  25  26
HETATM   26  C   UNL     1      39.706  -8.673  11.636  1.00  0.00    -0.038 A 
HETATM   27  C   UNL     1      39.275  -7.411  11.185  1.00  0.00     0.045 A 
HETATM   28  C   UNL     1      38.991  -7.187   9.835  1.00  0.00     0.068 A 
HETATM   29  C   UNL     1      39.094  -8.242   8.931  1.00  0.00     0.037 A 
HETATM   30  C   UNL     1      39.506  -9.503   9.359  1.00  0.00     0.003 A 
HETATM   31  C   UNL     1      39.818  -9.714  10.702  1.00  0.00     0.009 A 
BRANCH  28  32
HETATM   32  O   UNL     1      38.605  -5.994   9.290  1.00  0.00    -0.356 OA
HETATM   33  C   UNL     1      38.834  -4.832  10.080  1.00  0.00     0.210 C 
ENDBRANCH  28  32
ENDBRANCH  25  26
ENDBRANCH  22  25
ENDBRANCH   1  21
TORSDOF 7
ENDMDL
