MODEL 1
REMARK VINA RESULT:      -7.6      0.000      0.000
REMARK  9 active torsions:
REMARK  status: ('A' for Active; 'I' for Inactive)
REMARK    1  A    between atoms: C_3  and  C_4 
REMARK       I    between atoms: C_4  and  N_5 
REMARK    2  A    between atoms: N_5  and  N_6 
REMARK    3  A    between atoms: N_6  and  C_7 
REMARK    4  A    between atoms: C_7  and  N_8 
REMARK    5  A    between atoms: N_8  and  C_9 
REMARK    6  A    between atoms: C_9  and  C_10 
REMARK    7  A    between atoms: C_18  and  C_19 
REMARK    8  A    between atoms: C_19  and  O_20 
REMARK    9  A    between atoms: O_20  and  C_21 
ROOT
HETATM    1  C   UNL     1      42.585 -16.313   4.299  1.00  0.00     0.069 A 
HETATM    2  C   UNL     1      42.066 -16.584   3.033  1.00  0.00     0.038 A 
HETATM    3  C   UNL     1      42.429 -17.759   2.362  1.00  0.00     0.025 A 
HETATM    4  C   UNL     1      43.315 -18.666   2.952  1.00  0.00     0.044 A 
HETATM    5  C   UNL     1      43.684 -19.867   2.262  1.00  0.00     0.099 C 
HETATM    6  N   UNL     1      43.983 -20.837   1.698  1.00  0.00    -0.191 NA
HETATM    7  C   UNL     1      43.836 -18.395   4.219  1.00  0.00     0.025 A 
HETATM    8  C   UNL     1      43.469 -17.224   4.886  1.00  0.00     0.038 A 
ENDROOT
BRANCH   1   9
HETATM    9  O   UNL     1      42.312 -15.216   5.064  1.00  0.00    -0.347 OA
BRANCH   9  10
HETATM   10  C   UNL     1      43.411 -14.399   5.461  1.00  0.00     0.214 C 
BRANCH  10  11
HETATM   11  C   UNL     1      43.066 -12.975   5.097  1.00  0.00    -0.033 A 
HETATM   12  C   UNL     1      42.693 -12.063   6.100  1.00  0.00     0.026 A 
HETATM   13  C   UNL     1      42.422 -10.724   5.786  1.00  0.00     0.034 A 
HETATM   14  C   UNL     1      42.505 -10.308   4.450  1.00  0.00     0.017 A 
HETATM   15  C   UNL     1      42.876 -11.206   3.449  1.00  0.00     0.002 A 
HETATM   16  C   UNL     1      43.166 -12.531   3.772  1.00  0.00     0.009 A 
BRANCH  13  17
HETATM   17  C   UNL     1      42.054  -9.706   6.813  1.00  0.00     0.270 C 
HETATM   18  N   UNL     1      41.776 -10.165   8.086  1.00  0.00    -0.264 N 
HETATM   19  H   UNL     1      41.887 -11.124   8.395  1.00  0.00     0.190 HD
HETATM   20  O   UNL     1      42.027  -8.509   6.532  1.00  0.00    -0.266 OA
BRANCH  18  21
HETATM   21  N   UNL     1      41.533  -9.217   9.088  1.00  0.00    -0.274 N 
HETATM   22  H   UNL     1      40.955  -8.436   8.785  1.00  0.00     0.189 HD
BRANCH  21  23
HETATM   23  C   UNL     1      41.561  -9.571  10.414  1.00  0.00     0.186 C 
HETATM   24  S   UNL     1      40.212  -9.796  11.378  1.00  0.00    -0.040 SA
BRANCH  23  25
HETATM   25  N   UNL     1      42.793  -9.817  10.945  1.00  0.00    -0.364 N 
HETATM   26  H   UNL     1      43.002 -10.809  11.034  1.00  0.00     0.162 HD
BRANCH  25  27
HETATM   27  C   UNL     1      43.963  -8.953  10.840  1.00  0.00     0.154 C 
BRANCH  27  28
HETATM   28  C   UNL     1      45.040  -9.577   9.952  1.00  0.00     0.139 C 
HETATM   29  O   UNL     1      44.543 -10.783   9.347  1.00  0.00    -0.384 OA
HETATM   30  C   UNL     1      45.356 -11.022   8.195  1.00  0.00     0.168 C 
HETATM   31  C   UNL     1      45.790  -9.665   7.680  1.00  0.00     0.029 C 
HETATM   32  C   UNL     1      45.441  -8.692   8.787  1.00  0.00     0.035 C 
ENDBRANCH  27  28
ENDBRANCH  25  27
ENDBRANCH  23  25
ENDBRANCH  21  23
ENDBRANCH  18  21
ENDBRANCH  13  17
ENDBRANCH  10  11
ENDBRANCH   9  10
ENDBRANCH   1   9
TORSDOF 9
ENDMDL
MODEL 2
REMARK VINA RESULT:      -7.6      5.025      7.337
REMARK  9 active torsions:
REMARK  status: ('A' for Active; 'I' for Inactive)
REMARK    1  A    between atoms: C_3  and  C_4 
REMARK       I    between atoms: C_4  and  N_5 
REMARK    2  A    between atoms: N_5  and  N_6 
REMARK    3  A    between atoms: N_6  and  C_7 
REMARK    4  A    between atoms: C_7  and  N_8 
REMARK    5  A    between atoms: N_8  and  C_9 
REMARK    6  A    between atoms: C_9  and  C_10 
REMARK    7  A    between atoms: C_18  and  C_19 
REMARK    8  A    between atoms: C_19  and  O_20 
REMARK    9  A    between atoms: O_20  and  C_21 
ROOT
HETATM    1  C   UNL     1      43.222 -16.145   4.200  1.00  0.00     0.069 A 
HETATM    2  C   UNL     1      42.569 -16.444   3.005  1.00  0.00     0.038 A 
HETATM    3  C   UNL     1      42.731 -17.703   2.412  1.00  0.00     0.025 A 
HETATM    4  C   UNL     1      43.550 -18.667   3.010  1.00  0.00     0.044 A 
HETATM    5  C   UNL     1      43.714 -19.953   2.400  1.00  0.00     0.099 C 
HETATM    6  N   UNL     1      43.847 -20.994   1.901  1.00  0.00    -0.191 NA
HETATM    7  C   UNL     1      44.206 -18.368   4.207  1.00  0.00     0.025 A 
HETATM    8  C   UNL     1      44.039 -17.112   4.796  1.00  0.00     0.038 A 
ENDROOT
BRANCH   1   9
HETATM    9  O   UNL     1      43.147 -14.967   4.887  1.00  0.00    -0.347 OA
BRANCH   9  10
HETATM   10  C   UNL     1      43.020 -13.768   4.126  1.00  0.00     0.214 C 
BRANCH  10  11
HETATM   11  C   UNL     1      41.713 -13.124   4.521  1.00  0.00    -0.033 A 
HETATM   12  C   UNL     1      40.885 -12.553   3.539  1.00  0.00     0.026 A 
HETATM   13  C   UNL     1      39.644 -11.999   3.882  1.00  0.00     0.034 A 
HETATM   14  C   UNL     1      39.247 -11.999   5.226  1.00  0.00     0.017 A 
HETATM   15  C   UNL     1      40.062 -12.565   6.207  1.00  0.00     0.002 A 
HETATM   16  C   UNL     1      41.285 -13.134   5.855  1.00  0.00     0.009 A 
BRANCH  13  17
HETATM   17  C   UNL     1      38.710 -11.410   2.878  1.00  0.00     0.270 C 
HETATM   18  N   UNL     1      38.136 -12.274   1.967  1.00  0.00    -0.264 N 
HETATM   19  H   UNL     1      38.232 -13.283   1.982  1.00  0.00     0.190 HD
HETATM   20  O   UNL     1      38.450 -10.208   2.889  1.00  0.00    -0.266 OA
BRANCH  18  21
HETATM   21  N   UNL     1      37.177 -11.758   1.086  1.00  0.00    -0.274 N 
HETATM   22  H   UNL     1      36.405 -11.283   1.549  1.00  0.00     0.189 HD
BRANCH  21  23
HETATM   23  C   UNL     1      37.513 -11.419  -0.201  1.00  0.00     0.186 C 
HETATM   24  S   UNL     1      37.651  -9.855  -0.779  1.00  0.00    -0.040 SA
BRANCH  23  25
HETATM   25  N   UNL     1      37.816 -12.454  -1.036  1.00  0.00    -0.364 N 
HETATM   26  H   UNL     1      36.994 -12.948  -1.379  1.00  0.00     0.162 HD
BRANCH  25  27
HETATM   27  C   UNL     1      38.989 -12.550  -1.898  1.00  0.00     0.154 C 
BRANCH  27  28
HETATM   28  C   UNL     1      40.067 -13.440  -1.276  1.00  0.00     0.139 C 
HETATM   29  O   UNL     1      40.695 -12.759  -0.176  1.00  0.00    -0.384 OA
HETATM   30  C   UNL     1      41.288 -13.772   0.640  1.00  0.00     0.168 C 
HETATM   31  C   UNL     1      40.421 -15.007   0.500  1.00  0.00     0.029 C 
HETATM   32  C   UNL     1      39.512 -14.720  -0.677  1.00  0.00     0.035 C 
ENDBRANCH  27  28
ENDBRANCH  25  27
ENDBRANCH  23  25
ENDBRANCH  21  23
ENDBRANCH  18  21
ENDBRANCH  13  17
ENDBRANCH  10  11
ENDBRANCH   9  10
ENDBRANCH   1   9
TORSDOF 9
ENDMDL
MODEL 3
REMARK VINA RESULT:      -7.5      3.115      9.842
REMARK  9 active torsions:
REMARK  status: ('A' for Active; 'I' for Inactive)
REMARK    1  A    between atoms: C_3  and  C_4 
REMARK       I    between atoms: C_4  and  N_5 
REMARK    2  A    between atoms: N_5  and  N_6 
REMARK    3  A    between atoms: N_6  and  C_7 
REMARK    4  A    between atoms: C_7  and  N_8 
REMARK    5  A    between atoms: N_8  and  C_9 
REMARK    6  A    between atoms: C_9  and  C_10 
REMARK    7  A    between atoms: C_18  and  C_19 
REMARK    8  A    between atoms: C_19  and  O_20 
REMARK    9  A    between atoms: O_20  and  C_21 
ROOT
HETATM    1  C   UNL     1      42.535  -9.342  12.068  1.00  0.00     0.069 A 
HETATM    2  C   UNL     1      41.391  -9.856  12.678  1.00  0.00     0.038 A 
HETATM    3  C   UNL     1      40.972  -9.356  13.917  1.00  0.00     0.025 A 
HETATM    4  C   UNL     1      41.696  -8.343  14.554  1.00  0.00     0.044 A 
HETATM    5  C   UNL     1      41.264  -7.835  15.823  1.00  0.00     0.099 C 
HETATM    6  N   UNL     1      40.913  -7.428  16.852  1.00  0.00    -0.191 NA
HETATM    7  C   UNL     1      42.843  -7.828  13.944  1.00  0.00     0.025 A 
HETATM    8  C   UNL     1      43.256  -8.327  12.706  1.00  0.00     0.038 A 
ENDROOT
BRANCH   1   9
HETATM    9  O   UNL     1      43.050  -9.729  10.864  1.00  0.00    -0.347 OA
BRANCH   9  10
HETATM   10  C   UNL     1      44.165  -9.000  10.359  1.00  0.00     0.214 C 
BRANCH  10  11
HETATM   11  C   UNL     1      44.720  -9.781   9.192  1.00  0.00    -0.033 A 
HETATM   12  C   UNL     1      43.982 -10.843   8.640  1.00  0.00     0.026 A 
HETATM   13  C   UNL     1      44.459 -11.542   7.523  1.00  0.00     0.034 A 
HETATM   14  C   UNL     1      45.698 -11.186   6.974  1.00  0.00     0.017 A 
HETATM   15  C   UNL     1      46.436 -10.132   7.515  1.00  0.00     0.002 A 
HETATM   16  C   UNL     1      45.946  -9.426   8.612  1.00  0.00     0.009 A 
BRANCH  13  17
HETATM   17  C   UNL     1      43.703 -12.655   6.876  1.00  0.00     0.270 C 
HETATM   18  N   UNL     1      42.365 -12.438   6.609  1.00  0.00    -0.264 N 
HETATM   19  H   UNL     1      41.882 -11.556   6.739  1.00  0.00     0.190 HD
HETATM   20  O   UNL     1      44.265 -13.706   6.573  1.00  0.00    -0.266 OA
BRANCH  18  21
HETATM   21  N   UNL     1      41.666 -13.428   5.907  1.00  0.00    -0.274 N 
HETATM   22  H   UNL     1      41.230 -14.127   6.505  1.00  0.00     0.189 HD
BRANCH  21  23
HETATM   23  C   UNL     1      41.144 -13.173   4.663  1.00  0.00     0.186 C 
HETATM   24  S   UNL     1      39.639 -12.504   4.369  1.00  0.00    -0.040 SA
BRANCH  23  25
HETATM   25  N   UNL     1      41.962 -13.433   3.603  1.00  0.00    -0.364 N 
HETATM   26  H   UNL     1      42.873 -12.985   3.678  1.00  0.00     0.162 HD
BRANCH  25  27
HETATM   27  C   UNL     1      41.938 -14.632   2.772  1.00  0.00     0.154 C 
BRANCH  27  28
HETATM   28  C   UNL     1      43.076 -15.586   3.135  1.00  0.00     0.139 C 
HETATM   29  O   UNL     1      42.865 -16.128   4.451  1.00  0.00    -0.384 OA
HETATM   30  C   UNL     1      43.632 -17.333   4.519  1.00  0.00     0.168 C 
HETATM   31  C   UNL     1      43.666 -17.908   3.117  1.00  0.00     0.029 C 
HETATM   32  C   UNL     1      43.155 -16.797   2.223  1.00  0.00     0.035 C 
ENDBRANCH  27  28
ENDBRANCH  25  27
ENDBRANCH  23  25
ENDBRANCH  21  23
ENDBRANCH  18  21
ENDBRANCH  13  17
ENDBRANCH  10  11
ENDBRANCH   9  10
ENDBRANCH   1   9
TORSDOF 9
ENDMDL
MODEL 4
REMARK VINA RESULT:      -7.5      2.924      9.354
REMARK  9 active torsions:
REMARK  status: ('A' for Active; 'I' for Inactive)
REMARK    1  A    between atoms: C_3  and  C_4 
REMARK       I    between atoms: C_4  and  N_5 
REMARK    2  A    between atoms: N_5  and  N_6 
REMARK    3  A    between atoms: N_6  and  C_7 
REMARK    4  A    between atoms: C_7  and  N_8 
REMARK    5  A    between atoms: N_8  and  C_9 
REMARK    6  A    between atoms: C_9  and  C_10 
REMARK    7  A    between atoms: C_18  and  C_19 
REMARK    8  A    between atoms: C_19  and  O_20 
REMARK    9  A    between atoms: O_20  and  C_21 
ROOT
HETATM    1  C   UNL     1      42.893  -8.271  10.788  1.00  0.00     0.069 A 
HETATM    2  C   UNL     1      43.316  -9.196  11.743  1.00  0.00     0.038 A 
HETATM    3  C   UNL     1      42.377  -9.980  12.424  1.00  0.00     0.025 A 
HETATM    4  C   UNL     1      41.011  -9.841  12.158  1.00  0.00     0.044 A 
HETATM    5  C   UNL     1      40.053 -10.645  12.859  1.00  0.00     0.099 C 
HETATM    6  N   UNL     1      39.280 -11.296  13.431  1.00  0.00    -0.191 NA
HETATM    7  C   UNL     1      40.587  -8.914  11.203  1.00  0.00     0.025 A 
HETATM    8  C   UNL     1      41.527  -8.136  10.523  1.00  0.00     0.038 A 
ENDROOT
BRANCH   1   9
HETATM    9  O   UNL     1      43.697  -7.452  10.049  1.00  0.00    -0.347 OA
BRANCH   9  10
HETATM   10  C   UNL     1      43.587  -7.527   8.630  1.00  0.00     0.214 C 
BRANCH  10  11
HETATM   11  C   UNL     1      44.119  -8.875   8.209  1.00  0.00    -0.033 A 
HETATM   12  C   UNL     1      43.299  -9.764   7.492  1.00  0.00     0.026 A 
HETATM   13  C   UNL     1      43.796 -10.997   7.048  1.00  0.00     0.034 A 
HETATM   14  C   UNL     1      45.120 -11.346   7.348  1.00  0.00     0.017 A 
HETATM   15  C   UNL     1      45.941 -10.469   8.057  1.00  0.00     0.002 A 
HETATM   16  C   UNL     1      45.447  -9.235   8.477  1.00  0.00     0.009 A 
BRANCH  13  17
HETATM   17  C   UNL     1      42.982 -11.965   6.256  1.00  0.00     0.270 C 
HETATM   18  N   UNL     1      43.583 -13.158   5.905  1.00  0.00    -0.264 N 
HETATM   19  H   UNL     1      44.500 -13.460   6.217  1.00  0.00     0.190 HD
HETATM   20  O   UNL     1      41.816 -11.711   5.956  1.00  0.00    -0.266 OA
BRANCH  18  21
HETATM   21  N   UNL     1      42.803 -14.122   5.255  1.00  0.00    -0.274 N 
HETATM   22  H   UNL     1      42.555 -13.876   4.299  1.00  0.00     0.189 HD
BRANCH  21  23
HETATM   23  C   UNL     1      42.861 -15.442   5.626  1.00  0.00     0.186 C 
HETATM   24  S   UNL     1      42.009 -16.124   6.895  1.00  0.00    -0.040 SA
BRANCH  23  25
HETATM   25  N   UNL     1      43.631 -16.254   4.845  1.00  0.00    -0.364 N 
HETATM   26  H   UNL     1      44.083 -15.762   4.078  1.00  0.00     0.162 HD
BRANCH  25  27
HETATM   27  C   UNL     1      44.311 -17.470   5.276  1.00  0.00     0.154 C 
BRANCH  27  28
HETATM   28  C   UNL     1      44.489 -18.450   4.116  1.00  0.00     0.139 C 
HETATM   29  O   UNL     1      44.098 -19.773   4.523  1.00  0.00    -0.384 OA
HETATM   30  C   UNL     1      43.808 -20.496   3.324  1.00  0.00     0.168 C 
HETATM   31  C   UNL     1      43.285 -19.485   2.323  1.00  0.00     0.029 C 
HETATM   32  C   UNL     1      43.606 -18.132   2.924  1.00  0.00     0.035 C 
ENDBRANCH  27  28
ENDBRANCH  25  27
ENDBRANCH  23  25
ENDBRANCH  21  23
ENDBRANCH  18  21
ENDBRANCH  13  17
ENDBRANCH  10  11
ENDBRANCH   9  10
ENDBRANCH   1   9
TORSDOF 9
ENDMDL
MODEL 5
REMARK VINA RESULT:      -7.4      4.784      6.918
REMARK  9 active torsions:
REMARK  status: ('A' for Active; 'I' for Inactive)
REMARK    1  A    between atoms: C_3  and  C_4 
REMARK       I    between atoms: C_4  and  N_5 
REMARK    2  A    between atoms: N_5  and  N_6 
REMARK    3  A    between atoms: N_6  and  C_7 
REMARK    4  A    between atoms: C_7  and  N_8 
REMARK    5  A    between atoms: N_8  and  C_9 
REMARK    6  A    between atoms: C_9  and  C_10 
REMARK    7  A    between atoms: C_18  and  C_19 
REMARK    8  A    between atoms: C_19  and  O_20 
REMARK    9  A    between atoms: O_20  and  C_21 
ROOT
HETATM    1  C   UNL     1      43.486 -16.548   4.651  1.00  0.00     0.069 A 
HETATM    2  C   UNL     1      43.949 -17.764   5.154  1.00  0.00     0.038 A 
HETATM    3  C   UNL     1      43.988 -18.895   4.329  1.00  0.00     0.025 A 
HETATM    4  C   UNL     1      43.561 -18.817   2.999  1.00  0.00     0.044 A 
HETATM    5  C   UNL     1      43.601 -19.978   2.158  1.00  0.00     0.099 C 
HETATM    6  N   UNL     1      43.633 -20.921   1.482  1.00  0.00    -0.191 NA
HETATM    7  C   UNL     1      43.095 -17.600   2.495  1.00  0.00     0.025 A 
HETATM    8  C   UNL     1      43.061 -16.473   3.320  1.00  0.00     0.038 A 
ENDROOT
BRANCH   1   9
HETATM    9  O   UNL     1      43.401 -15.372   5.339  1.00  0.00    -0.347 OA
BRANCH   9  10
HETATM   10  C   UNL     1      42.254 -15.170   6.161  1.00  0.00     0.214 C 
BRANCH  10  11
HETATM   11  C   UNL     1      41.536 -13.950   5.636  1.00  0.00    -0.033 A 
HETATM   12  C   UNL     1      42.177 -13.093   4.725  1.00  0.00     0.026 A 
HETATM   13  C   UNL     1      41.503 -11.987   4.187  1.00  0.00     0.034 A 
HETATM   14  C   UNL     1      40.185 -11.731   4.589  1.00  0.00     0.017 A 
HETATM   15  C   UNL     1      39.542 -12.578   5.491  1.00  0.00     0.002 A 
HETATM   16  C   UNL     1      40.209 -13.688   6.005  1.00  0.00     0.009 A 
BRANCH  13  17
HETATM   17  C   UNL     1      42.122 -11.063   3.192  1.00  0.00     0.270 C 
HETATM   18  N   UNL     1      41.288 -10.510   2.240  1.00  0.00    -0.264 N 
HETATM   19  H   UNL     1      40.279 -10.616   2.219  1.00  0.00     0.190 HD
HETATM   20  O   UNL     1      43.321 -10.791   3.244  1.00  0.00    -0.266 OA
BRANCH  18  21
HETATM   21  N   UNL     1      41.828  -9.559   1.364  1.00  0.00    -0.274 N 
HETATM   22  H   UNL     1      42.710  -9.162   1.681  1.00  0.00     0.189 HD
BRANCH  21  23
HETATM   23  C   UNL     1      41.535  -9.590   0.024  1.00  0.00     0.186 C 
HETATM   24  S   UNL     1      42.262  -8.635  -1.142  1.00  0.00    -0.040 SA
BRANCH  23  25
HETATM   25  N   UNL     1      40.625 -10.526  -0.372  1.00  0.00    -0.364 N 
HETATM   26  H   UNL     1      39.733 -10.125  -0.655  1.00  0.00     0.162 HD
BRANCH  25  27
HETATM   27  C   UNL     1      40.927 -11.823  -0.966  1.00  0.00     0.154 C 
BRANCH  27  28
HETATM   28  C   UNL     1      40.168 -12.950  -0.263  1.00  0.00     0.139 C 
HETATM   29  O   UNL     1      39.856 -13.995  -1.201  1.00  0.00    -0.384 OA
HETATM   30  C   UNL     1      39.626 -15.176  -0.427  1.00  0.00     0.168 C 
HETATM   31  C   UNL     1      40.504 -15.068   0.803  1.00  0.00     0.029 C 
HETATM   32  C   UNL     1      40.980 -13.630   0.824  1.00  0.00     0.035 C 
ENDBRANCH  27  28
ENDBRANCH  25  27
ENDBRANCH  23  25
ENDBRANCH  21  23
ENDBRANCH  18  21
ENDBRANCH  13  17
ENDBRANCH  10  11
ENDBRANCH   9  10
ENDBRANCH   1   9
TORSDOF 9
ENDMDL
MODEL 6
REMARK VINA RESULT:      -7.3      4.424      7.762
REMARK  9 active torsions:
REMARK  status: ('A' for Active; 'I' for Inactive)
REMARK    1  A    between atoms: C_3  and  C_4 
REMARK       I    between atoms: C_4  and  N_5 
REMARK    2  A    between atoms: N_5  and  N_6 
REMARK    3  A    between atoms: N_6  and  C_7 
REMARK    4  A    between atoms: C_7  and  N_8 
REMARK    5  A    between atoms: N_8  and  C_9 
REMARK    6  A    between atoms: C_9  and  C_10 
REMARK    7  A    between atoms: C_18  and  C_19 
REMARK    8  A    between atoms: C_19  and  O_20 
REMARK    9  A    between atoms: O_20  and  C_21 
ROOT
HETATM    1  C   UNL     1      40.823 -11.126   3.116  1.00  0.00     0.069 A 
HETATM    2  C   UNL     1      41.628 -11.159   1.978  1.00  0.00     0.038 A 
HETATM    3  C   UNL     1      41.204 -11.853   0.838  1.00  0.00     0.025 A 
HETATM    4  C   UNL     1      39.975 -12.521   0.831  1.00  0.00     0.044 A 
HETATM    5  C   UNL     1      39.546 -13.231  -0.337  1.00  0.00     0.099 C 
HETATM    6  N   UNL     1      39.203 -13.807  -1.285  1.00  0.00    -0.191 NA
HETATM    7  C   UNL     1      39.169 -12.490   1.971  1.00  0.00     0.025 A 
HETATM    8  C   UNL     1      39.593 -11.794   3.105  1.00  0.00     0.038 A 
ENDROOT
BRANCH   1   9
HETATM    9  O   UNL     1      41.108 -10.485   4.287  1.00  0.00    -0.347 OA
BRANCH   9  10
HETATM   10  C   UNL     1      40.699 -11.114   5.499  1.00  0.00     0.214 C 
BRANCH  10  11
HETATM   11  C   UNL     1      41.822 -12.025   5.933  1.00  0.00    -0.033 A 
HETATM   12  C   UNL     1      41.603 -13.410   6.040  1.00  0.00     0.026 A 
HETATM   13  C   UNL     1      42.650 -14.275   6.388  1.00  0.00     0.034 A 
HETATM   14  C   UNL     1      43.917 -13.739   6.654  1.00  0.00     0.017 A 
HETATM   15  C   UNL     1      44.143 -12.366   6.548  1.00  0.00     0.002 A 
HETATM   16  C   UNL     1      43.103 -11.514   6.179  1.00  0.00     0.009 A 
BRANCH  13  17
HETATM   17  C   UNL     1      42.484 -15.755   6.485  1.00  0.00     0.270 C 
HETATM   18  N   UNL     1      43.366 -16.537   5.765  1.00  0.00    -0.264 N 
HETATM   19  H   UNL     1      44.166 -16.187   5.249  1.00  0.00     0.190 HD
HETATM   20  O   UNL     1      41.612 -16.247   7.199  1.00  0.00    -0.266 OA
BRANCH  18  21
HETATM   21  N   UNL     1      43.295 -17.927   5.926  1.00  0.00    -0.274 N 
HETATM   22  H   UNL     1      42.507 -18.237   6.491  1.00  0.00     0.189 HD
BRANCH  21  23
HETATM   23  C   UNL     1      43.838 -18.772   4.991  1.00  0.00     0.186 C 
HETATM   24  S   UNL     1      44.173 -20.393   5.239  1.00  0.00    -0.040 SA
BRANCH  23  25
HETATM   25  N   UNL     1      44.051 -18.242   3.752  1.00  0.00    -0.364 N 
HETATM   26  H   UNL     1      45.036 -18.087   3.545  1.00  0.00     0.162 HD
BRANCH  25  27
HETATM   27  C   UNL     1      43.203 -18.426   2.580  1.00  0.00     0.154 C 
BRANCH  27  28
HETATM   28  C   UNL     1      42.471 -17.134   2.213  1.00  0.00     0.139 C 
HETATM   29  O   UNL     1      41.508 -16.807   3.230  1.00  0.00    -0.384 OA
HETATM   30  C   UNL     1      41.244 -15.407   3.100  1.00  0.00     0.168 C 
HETATM   31  C   UNL     1      42.521 -14.769   2.589  1.00  0.00     0.029 C 
HETATM   32  C   UNL     1      43.389 -15.927   2.141  1.00  0.00     0.035 C 
ENDBRANCH  27  28
ENDBRANCH  25  27
ENDBRANCH  23  25
ENDBRANCH  21  23
ENDBRANCH  18  21
ENDBRANCH  13  17
ENDBRANCH  10  11
ENDBRANCH   9  10
ENDBRANCH   1   9
TORSDOF 9
ENDMDL
MODEL 7
REMARK VINA RESULT:      -7.3      3.860      6.381
REMARK  9 active torsions:
REMARK  status: ('A' for Active; 'I' for Inactive)
REMARK    1  A    between atoms: C_3  and  C_4 
REMARK       I    between atoms: C_4  and  N_5 
REMARK    2  A    between atoms: N_5  and  N_6 
REMARK    3  A    between atoms: N_6  and  C_7 
REMARK    4  A    between atoms: C_7  and  N_8 
REMARK    5  A    between atoms: N_8  and  C_9 
REMARK    6  A    between atoms: C_9  and  C_10 
REMARK    7  A    between atoms: C_18  and  C_19 
REMARK    8  A    between atoms: C_19  and  O_20 
REMARK    9  A    between atoms: O_20  and  C_21 
ROOT
HETATM    1  C   UNL     1      41.223 -13.997   0.865  1.00  0.00     0.069 A 
HETATM    2  C   UNL     1      40.337 -14.764   0.109  1.00  0.00     0.038 A 
HETATM    3  C   UNL     1      39.380 -14.137  -0.698  1.00  0.00     0.025 A 
HETATM    4  C   UNL     1      39.301 -12.741  -0.750  1.00  0.00     0.044 A 
HETATM    5  C   UNL     1      38.318 -12.104  -1.576  1.00  0.00     0.099 C 
HETATM    6  N   UNL     1      37.519 -11.592  -2.245  1.00  0.00    -0.191 NA
HETATM    7  C   UNL     1      40.187 -11.973   0.009  1.00  0.00     0.025 A 
HETATM    8  C   UNL     1      41.143 -12.602   0.809  1.00  0.00     0.038 A 
ENDROOT
BRANCH   1   9
HETATM    9  O   UNL     1      42.206 -14.475   1.684  1.00  0.00    -0.347 OA
BRANCH   9  10
HETATM   10  C   UNL     1      42.652 -15.811   1.469  1.00  0.00     0.214 C 
BRANCH  10  11
HETATM   11  C   UNL     1      43.098 -16.356   2.805  1.00  0.00    -0.033 A 
HETATM   12  C   UNL     1      43.057 -15.538   3.948  1.00  0.00     0.026 A 
HETATM   13  C   UNL     1      43.416 -16.046   5.204  1.00  0.00     0.034 A 
HETATM   14  C   UNL     1      43.842 -17.377   5.305  1.00  0.00     0.017 A 
HETATM   15  C   UNL     1      43.884 -18.195   4.176  1.00  0.00     0.002 A 
HETATM   16  C   UNL     1      43.504 -17.691   2.933  1.00  0.00     0.009 A 
BRANCH  13  17
HETATM   17  C   UNL     1      43.360 -15.234   6.455  1.00  0.00     0.270 C 
HETATM   18  N   UNL     1      43.710 -13.901   6.359  1.00  0.00    -0.264 N 
HETATM   19  H   UNL     1      43.917 -13.415   5.494  1.00  0.00     0.190 HD
HETATM   20  O   UNL     1      42.991 -15.735   7.516  1.00  0.00    -0.266 OA
BRANCH  18  21
HETATM   21  N   UNL     1      43.562 -13.099   7.498  1.00  0.00    -0.274 N 
HETATM   22  H   UNL     1      43.812 -13.566   8.367  1.00  0.00     0.189 HD
BRANCH  21  23
HETATM   23  C   UNL     1      43.645 -11.732   7.411  1.00  0.00     0.186 C 
HETATM   24  S   UNL     1      44.994 -10.822   7.802  1.00  0.00    -0.040 SA
BRANCH  23  25
HETATM   25  N   UNL     1      42.551 -11.094   6.902  1.00  0.00    -0.364 N 
HETATM   26  H   UNL     1      41.985 -10.637   7.614  1.00  0.00     0.162 HD
BRANCH  25  27
HETATM   27  C   UNL     1      42.433 -10.519   5.567  1.00  0.00     0.154 C 
BRANCH  27  28
HETATM   28  C   UNL     1      41.665 -11.447   4.625  1.00  0.00     0.139 C 
HETATM   29  O   UNL     1      41.301 -12.657   5.313  1.00  0.00    -0.384 OA
HETATM   30  C   UNL     1      40.205 -13.220   4.587  1.00  0.00     0.168 C 
HETATM   31  C   UNL     1      39.440 -12.059   3.985  1.00  0.00     0.029 C 
HETATM   32  C   UNL     1      40.350 -10.859   4.148  1.00  0.00     0.035 C 
ENDBRANCH  27  28
ENDBRANCH  25  27
ENDBRANCH  23  25
ENDBRANCH  21  23
ENDBRANCH  18  21
ENDBRANCH  13  17
ENDBRANCH  10  11
ENDBRANCH   9  10
ENDBRANCH   1   9
TORSDOF 9
ENDMDL
MODEL 8
REMARK VINA RESULT:      -7.3      3.425     10.339
REMARK  9 active torsions:
REMARK  status: ('A' for Active; 'I' for Inactive)
REMARK    1  A    between atoms: C_3  and  C_4 
REMARK       I    between atoms: C_4  and  N_5 
REMARK    2  A    between atoms: N_5  and  N_6 
REMARK    3  A    between atoms: N_6  and  C_7 
REMARK    4  A    between atoms: C_7  and  N_8 
REMARK    5  A    between atoms: N_8  and  C_9 
REMARK    6  A    between atoms: C_9  and  C_10 
REMARK    7  A    between atoms: C_18  and  C_19 
REMARK    8  A    between atoms: C_19  and  O_20 
REMARK    9  A    between atoms: O_20  and  C_21 
ROOT
HETATM    1  C   UNL     1      42.279  -9.375  11.974  1.00  0.00     0.069 A 
HETATM    2  C   UNL     1      41.144  -9.806  12.661  1.00  0.00     0.038 A 
HETATM    3  C   UNL     1      40.870  -9.312  13.942  1.00  0.00     0.025 A 
HETATM    4  C   UNL     1      41.730  -8.387  14.544  1.00  0.00     0.044 A 
HETATM    5  C   UNL     1      41.445  -7.885  15.857  1.00  0.00     0.099 C 
HETATM    6  N   UNL     1      41.213  -7.483  16.921  1.00  0.00    -0.191 NA
HETATM    7  C   UNL     1      42.867  -7.956  13.858  1.00  0.00     0.025 A 
HETATM    8  C   UNL     1      43.136  -8.449  12.579  1.00  0.00     0.038 A 
ENDROOT
BRANCH   1   9
HETATM    9  O   UNL     1      42.662  -9.767  10.724  1.00  0.00    -0.347 OA
BRANCH   9  10
HETATM   10  C   UNL     1      43.211  -8.775   9.861  1.00  0.00     0.214 C 
BRANCH  10  11
HETATM   11  C   UNL     1      44.166  -9.474   8.924  1.00  0.00    -0.033 A 
HETATM   12  C   UNL     1      43.694 -10.472   8.054  1.00  0.00     0.026 A 
HETATM   13  C   UNL     1      44.558 -11.092   7.140  1.00  0.00     0.034 A 
HETATM   14  C   UNL     1      45.909 -10.722   7.120  1.00  0.00     0.017 A 
HETATM   15  C   UNL     1      46.385  -9.731   7.979  1.00  0.00     0.002 A 
HETATM   16  C   UNL     1      45.516  -9.102   8.870  1.00  0.00     0.009 A 
BRANCH  13  17
HETATM   17  C   UNL     1      44.105 -12.134   6.171  1.00  0.00     0.270 C 
HETATM   18  N   UNL     1      43.513 -13.267   6.693  1.00  0.00    -0.264 N 
HETATM   19  H   UNL     1      43.286 -13.406   7.672  1.00  0.00     0.190 HD
HETATM   20  O   UNL     1      44.235 -11.967   4.960  1.00  0.00    -0.266 OA
BRANCH  18  21
HETATM   21  N   UNL     1      42.987 -14.207   5.797  1.00  0.00    -0.274 N 
HETATM   22  H   UNL     1      42.423 -13.797   5.055  1.00  0.00     0.189 HD
BRANCH  21  23
HETATM   23  C   UNL     1      43.610 -15.412   5.595  1.00  0.00     0.186 C 
HETATM   24  S   UNL     1      44.532 -16.222   6.733  1.00  0.00    -0.040 SA
BRANCH  23  25
HETATM   25  N   UNL     1      43.393 -16.007   4.387  1.00  0.00    -0.364 N 
HETATM   26  H   UNL     1      44.119 -15.804   3.702  1.00  0.00     0.162 HD
BRANCH  25  27
HETATM   27  C   UNL     1      42.669 -17.252   4.158  1.00  0.00     0.154 C 
BRANCH  27  28
HETATM   28  C   UNL     1      43.547 -18.286   3.451  1.00  0.00     0.139 C 
HETATM   29  O   UNL     1      43.672 -19.466   4.264  1.00  0.00    -0.384 OA
HETATM   30  C   UNL     1      44.044 -20.528   3.381  1.00  0.00     0.168 C 
HETATM   31  C   UNL     1      43.418 -20.215   2.037  1.00  0.00     0.029 C 
HETATM   32  C   UNL     1      42.956 -18.776   2.141  1.00  0.00     0.035 C 
ENDBRANCH  27  28
ENDBRANCH  25  27
ENDBRANCH  23  25
ENDBRANCH  21  23
ENDBRANCH  18  21
ENDBRANCH  13  17
ENDBRANCH  10  11
ENDBRANCH   9  10
ENDBRANCH   1   9
TORSDOF 9
ENDMDL
MODEL 9
REMARK VINA RESULT:      -7.0      3.509     10.137
REMARK  9 active torsions:
REMARK  status: ('A' for Active; 'I' for Inactive)
REMARK    1  A    between atoms: C_3  and  C_4 
REMARK       I    between atoms: C_4  and  N_5 
REMARK    2  A    between atoms: N_5  and  N_6 
REMARK    3  A    between atoms: N_6  and  C_7 
REMARK    4  A    between atoms: C_7  and  N_8 
REMARK    5  A    between atoms: N_8  and  C_9 
REMARK    6  A    between atoms: C_9  and  C_10 
REMARK    7  A    between atoms: C_18  and  C_19 
REMARK    8  A    between atoms: C_19  and  O_20 
REMARK    9  A    between atoms: O_20  and  C_21 
ROOT
HETATM    1  C   UNL     1      42.956  -9.037  12.278  1.00  0.00     0.069 A 
HETATM    2  C   UNL     1      43.473  -7.904  12.905  1.00  0.00     0.038 A 
HETATM    3  C   UNL     1      42.919  -7.455  14.110  1.00  0.00     0.025 A 
HETATM    4  C   UNL     1      41.844  -8.135  14.692  1.00  0.00     0.044 A 
HETATM    5  C   UNL     1      41.279  -7.670  15.925  1.00  0.00     0.099 C 
HETATM    6  N   UNL     1      40.823  -7.290  16.923  1.00  0.00    -0.191 NA
HETATM    7  C   UNL     1      41.325  -9.269  14.064  1.00  0.00     0.025 A 
HETATM    8  C   UNL     1      41.882  -9.716  12.864  1.00  0.00     0.038 A 
ENDROOT
BRANCH   1   9
HETATM    9  O   UNL     1      43.402  -9.586  11.110  1.00  0.00    -0.347 OA
BRANCH   9  10
HETATM   10  C   UNL     1      43.803  -8.694  10.073  1.00  0.00     0.214 C 
BRANCH  10  11
HETATM   11  C   UNL     1      44.535  -9.512   9.036  1.00  0.00    -0.033 A 
HETATM   12  C   UNL     1      43.850 -10.501   8.308  1.00  0.00     0.026 A 
HETATM   13  C   UNL     1      44.503 -11.230   7.304  1.00  0.00     0.034 A 
HETATM   14  C   UNL     1      45.858 -10.979   7.050  1.00  0.00     0.017 A 
HETATM   15  C   UNL     1      46.543  -9.998   7.767  1.00  0.00     0.002 A 
HETATM   16  C   UNL     1      45.883  -9.260   8.749  1.00  0.00     0.009 A 
BRANCH  13  17
HETATM   17  C   UNL     1      43.819 -12.268   6.477  1.00  0.00     0.270 C 
HETATM   18  N   UNL     1      43.143 -13.267   7.151  1.00  0.00    -0.264 N 
HETATM   19  H   UNL     1      43.004 -13.300   8.155  1.00  0.00     0.190 HD
HETATM   20  O   UNL     1      43.840 -12.211   5.249  1.00  0.00    -0.266 OA
BRANCH  18  21
HETATM   21  N   UNL     1      42.407 -14.188   6.395  1.00  0.00    -0.274 N 
HETATM   22  H   UNL     1      41.669 -13.766   5.835  1.00  0.00     0.189 HD
BRANCH  21  23
HETATM   23  C   UNL     1      42.961 -15.381   6.005  1.00  0.00     0.186 C 
HETATM   24  S   UNL     1      43.782 -16.436   7.011  1.00  0.00    -0.040 SA
BRANCH  23  25
HETATM   25  N   UNL     1      42.758 -15.743   4.705  1.00  0.00    -0.364 N 
HETATM   26  H   UNL     1      42.094 -16.507   4.600  1.00  0.00     0.162 HD
BRANCH  25  27
HETATM   27  C   UNL     1      42.876 -14.872   3.541  1.00  0.00     0.154 C 
BRANCH  27  28
HETATM   28  C   UNL     1      41.530 -14.698   2.835  1.00  0.00     0.139 C 
HETATM   29  O   UNL     1      41.737 -14.275   1.476  1.00  0.00    -0.384 OA
HETATM   30  C   UNL     1      40.545 -14.615   0.762  1.00  0.00     0.168 C 
HETATM   31  C   UNL     1      39.980 -15.856   1.423  1.00  0.00     0.029 C 
HETATM   32  C   UNL     1      40.741 -15.990   2.726  1.00  0.00     0.035 C 
ENDBRANCH  27  28
ENDBRANCH  25  27
ENDBRANCH  23  25
ENDBRANCH  21  23
ENDBRANCH  18  21
ENDBRANCH  13  17
ENDBRANCH  10  11
ENDBRANCH   9  10
ENDBRANCH   1   9
TORSDOF 9
ENDMDL
MODEL 10
REMARK VINA RESULT:      -7.0      3.822      9.641
REMARK  9 active torsions:
REMARK  status: ('A' for Active; 'I' for Inactive)
REMARK    1  A    between atoms: C_3  and  C_4 
REMARK       I    between atoms: C_4  and  N_5 
REMARK    2  A    between atoms: N_5  and  N_6 
REMARK    3  A    between atoms: N_6  and  C_7 
REMARK    4  A    between atoms: C_7  and  N_8 
REMARK    5  A    between atoms: N_8  and  C_9 
REMARK    6  A    between atoms: C_9  and  C_10 
REMARK    7  A    between atoms: C_18  and  C_19 
REMARK    8  A    between atoms: C_19  and  O_20 
REMARK    9  A    between atoms: O_20  and  C_21 
ROOT
HETATM    1  C   UNL     1      42.432  -9.155  12.490  1.00  0.00     0.069 A 
HETATM    2  C   UNL     1      41.463  -9.462  13.445  1.00  0.00     0.038 A 
HETATM    3  C   UNL     1      41.363  -8.698  14.614  1.00  0.00     0.025 A 
HETATM    4  C   UNL     1      42.234  -7.625  14.836  1.00  0.00     0.044 A 
HETATM    5  C   UNL     1      42.129  -6.846  16.034  1.00  0.00     0.099 C 
HETATM    6  N   UNL     1      42.042  -6.218  17.007  1.00  0.00    -0.191 NA
HETATM    7  C   UNL     1      43.205  -7.318  13.880  1.00  0.00     0.025 A 
HETATM    8  C   UNL     1      43.299  -8.081  12.714  1.00  0.00     0.038 A 
ENDROOT
BRANCH   1   9
HETATM    9  O   UNL     1      42.635  -9.809  11.309  1.00  0.00    -0.347 OA
BRANCH   9  10
HETATM   10  C   UNL     1      43.738 -10.709  11.235  1.00  0.00     0.214 C 
BRANCH  10  11
HETATM   11  C   UNL     1      44.456 -10.432   9.936  1.00  0.00    -0.033 A 
HETATM   12  C   UNL     1      44.136 -11.170   8.783  1.00  0.00     0.026 A 
HETATM   13  C   UNL     1      44.755 -10.888   7.557  1.00  0.00     0.034 A 
HETATM   14  C   UNL     1      45.718  -9.872   7.499  1.00  0.00     0.017 A 
HETATM   15  C   UNL     1      46.040  -9.134   8.638  1.00  0.00     0.002 A 
HETATM   16  C   UNL     1      45.405  -9.405   9.849  1.00  0.00     0.009 A 
BRANCH  13  17
HETATM   17  C   UNL     1      44.431 -11.617   6.296  1.00  0.00     0.270 C 
HETATM   18  N   UNL     1      43.568 -12.691   6.391  1.00  0.00    -0.264 N 
HETATM   19  H   UNL     1      43.073 -12.967   7.232  1.00  0.00     0.190 HD
HETATM   20  O   UNL     1      44.898 -11.251   5.218  1.00  0.00    -0.266 OA
BRANCH  18  21
HETATM   21  N   UNL     1      43.169 -13.321   5.205  1.00  0.00    -0.274 N 
HETATM   22  H   UNL     1      43.943 -13.643   4.628  1.00  0.00     0.189 HD
BRANCH  21  23
HETATM   23  C   UNL     1      41.947 -13.939   5.113  1.00  0.00     0.186 C 
HETATM   24  S   UNL     1      41.553 -15.403   5.822  1.00  0.00    -0.040 SA
BRANCH  23  25
HETATM   25  N   UNL     1      40.975 -13.256   4.442  1.00  0.00    -0.364 N 
HETATM   26  H   UNL     1      40.843 -13.580   3.486  1.00  0.00     0.162 HD
BRANCH  25  27
HETATM   27  C   UNL     1      39.808 -12.613   5.035  1.00  0.00     0.154 C 
BRANCH  27  28
HETATM   28  C   UNL     1      40.065 -11.130   5.306  1.00  0.00     0.139 C 
HETATM   29  O   UNL     1      40.807 -10.973   6.528  1.00  0.00    -0.384 OA
HETATM   30  C   UNL     1      41.429  -9.687   6.460  1.00  0.00     0.168 C 
HETATM   31  C   UNL     1      41.708  -9.416   4.996  1.00  0.00     0.029 C 
HETATM   32  C   UNL     1      40.920 -10.468   4.242  1.00  0.00     0.035 C 
ENDBRANCH  27  28
ENDBRANCH  25  27
ENDBRANCH  23  25
ENDBRANCH  21  23
ENDBRANCH  18  21
ENDBRANCH  13  17
ENDBRANCH  10  11
ENDBRANCH   9  10
ENDBRANCH   1   9
TORSDOF 9
ENDMDL
