MODEL 1
REMARK VINA RESULT:      -7.9      0.000      0.000
REMARK  7 active torsions:
REMARK  status: ('A' for Active; 'I' for Inactive)
REMARK    1  A    between atoms: C_2  and  C_3 
REMARK    2  A    between atoms: C_6  and  O_7 
REMARK    3  A    between atoms: O_7  and  C_8 
REMARK    4  A    between atoms: C_8  and  C_9 
REMARK       I    between atoms: C_9  and  N_10 
REMARK    5  A    between atoms: N_10  and  N_11 
REMARK       I    between atoms: N_11  and  C_12 
REMARK    6  A    between atoms: C_12  and  C_13 
REMARK    7  A    between atoms: C_16  and  N_17 
ROOT
HETATM    1  N   UNL     1      44.037 -18.461   4.852  1.00  0.00    -0.263 N 
HETATM    2  C   UNL     1      43.467 -18.063   6.048  1.00  0.00     0.270 C 
HETATM    3  O   UNL     1      42.992 -18.845   6.864  1.00  0.00    -0.266 OA
HETATM    4  H   UNL     1      44.164 -17.802   4.091  1.00  0.00     0.190 HD
ENDROOT
BRANCH   1   5
HETATM    5  N   UNL     1      43.975 -19.819   4.520  1.00  0.00    -0.265 N 
HETATM    6  C   UNL     1      43.940 -20.253   3.212  1.00  0.00     0.260 C 
HETATM    7  O   UNL     1      44.092 -21.447   2.951  1.00  0.00    -0.269 OA
HETATM    8  H   UNL     1      44.398 -20.466   5.184  1.00  0.00     0.190 HD
BRANCH   6   9
HETATM    9  C   UNL     1      43.627 -19.224   2.133  1.00  0.00     0.280 C 
BRANCH   9  10
HETATM   10  O   UNL     1      42.356 -18.647   2.399  1.00  0.00    -0.342 OA
BRANCH  10  11
HETATM   11  C   UNL     1      42.285 -17.289   2.500  1.00  0.00     0.069 A 
HETATM   12  C   UNL     1      43.316 -16.609   1.851  1.00  0.00     0.037 A 
HETATM   13  C   UNL     1      43.375 -15.215   1.871  1.00  0.00     0.010 A 
HETATM   14  C   UNL     1      42.400 -14.479   2.553  1.00  0.00    -0.058 A 
HETATM   15  C   UNL     1      41.362 -15.164   3.197  1.00  0.00     0.010 A 
HETATM   16  C   UNL     1      41.304 -16.562   3.172  1.00  0.00     0.037 A 
BRANCH  14  17
HETATM   17  C   UNL     1      42.445 -12.973   2.557  1.00  0.00     0.034 C 
HETATM   18  C   UNL     1      43.709 -12.445   3.217  1.00  0.00     0.010 C 
ENDBRANCH  14  17
ENDBRANCH  10  11
ENDBRANCH   9  10
ENDBRANCH   6   9
ENDBRANCH   1   5
BRANCH   2  19
HETATM   19  C   UNL     1      43.370 -16.593   6.255  1.00  0.00     0.033 A 
HETATM   20  C   UNL     1      44.484 -15.808   5.953  1.00  0.00     0.019 A 
HETATM   21  C   UNL     1      44.462 -14.434   6.206  1.00  0.00     0.032 A 
HETATM   22  C   UNL     1      43.326 -13.816   6.766  1.00  0.00     0.058 A 
HETATM   23  C   UNL     1      42.194 -14.601   7.006  1.00  0.00     0.032 A 
HETATM   24  C   UNL     1      42.214 -15.982   6.754  1.00  0.00     0.019 A 
BRANCH  22  25
HETATM   25  N   UNL     1      43.386 -12.412   7.050  1.00  0.00    -0.238 N 
HETATM   26  N   UNL     1      44.347 -11.966   7.908  1.00  0.00    -0.172 NA
HETATM   27  C   UNL     1      44.213 -10.643   7.958  1.00  0.00     0.053 A 
HETATM   28  C   UNL     1      45.119  -9.824   8.797  1.00  0.00     0.072 C 
HETATM   29  C   UNL     1      43.137 -10.207   7.172  1.00  0.00     0.055 A 
HETATM   30  C   UNL     1      42.587 -11.350   6.623  1.00  0.00     0.035 A 
HETATM   31  C   UNL     1      41.357 -11.436   5.799  1.00  0.00     0.070 C 
ENDBRANCH  22  25
ENDBRANCH   2  19
TORSDOF 7
ENDMDL
MODEL 2
REMARK VINA RESULT:      -7.7      3.682      7.840
REMARK  7 active torsions:
REMARK  status: ('A' for Active; 'I' for Inactive)
REMARK    1  A    between atoms: C_2  and  C_3 
REMARK    2  A    between atoms: C_6  and  O_7 
REMARK    3  A    between atoms: O_7  and  C_8 
REMARK    4  A    between atoms: C_8  and  C_9 
REMARK       I    between atoms: C_9  and  N_10 
REMARK    5  A    between atoms: N_10  and  N_11 
REMARK       I    between atoms: N_11  and  C_12 
REMARK    6  A    between atoms: C_12  and  C_13 
REMARK    7  A    between atoms: C_16  and  N_17 
ROOT
HETATM    1  N   UNL     1      41.897 -10.898   2.247  1.00  0.00    -0.263 N 
HETATM    2  C   UNL     1      41.081 -11.954   1.879  1.00  0.00     0.270 C 
HETATM    3  O   UNL     1      39.989 -11.808   1.339  1.00  0.00    -0.266 OA
HETATM    4  H   UNL     1      42.641 -11.028   2.924  1.00  0.00     0.190 HD
ENDROOT
BRANCH   1   5
HETATM    5  N   UNL     1      41.400  -9.600   2.081  1.00  0.00    -0.265 N 
HETATM    6  C   UNL     1      40.800  -8.908   3.110  1.00  0.00     0.260 C 
HETATM    7  O   UNL     1      40.561  -7.705   2.992  1.00  0.00    -0.269 OA
HETATM    8  H   UNL     1      41.865  -9.025   1.380  1.00  0.00     0.190 HD
BRANCH   6   9
HETATM    9  C   UNL     1      40.377  -9.698   4.343  1.00  0.00     0.280 C 
BRANCH   9  10
HETATM   10  O   UNL     1      41.539 -10.097   5.057  1.00  0.00    -0.342 OA
BRANCH  10  11
HETATM   11  C   UNL     1      41.620 -11.398   5.459  1.00  0.00     0.069 A 
HETATM   12  C   UNL     1      40.386 -12.005   5.694  1.00  0.00     0.037 A 
HETATM   13  C   UNL     1      40.314 -13.334   6.114  1.00  0.00     0.010 A 
HETATM   14  C   UNL     1      41.485 -14.075   6.313  1.00  0.00    -0.058 A 
HETATM   15  C   UNL     1      42.722 -13.464   6.069  1.00  0.00     0.010 A 
HETATM   16  C   UNL     1      42.790 -12.131   5.645  1.00  0.00     0.037 A 
BRANCH  14  17
HETATM   17  C   UNL     1      41.412 -15.517   6.741  1.00  0.00     0.034 C 
HETATM   18  C   UNL     1      40.120 -16.178   6.286  1.00  0.00     0.010 C 
ENDBRANCH  14  17
ENDBRANCH  10  11
ENDBRANCH   9  10
ENDBRANCH   6   9
ENDBRANCH   1   5
BRANCH   2  19
HETATM   19  C   UNL     1      41.563 -13.305   2.269  1.00  0.00     0.033 A 
HETATM   20  C   UNL     1      42.939 -13.539   2.275  1.00  0.00     0.019 A 
HETATM   21  C   UNL     1      43.431 -14.815   2.560  1.00  0.00     0.032 A 
HETATM   22  C   UNL     1      42.559 -15.884   2.846  1.00  0.00     0.058 A 
HETATM   23  C   UNL     1      41.185 -15.624   2.899  1.00  0.00     0.032 A 
HETATM   24  C   UNL     1      40.688 -14.342   2.612  1.00  0.00     0.019 A 
BRANCH  22  25
HETATM   25  N   UNL     1      43.124 -17.181   3.078  1.00  0.00    -0.238 N 
HETATM   26  N   UNL     1      42.880 -18.165   2.166  1.00  0.00    -0.172 NA
HETATM   27  C   UNL     1      43.548 -19.235   2.590  1.00  0.00     0.053 A 
HETATM   28  C   UNL     1      43.515 -20.500   1.818  1.00  0.00     0.072 C 
HETATM   29  C   UNL     1      44.200 -18.983   3.805  1.00  0.00     0.055 A 
HETATM   30  C   UNL     1      43.893 -17.676   4.132  1.00  0.00     0.035 A 
HETATM   31  C   UNL     1      44.254 -16.965   5.382  1.00  0.00     0.070 C 
ENDBRANCH  22  25
ENDBRANCH   2  19
TORSDOF 7
ENDMDL
MODEL 3
REMARK VINA RESULT:      -7.6      3.567      7.272
REMARK  7 active torsions:
REMARK  status: ('A' for Active; 'I' for Inactive)
REMARK    1  A    between atoms: C_2  and  C_3 
REMARK    2  A    between atoms: C_6  and  O_7 
REMARK    3  A    between atoms: O_7  and  C_8 
REMARK    4  A    between atoms: C_8  and  C_9 
REMARK       I    between atoms: C_9  and  N_10 
REMARK    5  A    between atoms: N_10  and  N_11 
REMARK       I    between atoms: N_11  and  C_12 
REMARK    6  A    between atoms: C_12  and  C_13 
REMARK    7  A    between atoms: C_16  and  N_17 
ROOT
HETATM    1  N   UNL     1      41.184 -11.664   6.494  1.00  0.00    -0.263 N 
HETATM    2  C   UNL     1      40.356 -12.744   6.246  1.00  0.00     0.270 C 
HETATM    3  O   UNL     1      39.142 -12.721   6.421  1.00  0.00    -0.266 OA
HETATM    4  H   UNL     1      42.184 -11.789   6.609  1.00  0.00     0.190 HD
ENDROOT
BRANCH   1   5
HETATM    5  N   UNL     1      40.611 -10.521   7.066  1.00  0.00    -0.265 N 
HETATM    6  C   UNL     1      40.412  -9.363   6.347  1.00  0.00     0.260 C 
HETATM    7  O   UNL     1      39.725  -8.453   6.814  1.00  0.00    -0.269 OA
HETATM    8  H   UNL     1      39.957 -10.679   7.832  1.00  0.00     0.190 HD
BRANCH   6   9
HETATM    9  C   UNL     1      41.132  -9.227   5.010  1.00  0.00     0.280 C 
BRANCH   9  10
HETATM   10  O   UNL     1      40.235  -9.575   3.965  1.00  0.00    -0.342 OA
BRANCH  10  11
HETATM   11  C   UNL     1      40.446 -10.756   3.316  1.00  0.00     0.069 A 
HETATM   12  C   UNL     1      39.312 -11.562   3.204  1.00  0.00     0.037 A 
HETATM   13  C   UNL     1      39.379 -12.801   2.566  1.00  0.00     0.010 A 
HETATM   14  C   UNL     1      40.591 -13.257   2.037  1.00  0.00    -0.058 A 
HETATM   15  C   UNL     1      41.726 -12.443   2.146  1.00  0.00     0.010 A 
HETATM   16  C   UNL     1      41.654 -11.199   2.783  1.00  0.00     0.037 A 
BRANCH  14  17
HETATM   17  C   UNL     1      40.662 -14.583   1.325  1.00  0.00     0.034 C 
HETATM   18  C   UNL     1      39.807 -15.639   2.008  1.00  0.00     0.010 C 
ENDBRANCH  14  17
ENDBRANCH  10  11
ENDBRANCH   9  10
ENDBRANCH   6   9
ENDBRANCH   1   5
BRANCH   2  19
HETATM   19  C   UNL     1      41.043 -13.999   5.840  1.00  0.00     0.033 A 
HETATM   20  C   UNL     1      42.340 -13.908   5.332  1.00  0.00     0.019 A 
HETATM   21  C   UNL     1      42.992 -15.053   4.867  1.00  0.00     0.032 A 
HETATM   22  C   UNL     1      42.362 -16.312   4.900  1.00  0.00     0.058 A 
HETATM   23  C   UNL     1      41.087 -16.403   5.468  1.00  0.00     0.032 A 
HETATM   24  C   UNL     1      40.430 -15.253   5.936  1.00  0.00     0.019 A 
BRANCH  22  25
HETATM   25  N   UNL     1      43.065 -17.439   4.359  1.00  0.00    -0.238 N 
HETATM   26  N   UNL     1      43.459 -18.426   5.215  1.00  0.00    -0.172 NA
HETATM   27  C   UNL     1      44.036 -19.359   4.461  1.00  0.00     0.053 A 
HETATM   28  C   UNL     1      44.575 -20.596   5.073  1.00  0.00     0.072 C 
HETATM   29  C   UNL     1      44.069 -18.979   3.112  1.00  0.00     0.055 A 
HETATM   30  C   UNL     1      43.479 -17.731   3.059  1.00  0.00     0.035 A 
HETATM   31  C   UNL     1      43.368 -16.851   1.871  1.00  0.00     0.070 C 
ENDBRANCH  22  25
ENDBRANCH   2  19
TORSDOF 7
ENDMDL
MODEL 4
REMARK VINA RESULT:      -7.6      4.103      7.085
REMARK  7 active torsions:
REMARK  status: ('A' for Active; 'I' for Inactive)
REMARK    1  A    between atoms: C_2  and  C_3 
REMARK    2  A    between atoms: C_6  and  O_7 
REMARK    3  A    between atoms: O_7  and  C_8 
REMARK    4  A    between atoms: C_8  and  C_9 
REMARK       I    between atoms: C_9  and  N_10 
REMARK    5  A    between atoms: N_10  and  N_11 
REMARK       I    between atoms: N_11  and  C_12 
REMARK    6  A    between atoms: C_12  and  C_13 
REMARK    7  A    between atoms: C_16  and  N_17 
ROOT
HETATM    1  N   UNL     1      41.299 -13.065  -0.688  1.00  0.00    -0.263 N 
HETATM    2  C   UNL     1      40.521 -14.084  -0.168  1.00  0.00     0.270 C 
HETATM    3  O   UNL     1      39.402 -14.361  -0.586  1.00  0.00    -0.266 OA
HETATM    4  H   UNL     1      42.077 -12.683  -0.161  1.00  0.00     0.190 HD
ENDROOT
BRANCH   1   5
HETATM    5  N   UNL     1      40.733 -12.250  -1.676  1.00  0.00    -0.265 N 
HETATM    6  C   UNL     1      40.826 -10.876  -1.635  1.00  0.00     0.260 C 
HETATM    7  O   UNL     1      40.501 -10.203  -2.614  1.00  0.00    -0.269 OA
HETATM    8  H   UNL     1      40.658 -12.656  -2.608  1.00  0.00     0.190 HD
BRANCH   6   9
HETATM    9  C   UNL     1      41.263 -10.235  -0.323  1.00  0.00     0.280 C 
BRANCH   9  10
HETATM   10  O   UNL     1      40.193 -10.315   0.609  1.00  0.00    -0.342 OA
BRANCH  10  11
HETATM   11  C   UNL     1      40.405 -11.016   1.758  1.00  0.00     0.069 A 
HETATM   12  C   UNL     1      41.723 -10.986   2.216  1.00  0.00     0.037 A 
HETATM   13  C   UNL     1      42.089 -11.662   3.381  1.00  0.00     0.010 A 
HETATM   14  C   UNL     1      41.136 -12.389   4.103  1.00  0.00    -0.058 A 
HETATM   15  C   UNL     1      39.812 -12.411   3.644  1.00  0.00     0.010 A 
HETATM   16  C   UNL     1      39.448 -11.729   2.477  1.00  0.00     0.037 A 
BRANCH  14  17
HETATM   17  C   UNL     1      41.521 -13.099   5.375  1.00  0.00     0.034 C 
HETATM   18  C   UNL     1      40.382 -13.952   5.913  1.00  0.00     0.010 C 
ENDBRANCH  14  17
ENDBRANCH  10  11
ENDBRANCH   9  10
ENDBRANCH   6   9
ENDBRANCH   1   5
BRANCH   2  19
HETATM   19  C   UNL     1      41.086 -14.781   1.018  1.00  0.00     0.033 A 
HETATM   20  C   UNL     1      42.437 -14.593   1.314  1.00  0.00     0.019 A 
HETATM   21  C   UNL     1      43.025 -15.289   2.373  1.00  0.00     0.032 A 
HETATM   22  C   UNL     1      42.276 -16.188   3.158  1.00  0.00     0.058 A 
HETATM   23  C   UNL     1      40.909 -16.321   2.892  1.00  0.00     0.032 A 
HETATM   24  C   UNL     1      40.316 -15.623   1.828  1.00  0.00     0.019 A 
BRANCH  22  25
HETATM   25  N   UNL     1      42.951 -16.911   4.196  1.00  0.00    -0.238 N 
HETATM   26  N   UNL     1      43.049 -16.332   5.427  1.00  0.00    -0.172 NA
HETATM   27  C   UNL     1      43.667 -17.219   6.204  1.00  0.00     0.053 A 
HETATM   28  C   UNL     1      43.930 -16.919   7.631  1.00  0.00     0.072 C 
HETATM   29  C   UNL     1      44.022 -18.370   5.485  1.00  0.00     0.055 A 
HETATM   30  C   UNL     1      43.594 -18.149   4.190  1.00  0.00     0.035 A 
HETATM   31  C   UNL     1      43.828 -19.025   3.016  1.00  0.00     0.070 C 
ENDBRANCH  22  25
ENDBRANCH   2  19
TORSDOF 7
ENDMDL
MODEL 5
REMARK VINA RESULT:      -7.5      3.910      7.620
REMARK  7 active torsions:
REMARK  status: ('A' for Active; 'I' for Inactive)
REMARK    1  A    between atoms: C_2  and  C_3 
REMARK    2  A    between atoms: C_6  and  O_7 
REMARK    3  A    between atoms: O_7  and  C_8 
REMARK    4  A    between atoms: C_8  and  C_9 
REMARK       I    between atoms: C_9  and  N_10 
REMARK    5  A    between atoms: N_10  and  N_11 
REMARK       I    between atoms: N_11  and  C_12 
REMARK    6  A    between atoms: C_12  and  C_13 
REMARK    7  A    between atoms: C_16  and  N_17 
ROOT
HETATM    1  N   UNL     1      42.217 -10.897   4.497  1.00  0.00    -0.263 N 
HETATM    2  C   UNL     1      42.650 -11.434   3.298  1.00  0.00     0.270 C 
HETATM    3  O   UNL     1      42.819 -10.769   2.281  1.00  0.00    -0.266 OA
HETATM    4  H   UNL     1      41.826 -11.489   5.222  1.00  0.00     0.190 HD
ENDROOT
BRANCH   1   5
HETATM    5  N   UNL     1      41.863  -9.543   4.516  1.00  0.00    -0.265 N 
HETATM    6  C   UNL     1      40.612  -9.118   4.908  1.00  0.00     0.260 C 
HETATM    7  O   UNL     1      40.398  -7.921   5.110  1.00  0.00    -0.269 OA
HETATM    8  H   UNL     1      42.620  -8.880   4.678  1.00  0.00     0.190 HD
BRANCH   6   9
HETATM    9  C   UNL     1      39.505 -10.162   4.998  1.00  0.00     0.280 C 
BRANCH   9  10
HETATM   10  O   UNL     1      38.888 -10.291   3.725  1.00  0.00    -0.342 OA
BRANCH  10  11
HETATM   11  C   UNL     1      39.144 -11.423   3.009  1.00  0.00     0.069 A 
HETATM   12  C   UNL     1      39.430 -11.200   1.662  1.00  0.00     0.037 A 
HETATM   13  C   UNL     1      39.709 -12.267   0.806  1.00  0.00     0.010 A 
HETATM   14  C   UNL     1      39.697 -13.580   1.289  1.00  0.00    -0.058 A 
HETATM   15  C   UNL     1      39.416 -13.800   2.644  1.00  0.00     0.010 A 
HETATM   16  C   UNL     1      39.140 -12.727   3.500  1.00  0.00     0.037 A 
BRANCH  14  17
HETATM   17  C   UNL     1      40.023 -14.732   0.375  1.00  0.00     0.034 C 
HETATM   18  C   UNL     1      39.994 -16.063   1.110  1.00  0.00     0.010 C 
ENDBRANCH  14  17
ENDBRANCH  10  11
ENDBRANCH   9  10
ENDBRANCH   6   9
ENDBRANCH   1   5
BRANCH   2  19
HETATM   19  C   UNL     1      42.809 -12.912   3.276  1.00  0.00     0.033 A 
HETATM   20  C   UNL     1      42.592 -13.617   4.461  1.00  0.00     0.019 A 
HETATM   21  C   UNL     1      42.806 -14.998   4.505  1.00  0.00     0.032 A 
HETATM   22  C   UNL     1      43.242 -15.701   3.365  1.00  0.00     0.058 A 
HETATM   23  C   UNL     1      43.395 -14.996   2.166  1.00  0.00     0.032 A 
HETATM   24  C   UNL     1      43.181 -13.608   2.121  1.00  0.00     0.019 A 
BRANCH  22  25
HETATM   25  N   UNL     1      43.494 -17.108   3.488  1.00  0.00    -0.238 N 
HETATM   26  N   UNL     1      43.207 -17.911   2.423  1.00  0.00    -0.172 NA
HETATM   27  C   UNL     1      43.574 -19.140   2.779  1.00  0.00     0.053 A 
HETATM   28  C   UNL     1      43.414 -20.276   1.842  1.00  0.00     0.072 C 
HETATM   29  C   UNL     1      44.062 -19.168   4.093  1.00  0.00     0.055 A 
HETATM   30  C   UNL     1      43.972 -17.869   4.555  1.00  0.00     0.035 A 
HETATM   31  C   UNL     1      44.264 -17.392   5.928  1.00  0.00     0.070 C 
ENDBRANCH  22  25
ENDBRANCH   2  19
TORSDOF 7
ENDMDL
MODEL 6
REMARK VINA RESULT:      -7.3      2.848      4.766
REMARK  7 active torsions:
REMARK  status: ('A' for Active; 'I' for Inactive)
REMARK    1  A    between atoms: C_2  and  C_3 
REMARK    2  A    between atoms: C_6  and  O_7 
REMARK    3  A    between atoms: O_7  and  C_8 
REMARK    4  A    between atoms: C_8  and  C_9 
REMARK       I    between atoms: C_9  and  N_10 
REMARK    5  A    between atoms: N_10  and  N_11 
REMARK       I    between atoms: N_11  and  C_12 
REMARK    6  A    between atoms: C_12  and  C_13 
REMARK    7  A    between atoms: C_16  and  N_17 
ROOT
HETATM    1  N   UNL     1      40.379 -14.237   3.989  1.00  0.00    -0.263 N 
HETATM    2  C   UNL     1      40.310 -12.857   4.052  1.00  0.00     0.270 C 
HETATM    3  O   UNL     1      39.596 -12.181   3.319  1.00  0.00    -0.266 OA
HETATM    4  H   UNL     1      41.160 -14.739   4.398  1.00  0.00     0.190 HD
ENDROOT
BRANCH   1   5
HETATM    5  N   UNL     1      39.669 -14.880   2.967  1.00  0.00    -0.265 N 
HETATM    6  C   UNL     1      40.269 -15.265   1.788  1.00  0.00     0.260 C 
HETATM    7  O   UNL     1      39.675 -16.004   1.002  1.00  0.00    -0.269 OA
HETATM    8  H   UNL     1      38.873 -15.446   3.258  1.00  0.00     0.190 HD
BRANCH   6   9
HETATM    9  C   UNL     1      41.640 -14.680   1.467  1.00  0.00     0.280 C 
BRANCH   9  10
HETATM   10  O   UNL     1      42.547 -15.744   1.214  1.00  0.00    -0.342 OA
BRANCH  10  11
HETATM   11  C   UNL     1      42.944 -16.504   2.274  1.00  0.00     0.069 A 
HETATM   12  C   UNL     1      42.968 -17.876   2.021  1.00  0.00     0.037 A 
HETATM   13  C   UNL     1      43.351 -18.778   3.014  1.00  0.00     0.010 A 
HETATM   14  C   UNL     1      43.709 -18.316   4.286  1.00  0.00    -0.058 A 
HETATM   15  C   UNL     1      43.690 -16.937   4.534  1.00  0.00     0.010 A 
HETATM   16  C   UNL     1      43.308 -16.035   3.534  1.00  0.00     0.037 A 
BRANCH  14  17
HETATM   17  C   UNL     1      44.148 -19.283   5.354  1.00  0.00     0.034 C 
HETATM   18  C   UNL     1      44.061 -20.726   4.881  1.00  0.00     0.010 C 
ENDBRANCH  14  17
ENDBRANCH  10  11
ENDBRANCH   9  10
ENDBRANCH   6   9
ENDBRANCH   1   5
BRANCH   2  19
HETATM   19  C   UNL     1      41.243 -12.211   5.014  1.00  0.00     0.033 A 
HETATM   20  C   UNL     1      42.125 -13.025   5.726  1.00  0.00     0.019 A 
HETATM   21  C   UNL     1      42.964 -12.468   6.695  1.00  0.00     0.032 A 
HETATM   22  C   UNL     1      42.938 -11.087   6.972  1.00  0.00     0.058 A 
HETATM   23  C   UNL     1      42.096 -10.272   6.209  1.00  0.00     0.032 A 
HETATM   24  C   UNL     1      41.252 -10.829   5.235  1.00  0.00     0.019 A 
BRANCH  22  25
HETATM   25  N   UNL     1      43.786 -10.586   8.015  1.00  0.00    -0.238 N 
HETATM   26  N   UNL     1      43.199 -10.033   9.115  1.00  0.00    -0.172 NA
HETATM   27  C   UNL     1      44.193  -9.698   9.934  1.00  0.00     0.053 A 
HETATM   28  C   UNL     1      43.910  -9.075  11.248  1.00  0.00     0.072 C 
HETATM   29  C   UNL     1      45.443  -9.983   9.366  1.00  0.00     0.055 A 
HETATM   30  C   UNL     1      45.176 -10.517   8.120  1.00  0.00     0.035 A 
HETATM   31  C   UNL     1      46.167 -10.882   7.079  1.00  0.00     0.070 C 
ENDBRANCH  22  25
ENDBRANCH   2  19
TORSDOF 7
ENDMDL
MODEL 7
REMARK VINA RESULT:      -7.3      2.566      5.051
REMARK  7 active torsions:
REMARK  status: ('A' for Active; 'I' for Inactive)
REMARK    1  A    between atoms: C_2  and  C_3 
REMARK    2  A    between atoms: C_6  and  O_7 
REMARK    3  A    between atoms: O_7  and  C_8 
REMARK    4  A    between atoms: C_8  and  C_9 
REMARK       I    between atoms: C_9  and  N_10 
REMARK    5  A    between atoms: N_10  and  N_11 
REMARK       I    between atoms: N_11  and  C_12 
REMARK    6  A    between atoms: C_12  and  C_13 
REMARK    7  A    between atoms: C_16  and  N_17 
ROOT
HETATM    1  N   UNL     1      43.895 -17.847   3.790  1.00  0.00    -0.263 N 
HETATM    2  C   UNL     1      42.962 -17.831   2.768  1.00  0.00     0.270 C 
HETATM    3  O   UNL     1      42.559 -18.844   2.204  1.00  0.00    -0.266 OA
HETATM    4  H   UNL     1      44.406 -17.008   4.040  1.00  0.00     0.190 HD
ENDROOT
BRANCH   1   5
HETATM    5  N   UNL     1      44.475 -19.077   4.124  1.00  0.00    -0.265 N 
HETATM    6  C   UNL     1      44.104 -19.780   5.249  1.00  0.00     0.260 C 
HETATM    7  O   UNL     1      44.480 -20.943   5.406  1.00  0.00    -0.269 OA
HETATM    8  H   UNL     1      44.815 -19.642   3.347  1.00  0.00     0.190 HD
BRANCH   6   9
HETATM    9  C   UNL     1      43.294 -19.044   6.310  1.00  0.00     0.280 C 
BRANCH   9  10
HETATM   10  O   UNL     1      44.015 -17.892   6.724  1.00  0.00    -0.342 OA
BRANCH  10  11
HETATM   11  C   UNL     1      43.437 -16.674   6.517  1.00  0.00     0.069 A 
HETATM   12  C   UNL     1      42.050 -16.713   6.370  1.00  0.00     0.037 A 
HETATM   13  C   UNL     1      41.324 -15.542   6.149  1.00  0.00     0.010 A 
HETATM   14  C   UNL     1      41.982 -14.310   6.063  1.00  0.00    -0.058 A 
HETATM   15  C   UNL     1      43.374 -14.274   6.217  1.00  0.00     0.010 A 
HETATM   16  C   UNL     1      44.099 -15.450   6.442  1.00  0.00     0.037 A 
BRANCH  14  17
HETATM   17  C   UNL     1      41.200 -13.040   5.850  1.00  0.00     0.034 C 
HETATM   18  C   UNL     1      39.996 -13.262   4.948  1.00  0.00     0.010 C 
ENDBRANCH  14  17
ENDBRANCH  10  11
ENDBRANCH   9  10
ENDBRANCH   6   9
ENDBRANCH   1   5
BRANCH   2  19
HETATM   19  C   UNL     1      42.535 -16.483   2.309  1.00  0.00     0.033 A 
HETATM   20  C   UNL     1      43.520 -15.521   2.079  1.00  0.00     0.019 A 
HETATM   21  C   UNL     1      43.158 -14.219   1.722  1.00  0.00     0.032 A 
HETATM   22  C   UNL     1      41.805 -13.852   1.588  1.00  0.00     0.058 A 
HETATM   23  C   UNL     1      40.828 -14.839   1.759  1.00  0.00     0.032 A 
HETATM   24  C   UNL     1      41.190 -16.148   2.118  1.00  0.00     0.019 A 
BRANCH  22  25
HETATM   25  N   UNL     1      41.497 -12.487   1.271  1.00  0.00    -0.238 N 
HETATM   26  N   UNL     1      40.804 -12.231   0.125  1.00  0.00    -0.172 NA
HETATM   27  C   UNL     1      40.613 -10.914   0.097  1.00  0.00     0.053 A 
HETATM   28  C   UNL     1      39.871 -10.283  -1.020  1.00  0.00     0.072 C 
HETATM   29  C   UNL     1      41.216 -10.285   1.195  1.00  0.00     0.055 A 
HETATM   30  C   UNL     1      41.814 -11.296   1.924  1.00  0.00     0.035 A 
HETATM   31  C   UNL     1      42.673 -11.137   3.122  1.00  0.00     0.070 C 
ENDBRANCH  22  25
ENDBRANCH   2  19
TORSDOF 7
ENDMDL
MODEL 8
REMARK VINA RESULT:      -7.3      2.877      4.789
REMARK  7 active torsions:
REMARK  status: ('A' for Active; 'I' for Inactive)
REMARK    1  A    between atoms: C_2  and  C_3 
REMARK    2  A    between atoms: C_6  and  O_7 
REMARK    3  A    between atoms: O_7  and  C_8 
REMARK    4  A    between atoms: C_8  and  C_9 
REMARK       I    between atoms: C_9  and  N_10 
REMARK    5  A    between atoms: N_10  and  N_11 
REMARK       I    between atoms: N_11  and  C_12 
REMARK    6  A    between atoms: C_12  and  C_13 
REMARK    7  A    between atoms: C_16  and  N_17 
ROOT
HETATM    1  N   UNL     1      41.749 -13.493   1.724  1.00  0.00    -0.263 N 
HETATM    2  C   UNL     1      41.163 -12.425   2.379  1.00  0.00     0.270 C 
HETATM    3  O   UNL     1      40.155 -11.855   1.975  1.00  0.00    -0.266 OA
HETATM    4  H   UNL     1      42.709 -13.759   1.917  1.00  0.00     0.190 HD
ENDROOT
BRANCH   1   5
HETATM    5  N   UNL     1      41.215 -13.873   0.488  1.00  0.00    -0.265 N 
HETATM    6  C   UNL     1      40.213 -14.813   0.380  1.00  0.00     0.260 C 
HETATM    7  O   UNL     1      39.627 -14.974  -0.691  1.00  0.00    -0.269 OA
HETATM    8  H   UNL     1      41.235 -13.168  -0.248  1.00  0.00     0.190 HD
BRANCH   6   9
HETATM    9  C   UNL     1      39.926 -15.684   1.597  1.00  0.00     0.280 C 
BRANCH   9  10
HETATM   10  O   UNL     1      41.062 -16.495   1.863  1.00  0.00    -0.342 OA
BRANCH  10  11
HETATM   11  C   UNL     1      41.580 -16.464   3.124  1.00  0.00     0.069 A 
HETATM   12  C   UNL     1      42.955 -16.693   3.187  1.00  0.00     0.037 A 
HETATM   13  C   UNL     1      43.623 -16.694   4.413  1.00  0.00     0.010 A 
HETATM   14  C   UNL     1      42.916 -16.474   5.600  1.00  0.00    -0.058 A 
HETATM   15  C   UNL     1      41.537 -16.237   5.533  1.00  0.00     0.010 A 
HETATM   16  C   UNL     1      40.871 -16.234   4.301  1.00  0.00     0.037 A 
BRANCH  14  17
HETATM   17  C   UNL     1      43.636 -16.449   6.923  1.00  0.00     0.034 C 
HETATM   18  C   UNL     1      42.959 -15.519   7.918  1.00  0.00     0.010 C 
ENDBRANCH  14  17
ENDBRANCH  10  11
ENDBRANCH   9  10
ENDBRANCH   6   9
ENDBRANCH   1   5
BRANCH   2  19
HETATM   19  C   UNL     1      41.892 -11.927   3.576  1.00  0.00     0.033 A 
HETATM   20  C   UNL     1      42.646 -12.839   4.317  1.00  0.00     0.019 A 
HETATM   21  C   UNL     1      43.283 -12.430   5.492  1.00  0.00     0.032 A 
HETATM   22  C   UNL     1      43.180 -11.102   5.950  1.00  0.00     0.058 A 
HETATM   23  C   UNL     1      42.475 -10.181   5.167  1.00  0.00     0.032 A 
HETATM   24  C   UNL     1      41.833 -10.590   3.986  1.00  0.00     0.019 A 
BRANCH  22  25
HETATM   25  N   UNL     1      43.813 -10.758   7.190  1.00  0.00    -0.238 N 
HETATM   26  N   UNL     1      43.036 -10.269   8.199  1.00  0.00    -0.172 NA
HETATM   27  C   UNL     1      43.851 -10.080   9.234  1.00  0.00     0.053 A 
HETATM   28  C   UNL     1      43.329  -9.562  10.520  1.00  0.00     0.072 C 
HETATM   29  C   UNL     1      45.177 -10.397   8.906  1.00  0.00     0.055 A 
HETATM   30  C   UNL     1      45.151 -10.795   7.583  1.00  0.00     0.035 A 
HETATM   31  C   UNL     1      46.320 -11.131   6.734  1.00  0.00     0.070 C 
ENDBRANCH  22  25
ENDBRANCH   2  19
TORSDOF 7
ENDMDL
MODEL 9
REMARK VINA RESULT:      -7.3      3.323      5.573
REMARK  7 active torsions:
REMARK  status: ('A' for Active; 'I' for Inactive)
REMARK    1  A    between atoms: C_2  and  C_3 
REMARK    2  A    between atoms: C_6  and  O_7 
REMARK    3  A    between atoms: O_7  and  C_8 
REMARK    4  A    between atoms: C_8  and  C_9 
REMARK       I    between atoms: C_9  and  N_10 
REMARK    5  A    between atoms: N_10  and  N_11 
REMARK       I    between atoms: N_11  and  C_12 
REMARK    6  A    between atoms: C_12  and  C_13 
REMARK    7  A    between atoms: C_16  and  N_17 
ROOT
HETATM    1  N   UNL     1      42.021 -11.622   3.444  1.00  0.00    -0.263 N 
HETATM    2  C   UNL     1      43.241 -11.325   4.026  1.00  0.00     0.270 C 
HETATM    3  O   UNL     1      44.308 -11.382   3.425  1.00  0.00    -0.266 OA
HETATM    4  H   UNL     1      41.210 -11.835   4.015  1.00  0.00     0.190 HD
ENDROOT
BRANCH   1   5
HETATM    5  N   UNL     1      42.025 -12.106   2.131  1.00  0.00    -0.265 N 
HETATM    6  C   UNL     1      41.189 -13.121   1.721  1.00  0.00     0.260 C 
HETATM    7  O   UNL     1      41.070 -13.382   0.523  1.00  0.00    -0.269 OA
HETATM    8  H   UNL     1      42.294 -11.442   1.406  1.00  0.00     0.190 HD
BRANCH   6   9
HETATM    9  C   UNL     1      40.494 -13.945   2.799  1.00  0.00     0.280 C 
BRANCH   9  10
HETATM   10  O   UNL     1      41.471 -14.431   3.709  1.00  0.00    -0.342 OA
BRANCH  10  11
HETATM   11  C   UNL     1      42.039 -15.642   3.442  1.00  0.00     0.069 A 
HETATM   12  C   UNL     1      43.070 -15.999   4.312  1.00  0.00     0.037 A 
HETATM   13  C   UNL     1      43.747 -17.209   4.158  1.00  0.00     0.010 A 
HETATM   14  C   UNL     1      43.404 -18.081   3.118  1.00  0.00    -0.058 A 
HETATM   15  C   UNL     1      42.363 -17.723   2.250  1.00  0.00     0.010 A 
HETATM   16  C   UNL     1      41.685 -16.509   2.410  1.00  0.00     0.037 A 
BRANCH  14  17
HETATM   17  C   UNL     1      44.114 -19.401   2.963  1.00  0.00     0.034 C 
HETATM   18  C   UNL     1      43.394 -20.319   1.987  1.00  0.00     0.010 C 
ENDBRANCH  14  17
ENDBRANCH  10  11
ENDBRANCH   9  10
ENDBRANCH   6   9
ENDBRANCH   1   5
BRANCH   2  19
HETATM   19  C   UNL     1      43.200 -11.020   5.481  1.00  0.00     0.033 A 
HETATM   20  C   UNL     1      42.303 -10.049   5.928  1.00  0.00     0.019 A 
HETATM   21  C   UNL     1      42.288  -9.677   7.275  1.00  0.00     0.032 A 
HETATM   22  C   UNL     1      43.168 -10.268   8.203  1.00  0.00     0.058 A 
HETATM   23  C   UNL     1      44.018 -11.285   7.757  1.00  0.00     0.032 A 
HETATM   24  C   UNL     1      44.036 -11.660   6.403  1.00  0.00     0.019 A 
BRANCH  22  25
HETATM   25  N   UNL     1      43.138  -9.805   9.560  1.00  0.00    -0.238 N 
HETATM   26  N   UNL     1      41.931  -9.480  10.105  1.00  0.00    -0.172 NA
HETATM   27  C   UNL     1      42.177  -9.134  11.367  1.00  0.00     0.053 A 
HETATM   28  C   UNL     1      41.072  -8.730  12.267  1.00  0.00     0.072 C 
HETATM   29  C   UNL     1      43.549  -9.182  11.652  1.00  0.00     0.055 A 
HETATM   30  C   UNL     1      44.163  -9.576  10.479  1.00  0.00     0.035 A 
HETATM   31  C   UNL     1      45.621  -9.674  10.228  1.00  0.00     0.070 C 
ENDBRANCH  22  25
ENDBRANCH   2  19
TORSDOF 7
ENDMDL
MODEL 10
REMARK VINA RESULT:      -7.1      4.287      7.328
REMARK  7 active torsions:
REMARK  status: ('A' for Active; 'I' for Inactive)
REMARK    1  A    between atoms: C_2  and  C_3 
REMARK    2  A    between atoms: C_6  and  O_7 
REMARK    3  A    between atoms: O_7  and  C_8 
REMARK    4  A    between atoms: C_8  and  C_9 
REMARK       I    between atoms: C_9  and  N_10 
REMARK    5  A    between atoms: N_10  and  N_11 
REMARK       I    between atoms: N_11  and  C_12 
REMARK    6  A    between atoms: C_12  and  C_13 
REMARK    7  A    between atoms: C_16  and  N_17 
ROOT
HETATM    1  N   UNL     1      39.380 -12.968   0.029  1.00  0.00    -0.263 N 
HETATM    2  C   UNL     1      39.678 -14.285  -0.274  1.00  0.00     0.270 C 
HETATM    3  O   UNL     1      39.151 -14.903  -1.193  1.00  0.00    -0.266 OA
HETATM    4  H   UNL     1      39.612 -12.578   0.937  1.00  0.00     0.190 HD
ENDROOT
BRANCH   1   5
HETATM    5  N   UNL     1      38.353 -12.349  -0.692  1.00  0.00    -0.265 N 
HETATM    6  C   UNL     1      37.526 -11.405  -0.125  1.00  0.00     0.260 C 
HETATM    7  O   UNL     1      36.772 -10.734  -0.833  1.00  0.00    -0.269 OA
HETATM    8  H   UNL     1      38.500 -12.255  -1.697  1.00  0.00     0.190 HD
BRANCH   6   9
HETATM    9  C   UNL     1      37.522 -11.287   1.395  1.00  0.00     0.280 C 
BRANCH   9  10
HETATM   10  O   UNL     1      38.594 -10.444   1.795  1.00  0.00    -0.342 OA
BRANCH  10  11
HETATM   11  C   UNL     1      39.668 -11.027   2.398  1.00  0.00     0.069 A 
HETATM   12  C   UNL     1      40.900 -10.488   2.028  1.00  0.00     0.037 A 
HETATM   13  C   UNL     1      42.088 -10.987   2.563  1.00  0.00     0.010 A 
HETATM   14  C   UNL     1      42.058 -12.047   3.476  1.00  0.00    -0.058 A 
HETATM   15  C   UNL     1      40.819 -12.583   3.851  1.00  0.00     0.010 A 
HETATM   16  C   UNL     1      39.629 -12.076   3.315  1.00  0.00     0.037 A 
BRANCH  14  17
HETATM   17  C   UNL     1      43.336 -12.573   4.077  1.00  0.00     0.034 C 
HETATM   18  C   UNL     1      43.726 -11.811   5.334  1.00  0.00     0.010 C 
ENDBRANCH  14  17
ENDBRANCH  10  11
ENDBRANCH   9  10
ENDBRANCH   6   9
ENDBRANCH   1   5
BRANCH   2  19
HETATM   19  C   UNL     1      40.623 -14.960   0.656  1.00  0.00     0.033 A 
HETATM   20  C   UNL     1      40.113 -15.916   1.536  1.00  0.00     0.019 A 
HETATM   21  C   UNL     1      40.951 -16.517   2.479  1.00  0.00     0.032 A 
HETATM   22  C   UNL     1      42.315 -16.177   2.561  1.00  0.00     0.058 A 
HETATM   23  C   UNL     1      42.829 -15.265   1.633  1.00  0.00     0.032 A 
HETATM   24  C   UNL     1      41.989 -14.659   0.685  1.00  0.00     0.019 A 
BRANCH  22  25
HETATM   25  N   UNL     1      43.110 -16.791   3.584  1.00  0.00    -0.238 N 
HETATM   26  N   UNL     1      43.428 -16.052   4.686  1.00  0.00    -0.172 NA
HETATM   27  C   UNL     1      44.118 -16.862   5.486  1.00  0.00     0.053 A 
HETATM   28  C   UNL     1      44.616 -16.382   6.797  1.00  0.00     0.072 C 
HETATM   29  C   UNL     1      44.302 -18.124   4.903  1.00  0.00     0.055 A 
HETATM   30  C   UNL     1      43.686 -18.059   3.668  1.00  0.00     0.035 A 
HETATM   31  C   UNL     1      43.692 -19.105   2.617  1.00  0.00     0.070 C 
ENDBRANCH  22  25
ENDBRANCH   2  19
TORSDOF 7
ENDMDL
