MODEL 1
REMARK VINA RESULT:      -8.3      0.000      0.000
REMARK  7 active torsions:
REMARK  status: ('A' for Active; 'I' for Inactive)
REMARK    1  A    between atoms: C_2  and  N_3 
REMARK    2  A    between atoms: C_2  and  C_17 
REMARK       I    between atoms: N_3  and  C_4 
REMARK    3  A    between atoms: C_4  and  C_5 
REMARK    4  A    between atoms: C_7  and  N_8 
REMARK    5  A    between atoms: C_17  and  O_18 
REMARK    6  A    between atoms: C_17  and  C_19 
REMARK    7  A    between atoms: C_22  and  O_23 
ROOT
HETATM    1  N   UNL     1      43.238 -12.869   4.876  1.00  0.00    -0.349 N 
HETATM    2  C   UNL     1      43.502 -11.534   5.066  1.00  0.00     0.270 C 
HETATM    3  O   UNL     1      43.100 -10.652   4.314  1.00  0.00    -0.266 OA
HETATM    4  H   UNL     1      43.636 -13.496   5.571  1.00  0.00     0.163 HD
ENDROOT
BRANCH   1   5
HETATM    5  C   UNL     1      42.351 -13.429   3.851  1.00  0.00     0.114 C 
HETATM    6  C   UNL     1      43.116 -13.642   2.540  1.00  0.00     0.035 C 
BRANCH   5   7
HETATM    7  C   UNL     1      41.568 -14.715   4.265  1.00  0.00     0.173 C 
BRANCH   7   8
HETATM    8  O   UNL     1      40.226 -14.758   3.781  1.00  0.00    -0.389 OA
HETATM    9  H   UNL     1      39.993 -13.852   3.488  1.00  0.00     0.210 HD
ENDBRANCH   7   8
BRANCH   7  10
HETATM   10  C   UNL     1      42.300 -16.002   3.932  1.00  0.00    -0.028 A 
HETATM   11  C   UNL     1      41.909 -16.760   2.820  1.00  0.00     0.012 A 
HETATM   12  C   UNL     1      42.573 -17.946   2.497  1.00  0.00     0.037 A 
HETATM   13  C   UNL     1      43.639 -18.399   3.274  1.00  0.00     0.068 A 
HETATM   14  C   UNL     1      44.027 -17.661   4.392  1.00  0.00     0.037 A 
HETATM   15  C   UNL     1      43.361 -16.473   4.718  1.00  0.00     0.012 A 
BRANCH  13  16
HETATM   16  O   UNL     1      44.207 -19.566   2.842  1.00  0.00    -0.356 OA
HETATM   17  C   UNL     1      43.464 -20.325   1.898  1.00  0.00     0.210 C 
ENDBRANCH  13  16
ENDBRANCH   7  10
ENDBRANCH   5   7
ENDBRANCH   1   5
BRANCH   2  18
HETATM   18  C   UNL     1      44.324 -11.222   6.280  1.00  0.00     0.126 A 
HETATM   19  N   UNL     1      43.632 -10.981   7.429  1.00  0.00    -0.224 NA
HETATM   20  C   UNL     1      44.372 -10.668   8.530  1.00  0.00     0.151 A 
HETATM   21  C   UNL     1      45.766 -10.595   8.509  1.00  0.00     0.052 A 
HETATM   22  C   UNL     1      46.438 -10.850   7.315  1.00  0.00     0.006 A 
HETATM   23  C   UNL     1      45.708 -11.169   6.176  1.00  0.00     0.037 A 
BRANCH  20  24
HETATM   24  N   UNL     1      43.686 -10.400   9.753  1.00  0.00    -0.227 N 
HETATM   25  N   UNL     1      44.029 -10.993  10.930  1.00  0.00    -0.179 NA
HETATM   26  C   UNL     1      43.173 -10.484  11.819  1.00  0.00     0.141 A 
HETATM   27  C   UNL     1      42.277  -9.569  11.247  1.00  0.00     0.040 A 
HETATM   28  C   UNL     1      42.625  -9.532   9.918  1.00  0.00     0.122 A 
ENDBRANCH  20  24
ENDBRANCH   2  18
TORSDOF 7
ENDMDL
MODEL 2
REMARK VINA RESULT:      -8.2      1.477      1.640
REMARK  7 active torsions:
REMARK  status: ('A' for Active; 'I' for Inactive)
REMARK    1  A    between atoms: C_2  and  N_3 
REMARK    2  A    between atoms: C_2  and  C_17 
REMARK       I    between atoms: N_3  and  C_4 
REMARK    3  A    between atoms: C_4  and  C_5 
REMARK    4  A    between atoms: C_7  and  N_8 
REMARK    5  A    between atoms: C_17  and  O_18 
REMARK    6  A    between atoms: C_17  and  C_19 
REMARK    7  A    between atoms: C_22  and  O_23 
ROOT
HETATM    1  N   UNL     1      42.575 -13.102   5.622  1.00  0.00    -0.349 N 
HETATM    2  C   UNL     1      43.498 -13.444   6.582  1.00  0.00     0.270 C 
HETATM    3  O   UNL     1      43.692 -14.598   6.952  1.00  0.00    -0.266 OA
HETATM    4  H   UNL     1      42.511 -12.109   5.413  1.00  0.00     0.163 HD
ENDROOT
BRANCH   1   5
HETATM    5  C   UNL     1      41.791 -14.042   4.815  1.00  0.00     0.114 C 
HETATM    6  C   UNL     1      40.359 -13.527   4.635  1.00  0.00     0.035 C 
BRANCH   5   7
HETATM    7  C   UNL     1      42.424 -14.447   3.446  1.00  0.00     0.173 C 
BRANCH   7   8
HETATM    8  O   UNL     1      43.478 -13.586   3.016  1.00  0.00    -0.389 OA
HETATM    9  H   UNL     1      43.349 -13.424   2.058  1.00  0.00     0.210 HD
ENDBRANCH   7   8
BRANCH   7  10
HETATM   10  C   UNL     1      42.861 -15.900   3.390  1.00  0.00    -0.028 A 
HETATM   11  C   UNL     1      42.523 -16.688   2.281  1.00  0.00     0.012 A 
HETATM   12  C   UNL     1      42.919 -18.026   2.211  1.00  0.00     0.037 A 
HETATM   13  C   UNL     1      43.660 -18.603   3.243  1.00  0.00     0.068 A 
HETATM   14  C   UNL     1      43.988 -17.833   4.357  1.00  0.00     0.037 A 
HETATM   15  C   UNL     1      43.591 -16.492   4.429  1.00  0.00     0.012 A 
BRANCH  13  16
HETATM   16  O   UNL     1      43.991 -19.916   3.044  1.00  0.00    -0.356 OA
HETATM   17  C   UNL     1      43.634 -20.480   1.789  1.00  0.00     0.210 C 
ENDBRANCH  13  16
ENDBRANCH   7  10
ENDBRANCH   5   7
ENDBRANCH   1   5
BRANCH   2  18
HETATM   18  C   UNL     1      44.269 -12.292   7.152  1.00  0.00     0.126 A 
HETATM   19  N   UNL     1      43.822 -11.799   8.341  1.00  0.00    -0.224 NA
HETATM   20  C   UNL     1      44.501 -10.733   8.850  1.00  0.00     0.151 A 
HETATM   21  C   UNL     1      45.601 -10.159   8.209  1.00  0.00     0.052 A 
HETATM   22  C   UNL     1      46.029 -10.693   6.995  1.00  0.00     0.006 A 
HETATM   23  C   UNL     1      45.353 -11.779   6.452  1.00  0.00     0.037 A 
BRANCH  20  24
HETATM   24  N   UNL     1      44.061 -10.178  10.091  1.00  0.00    -0.227 N 
HETATM   25  N   UNL     1      43.675 -10.953  11.142  1.00  0.00    -0.179 NA
HETATM   26  C   UNL     1      43.349 -10.078  12.096  1.00  0.00     0.141 A 
HETATM   27  C   UNL     1      43.513  -8.745  11.688  1.00  0.00     0.040 A 
HETATM   28  C   UNL     1      43.970  -8.835  10.396  1.00  0.00     0.122 A 
ENDBRANCH  20  24
ENDBRANCH   2  18
TORSDOF 7
ENDMDL
MODEL 3
REMARK VINA RESULT:      -8.1      2.164      3.662
REMARK  7 active torsions:
REMARK  status: ('A' for Active; 'I' for Inactive)
REMARK    1  A    between atoms: C_2  and  N_3 
REMARK    2  A    between atoms: C_2  and  C_17 
REMARK       I    between atoms: N_3  and  C_4 
REMARK    3  A    between atoms: C_4  and  C_5 
REMARK    4  A    between atoms: C_7  and  N_8 
REMARK    5  A    between atoms: C_17  and  O_18 
REMARK    6  A    between atoms: C_17  and  C_19 
REMARK    7  A    between atoms: C_22  and  O_23 
ROOT
HETATM    1  N   UNL     1      41.094 -14.193   3.095  1.00  0.00    -0.349 N 
HETATM    2  C   UNL     1      40.858 -14.213   4.450  1.00  0.00     0.270 C 
HETATM    3  O   UNL     1      40.512 -15.219   5.061  1.00  0.00    -0.266 OA
HETATM    4  H   UNL     1      41.369 -13.292   2.713  1.00  0.00     0.163 HD
ENDROOT
BRANCH   1   5
HETATM    5  C   UNL     1      41.100 -15.362   2.210  1.00  0.00     0.114 C 
HETATM    6  C   UNL     1      40.165 -15.136   1.018  1.00  0.00     0.035 C 
BRANCH   5   7
HETATM    7  C   UNL     1      42.508 -15.848   1.743  1.00  0.00     0.173 C 
BRANCH   7   8
HETATM    8  O   UNL     1      43.450 -14.793   1.546  1.00  0.00    -0.389 OA
HETATM    9  H   UNL     1      43.033 -14.139   0.947  1.00  0.00     0.210 HD
ENDBRANCH   7   8
BRANCH   7  10
HETATM   10  C   UNL     1      43.095 -16.935   2.624  1.00  0.00    -0.028 A 
HETATM   11  C   UNL     1      43.171 -18.252   2.150  1.00  0.00     0.012 A 
HETATM   12  C   UNL     1      43.711 -19.266   2.946  1.00  0.00     0.037 A 
HETATM   13  C   UNL     1      44.186 -18.986   4.228  1.00  0.00     0.068 A 
HETATM   14  C   UNL     1      44.101 -17.683   4.715  1.00  0.00     0.037 A 
HETATM   15  C   UNL     1      43.559 -16.667   3.919  1.00  0.00     0.012 A 
BRANCH  13  16
HETATM   16  O   UNL     1      44.699 -20.065   4.896  1.00  0.00    -0.356 OA
HETATM   17  C   UNL     1      43.780 -21.090   5.251  1.00  0.00     0.210 C 
ENDBRANCH  13  16
ENDBRANCH   7  10
ENDBRANCH   5   7
ENDBRANCH   1   5
BRANCH   2  18
HETATM   18  C   UNL     1      41.062 -12.899   5.142  1.00  0.00     0.126 A 
HETATM   19  N   UNL     1      42.314 -12.661   5.623  1.00  0.00    -0.224 NA
HETATM   20  C   UNL     1      42.498 -11.480   6.279  1.00  0.00     0.151 A 
HETATM   21  C   UNL     1      41.476 -10.547   6.461  1.00  0.00     0.052 A 
HETATM   22  C   UNL     1      40.209 -10.827   5.953  1.00  0.00     0.006 A 
HETATM   23  C   UNL     1      39.992 -12.024   5.281  1.00  0.00     0.037 A 
BRANCH  20  24
HETATM   24  N   UNL     1      43.794 -11.194   6.808  1.00  0.00    -0.227 N 
HETATM   25  N   UNL     1      44.940 -11.500   6.140  1.00  0.00    -0.179 NA
HETATM   26  C   UNL     1      45.916 -11.074   6.945  1.00  0.00     0.141 A 
HETATM   27  C   UNL     1      45.430 -10.498   8.128  1.00  0.00     0.040 A 
HETATM   28  C   UNL     1      44.064 -10.587   8.018  1.00  0.00     0.122 A 
ENDBRANCH  20  24
ENDBRANCH   2  18
TORSDOF 7
ENDMDL
MODEL 4
REMARK VINA RESULT:      -8.0      2.525      3.268
REMARK  7 active torsions:
REMARK  status: ('A' for Active; 'I' for Inactive)
REMARK    1  A    between atoms: C_2  and  N_3 
REMARK    2  A    between atoms: C_2  and  C_17 
REMARK       I    between atoms: N_3  and  C_4 
REMARK    3  A    between atoms: C_4  and  C_5 
REMARK    4  A    between atoms: C_7  and  N_8 
REMARK    5  A    between atoms: C_17  and  O_18 
REMARK    6  A    between atoms: C_17  and  C_19 
REMARK    7  A    between atoms: C_22  and  O_23 
ROOT
HETATM    1  N   UNL     1      43.417 -13.430   7.355  1.00  0.00    -0.349 N 
HETATM    2  C   UNL     1      44.043 -12.411   6.677  1.00  0.00     0.270 C 
HETATM    3  O   UNL     1      44.105 -12.352   5.454  1.00  0.00    -0.266 OA
HETATM    4  H   UNL     1      43.444 -13.361   8.369  1.00  0.00     0.163 HD
ENDROOT
BRANCH   1   5
HETATM    5  C   UNL     1      42.634 -14.510   6.746  1.00  0.00     0.114 C 
HETATM    6  C   UNL     1      42.658 -15.757   7.635  1.00  0.00     0.035 C 
BRANCH   5   7
HETATM    7  C   UNL     1      41.176 -14.135   6.334  1.00  0.00     0.173 C 
BRANCH   7   8
HETATM    8  O   UNL     1      40.830 -12.775   6.595  1.00  0.00    -0.389 OA
HETATM    9  H   UNL     1      40.958 -12.621   7.555  1.00  0.00     0.210 HD
ENDBRANCH   7   8
BRANCH   7  10
HETATM   10  C   UNL     1      40.838 -14.510   4.902  1.00  0.00    -0.028 A 
HETATM   11  C   UNL     1      40.258 -13.558   4.051  1.00  0.00     0.012 A 
HETATM   12  C   UNL     1      39.942 -13.885   2.729  1.00  0.00     0.037 A 
HETATM   13  C   UNL     1      40.199 -15.162   2.231  1.00  0.00     0.068 A 
HETATM   14  C   UNL     1      40.760 -16.121   3.074  1.00  0.00     0.037 A 
HETATM   15  C   UNL     1      41.076 -15.795   4.399  1.00  0.00     0.012 A 
BRANCH  13  16
HETATM   16  O   UNL     1      39.852 -15.346   0.920  1.00  0.00    -0.356 OA
HETATM   17  C   UNL     1      40.329 -14.378  -0.006  1.00  0.00     0.210 C 
ENDBRANCH  13  16
ENDBRANCH   7  10
ENDBRANCH   5   7
ENDBRANCH   1   5
BRANCH   2  18
HETATM   18  C   UNL     1      44.649 -11.354   7.551  1.00  0.00     0.126 A 
HETATM   19  N   UNL     1      43.997 -11.093   8.719  1.00  0.00    -0.224 NA
HETATM   20  C   UNL     1      44.527 -10.113   9.504  1.00  0.00     0.151 A 
HETATM   21  C   UNL     1      45.675  -9.400   9.154  1.00  0.00     0.052 A 
HETATM   22  C   UNL     1      46.313  -9.697   7.952  1.00  0.00     0.006 A 
HETATM   23  C   UNL     1      45.794 -10.691   7.130  1.00  0.00     0.037 A 
BRANCH  20  24
HETATM   24  N   UNL     1      43.870  -9.801  10.733  1.00  0.00    -0.227 N 
HETATM   25  N   UNL     1      43.604  -8.522  11.117  1.00  0.00    -0.179 NA
HETATM   26  C   UNL     1      42.989  -8.651  12.294  1.00  0.00     0.141 A 
HETATM   27  C   UNL     1      42.849  -9.990  12.690  1.00  0.00     0.040 A 
HETATM   28  C   UNL     1      43.424 -10.710  11.671  1.00  0.00     0.122 A 
ENDBRANCH  20  24
ENDBRANCH   2  18
TORSDOF 7
ENDMDL
MODEL 5
REMARK VINA RESULT:      -7.9      5.967      8.061
REMARK  7 active torsions:
REMARK  status: ('A' for Active; 'I' for Inactive)
REMARK    1  A    between atoms: C_2  and  N_3 
REMARK    2  A    between atoms: C_2  and  C_17 
REMARK       I    between atoms: N_3  and  C_4 
REMARK    3  A    between atoms: C_4  and  C_5 
REMARK    4  A    between atoms: C_7  and  N_8 
REMARK    5  A    between atoms: C_17  and  O_18 
REMARK    6  A    between atoms: C_17  and  C_19 
REMARK    7  A    between atoms: C_22  and  O_23 
ROOT
HETATM    1  N   UNL     1      41.265 -14.196   0.436  1.00  0.00    -0.349 N 
HETATM    2  C   UNL     1      40.647 -12.973   0.548  1.00  0.00     0.270 C 
HETATM    3  O   UNL     1      40.205 -12.534   1.604  1.00  0.00    -0.266 OA
HETATM    4  H   UNL     1      41.580 -14.442  -0.499  1.00  0.00     0.163 HD
ENDROOT
BRANCH   1   5
HETATM    5  C   UNL     1      41.603 -15.089   1.549  1.00  0.00     0.114 C 
HETATM    6  C   UNL     1      40.466 -16.086   1.800  1.00  0.00     0.035 C 
BRANCH   5   7
HETATM    7  C   UNL     1      42.980 -15.816   1.436  1.00  0.00     0.173 C 
BRANCH   7   8
HETATM    8  O   UNL     1      44.085 -14.938   1.223  1.00  0.00    -0.389 OA
HETATM    9  H   UNL     1      44.309 -14.536   2.089  1.00  0.00     0.210 HD
ENDBRANCH   7   8
BRANCH   7  10
HETATM   10  C   UNL     1      43.261 -16.760   2.592  1.00  0.00    -0.028 A 
HETATM   11  C   UNL     1      43.511 -18.116   2.339  1.00  0.00     0.012 A 
HETATM   12  C   UNL     1      43.774 -18.999   3.390  1.00  0.00     0.037 A 
HETATM   13  C   UNL     1      43.793 -18.548   4.710  1.00  0.00     0.068 A 
HETATM   14  C   UNL     1      43.530 -17.205   4.974  1.00  0.00     0.037 A 
HETATM   15  C   UNL     1      43.265 -16.319   3.922  1.00  0.00     0.012 A 
BRANCH  13  16
HETATM   16  O   UNL     1      44.074 -19.512   5.640  1.00  0.00    -0.356 OA
HETATM   17  C   UNL     1      43.940 -20.863   5.219  1.00  0.00     0.210 C 
ENDBRANCH  13  16
ENDBRANCH   7  10
ENDBRANCH   5   7
ENDBRANCH   1   5
BRANCH   2  18
HETATM   18  C   UNL     1      40.556 -12.196  -0.731  1.00  0.00     0.126 A 
HETATM   19  N   UNL     1      41.270 -11.036  -0.782  1.00  0.00    -0.224 NA
HETATM   20  C   UNL     1      41.168 -10.311  -1.931  1.00  0.00     0.151 A 
HETATM   21  C   UNL     1      40.382 -10.712  -3.014  1.00  0.00     0.052 A 
HETATM   22  C   UNL     1      39.668 -11.905  -2.923  1.00  0.00     0.006 A 
HETATM   23  C   UNL     1      39.752 -12.665  -1.762  1.00  0.00     0.037 A 
BRANCH  20  24
HETATM   24  N   UNL     1      41.893  -9.084  -2.024  1.00  0.00    -0.227 N 
HETATM   25  N   UNL     1      42.890  -8.756  -1.157  1.00  0.00    -0.179 NA
HETATM   26  C   UNL     1      43.313  -7.561  -1.576  1.00  0.00     0.141 A 
HETATM   27  C   UNL     1      42.611  -7.100  -2.699  1.00  0.00     0.040 A 
HETATM   28  C   UNL     1      41.702  -8.095  -2.968  1.00  0.00     0.122 A 
ENDBRANCH  20  24
ENDBRANCH   2  18
TORSDOF 7
ENDMDL
MODEL 6
REMARK VINA RESULT:      -7.9      2.821      8.115
REMARK  7 active torsions:
REMARK  status: ('A' for Active; 'I' for Inactive)
REMARK    1  A    between atoms: C_2  and  N_3 
REMARK    2  A    between atoms: C_2  and  C_17 
REMARK       I    between atoms: N_3  and  C_4 
REMARK    3  A    between atoms: C_4  and  C_5 
REMARK    4  A    between atoms: C_7  and  N_8 
REMARK    5  A    between atoms: C_17  and  O_18 
REMARK    6  A    between atoms: C_17  and  C_19 
REMARK    7  A    between atoms: C_22  and  O_23 
ROOT
HETATM    1  N   UNL     1      41.956 -13.264   4.109  1.00  0.00    -0.349 N 
HETATM    2  C   UNL     1      42.847 -14.097   3.475  1.00  0.00     0.270 C 
HETATM    3  O   UNL     1      43.306 -13.873   2.360  1.00  0.00    -0.266 OA
HETATM    4  H   UNL     1      41.649 -13.572   5.028  1.00  0.00     0.163 HD
ENDROOT
BRANCH   1   5
HETATM    5  C   UNL     1      41.523 -11.948   3.628  1.00  0.00     0.114 C 
HETATM    6  C   UNL     1      40.119 -11.623   4.147  1.00  0.00     0.035 C 
BRANCH   5   7
HETATM    7  C   UNL     1      42.514 -10.772   3.898  1.00  0.00     0.173 C 
BRANCH   7   8
HETATM    8  O   UNL     1      41.945  -9.478   3.705  1.00  0.00    -0.389 OA
HETATM    9  H   UNL     1      41.357  -9.532   2.922  1.00  0.00     0.210 HD
ENDBRANCH   7   8
BRANCH   7  10
HETATM   10  C   UNL     1      43.202 -10.860   5.248  1.00  0.00    -0.028 A 
HETATM   11  C   UNL     1      42.581 -10.322   6.384  1.00  0.00     0.012 A 
HETATM   12  C   UNL     1      43.199 -10.396   7.635  1.00  0.00     0.037 A 
HETATM   13  C   UNL     1      44.445 -11.008   7.778  1.00  0.00     0.068 A 
HETATM   14  C   UNL     1      45.078 -11.532   6.652  1.00  0.00     0.037 A 
HETATM   15  C   UNL     1      44.461 -11.458   5.398  1.00  0.00     0.012 A 
BRANCH  13  16
HETATM   16  O   UNL     1      44.932 -11.022   9.057  1.00  0.00    -0.356 OA
HETATM   17  C   UNL     1      44.131 -10.396  10.051  1.00  0.00     0.210 C 
ENDBRANCH  13  16
ENDBRANCH   7  10
ENDBRANCH   5   7
ENDBRANCH   1   5
BRANCH   2  18
HETATM   18  C   UNL     1      43.232 -15.317   4.256  1.00  0.00     0.126 A 
HETATM   19  N   UNL     1      43.272 -16.489   3.560  1.00  0.00    -0.224 NA
HETATM   20  C   UNL     1      43.593 -17.606   4.272  1.00  0.00     0.151 A 
HETATM   21  C   UNL     1      43.872 -17.580   5.639  1.00  0.00     0.052 A 
HETATM   22  C   UNL     1      43.822 -16.362   6.315  1.00  0.00     0.006 A 
HETATM   23  C   UNL     1      43.495 -15.207   5.615  1.00  0.00     0.037 A 
BRANCH  20  24
HETATM   24  N   UNL     1      43.637 -18.857   3.583  1.00  0.00    -0.227 N 
HETATM   25  N   UNL     1      44.019 -20.014   4.192  1.00  0.00    -0.179 NA
HETATM   26  C   UNL     1      43.922 -20.939   3.235  1.00  0.00     0.141 A 
HETATM   27  C   UNL     1      43.485 -20.410   2.012  1.00  0.00     0.040 A 
HETATM   28  C   UNL     1      43.310 -19.071   2.260  1.00  0.00     0.122 A 
ENDBRANCH  20  24
ENDBRANCH   2  18
TORSDOF 7
ENDMDL
MODEL 7
REMARK VINA RESULT:      -7.8      4.265     10.282
REMARK  7 active torsions:
REMARK  status: ('A' for Active; 'I' for Inactive)
REMARK    1  A    between atoms: C_2  and  N_3 
REMARK    2  A    between atoms: C_2  and  C_17 
REMARK       I    between atoms: N_3  and  C_4 
REMARK    3  A    between atoms: C_4  and  C_5 
REMARK    4  A    between atoms: C_7  and  N_8 
REMARK    5  A    between atoms: C_17  and  O_18 
REMARK    6  A    between atoms: C_17  and  C_19 
REMARK    7  A    between atoms: C_22  and  O_23 
ROOT
HETATM    1  N   UNL     1      42.529  -9.820   9.752  1.00  0.00    -0.349 N 
HETATM    2  C   UNL     1      43.481  -9.073   9.100  1.00  0.00     0.270 C 
HETATM    3  O   UNL     1      43.621  -7.866   9.264  1.00  0.00    -0.266 OA
HETATM    4  H   UNL     1      42.516 -10.810   9.520  1.00  0.00     0.163 HD
ENDROOT
BRANCH   1   5
HETATM    5  C   UNL     1      41.641  -9.337  10.814  1.00  0.00     0.114 C 
HETATM    6  C   UNL     1      40.177  -9.436  10.375  1.00  0.00     0.035 C 
BRANCH   5   7
HETATM    7  C   UNL     1      41.857  -9.983  12.219  1.00  0.00     0.173 C 
BRANCH   7   8
HETATM    8  O   UNL     1      42.912 -10.943  12.261  1.00  0.00    -0.389 OA
HETATM    9  H   UNL     1      42.565 -11.737  12.721  1.00  0.00     0.210 HD
ENDBRANCH   7   8
BRANCH   7  10
HETATM   10  C   UNL     1      42.014  -8.964  13.334  1.00  0.00    -0.028 A 
HETATM   11  C   UNL     1      41.131  -8.981  14.424  1.00  0.00     0.012 A 
HETATM   12  C   UNL     1      41.262  -8.053  15.460  1.00  0.00     0.037 A 
HETATM   13  C   UNL     1      42.274  -7.093  15.432  1.00  0.00     0.068 A 
HETATM   14  C   UNL     1      43.147  -7.057  14.346  1.00  0.00     0.037 A 
HETATM   15  C   UNL     1      43.016  -7.986  13.305  1.00  0.00     0.012 A 
BRANCH  13  16
HETATM   16  O   UNL     1      42.297  -6.254  16.512  1.00  0.00    -0.356 OA
HETATM   17  C   UNL     1      41.337  -5.206  16.526  1.00  0.00     0.210 C 
ENDBRANCH  13  16
ENDBRANCH   7  10
ENDBRANCH   5   7
ENDBRANCH   1   5
BRANCH   2  18
HETATM   18  C   UNL     1      44.355  -9.849   8.162  1.00  0.00     0.126 A 
HETATM   19  N   UNL     1      43.729 -10.440   7.105  1.00  0.00    -0.224 NA
HETATM   20  C   UNL     1      44.515 -11.171   6.265  1.00  0.00     0.151 A 
HETATM   21  C   UNL     1      45.890 -11.322   6.453  1.00  0.00     0.052 A 
HETATM   22  C   UNL     1      46.493 -10.702   7.545  1.00  0.00     0.006 A 
HETATM   23  C   UNL     1      45.716  -9.951   8.419  1.00  0.00     0.037 A 
BRANCH  20  24
HETATM   24  N   UNL     1      43.897 -11.814   5.149  1.00  0.00    -0.227 N 
HETATM   25  N   UNL     1      44.078 -11.389   3.868  1.00  0.00    -0.179 NA
HETATM   26  C   UNL     1      43.356 -12.238   3.133  1.00  0.00     0.141 A 
HETATM   27  C   UNL     1      42.706 -13.210   3.909  1.00  0.00     0.040 A 
HETATM   28  C   UNL     1      43.068 -12.917   5.201  1.00  0.00     0.122 A 
ENDBRANCH  20  24
ENDBRANCH   2  18
TORSDOF 7
ENDMDL
MODEL 8
REMARK VINA RESULT:      -7.7      2.084      2.805
REMARK  7 active torsions:
REMARK  status: ('A' for Active; 'I' for Inactive)
REMARK    1  A    between atoms: C_2  and  N_3 
REMARK    2  A    between atoms: C_2  and  C_17 
REMARK       I    between atoms: N_3  and  C_4 
REMARK    3  A    between atoms: C_4  and  C_5 
REMARK    4  A    between atoms: C_7  and  N_8 
REMARK    5  A    between atoms: C_17  and  O_18 
REMARK    6  A    between atoms: C_17  and  C_19 
REMARK    7  A    between atoms: C_22  and  O_23 
ROOT
HETATM    1  N   UNL     1      42.797 -11.772   5.841  1.00  0.00    -0.349 N 
HETATM    2  C   UNL     1      43.668 -12.065   6.864  1.00  0.00     0.270 C 
HETATM    3  O   UNL     1      43.873 -13.203   7.272  1.00  0.00    -0.266 OA
HETATM    4  H   UNL     1      42.715 -10.787   5.605  1.00  0.00     0.163 HD
ENDROOT
BRANCH   1   5
HETATM    5  C   UNL     1      42.094 -12.754   5.009  1.00  0.00     0.114 C 
HETATM    6  C   UNL     1      40.592 -12.454   4.982  1.00  0.00     0.035 C 
BRANCH   5   7
HETATM    7  C   UNL     1      42.660 -12.946   3.567  1.00  0.00     0.173 C 
BRANCH   7   8
HETATM    8  O   UNL     1      43.834 -12.179   3.298  1.00  0.00    -0.389 OA
HETATM    9  H   UNL     1      43.560 -11.240   3.233  1.00  0.00     0.210 HD
ENDBRANCH   7   8
BRANCH   7  10
HETATM   10  C   UNL     1      42.871 -14.401   3.189  1.00  0.00    -0.028 A 
HETATM   11  C   UNL     1      42.808 -15.394   4.177  1.00  0.00     0.012 A 
HETATM   12  C   UNL     1      42.997 -16.738   3.847  1.00  0.00     0.037 A 
HETATM   13  C   UNL     1      43.251 -17.119   2.529  1.00  0.00     0.068 A 
HETATM   14  C   UNL     1      43.331 -16.138   1.542  1.00  0.00     0.037 A 
HETATM   15  C   UNL     1      43.143 -14.789   1.871  1.00  0.00     0.012 A 
BRANCH  13  16
HETATM   16  O   UNL     1      43.405 -18.465   2.341  1.00  0.00    -0.356 OA
HETATM   17  C   UNL     1      44.093 -19.176   3.362  1.00  0.00     0.210 C 
ENDBRANCH  13  16
ENDBRANCH   7  10
ENDBRANCH   5   7
ENDBRANCH   1   5
BRANCH   2  18
HETATM   18  C   UNL     1      44.367 -10.876   7.453  1.00  0.00     0.126 A 
HETATM   19  N   UNL     1      43.568  -9.847   7.855  1.00  0.00    -0.224 NA
HETATM   20  C   UNL     1      44.200  -8.752   8.364  1.00  0.00     0.151 A 
HETATM   21  C   UNL     1      45.588  -8.665   8.482  1.00  0.00     0.052 A 
HETATM   22  C   UNL     1      46.370  -9.739   8.062  1.00  0.00     0.006 A 
HETATM   23  C   UNL     1      45.753 -10.867   7.536  1.00  0.00     0.037 A 
BRANCH  20  24
HETATM   24  N   UNL     1      43.401  -7.647   8.789  1.00  0.00    -0.227 N 
HETATM   25  N   UNL     1      42.789  -6.806   7.911  1.00  0.00    -0.179 NA
HETATM   26  C   UNL     1      42.147  -5.928   8.685  1.00  0.00     0.141 A 
HETATM   27  C   UNL     1      42.329  -6.178  10.053  1.00  0.00     0.040 A 
HETATM   28  C   UNL     1      43.139  -7.286  10.096  1.00  0.00     0.122 A 
ENDBRANCH  20  24
ENDBRANCH   2  18
TORSDOF 7
ENDMDL
MODEL 9
REMARK VINA RESULT:      -7.6      6.089      9.176
REMARK  7 active torsions:
REMARK  status: ('A' for Active; 'I' for Inactive)
REMARK    1  A    between atoms: C_2  and  N_3 
REMARK    2  A    between atoms: C_2  and  C_17 
REMARK       I    between atoms: N_3  and  C_4 
REMARK    3  A    between atoms: C_4  and  C_5 
REMARK    4  A    between atoms: C_7  and  N_8 
REMARK    5  A    between atoms: C_17  and  O_18 
REMARK    6  A    between atoms: C_17  and  C_19 
REMARK    7  A    between atoms: C_22  and  O_23 
ROOT
HETATM    1  N   UNL     1      40.482 -14.942   0.864  1.00  0.00    -0.349 N 
HETATM    2  C   UNL     1      40.365 -13.722   0.242  1.00  0.00     0.270 C 
HETATM    3  O   UNL     1      40.909 -12.701   0.649  1.00  0.00    -0.266 OA
HETATM    4  H   UNL     1      39.975 -15.706   0.426  1.00  0.00     0.163 HD
ENDROOT
BRANCH   1   5
HETATM    5  C   UNL     1      41.354 -15.241   2.005  1.00  0.00     0.114 C 
HETATM    6  C   UNL     1      40.603 -16.073   3.049  1.00  0.00     0.035 C 
BRANCH   5   7
HETATM    7  C   UNL     1      42.731 -15.885   1.650  1.00  0.00     0.173 C 
BRANCH   7   8
HETATM    8  O   UNL     1      43.767 -14.937   1.394  1.00  0.00    -0.389 OA
HETATM    9  H   UNL     1      43.730 -14.716   0.439  1.00  0.00     0.210 HD
ENDBRANCH   7   8
BRANCH   7  10
HETATM   10  C   UNL     1      43.191 -16.922   2.659  1.00  0.00    -0.028 A 
HETATM   11  C   UNL     1      43.184 -18.281   2.315  1.00  0.00     0.012 A 
HETATM   12  C   UNL     1      43.606 -19.249   3.231  1.00  0.00     0.037 A 
HETATM   13  C   UNL     1      44.043 -18.882   4.504  1.00  0.00     0.068 A 
HETATM   14  C   UNL     1      44.038 -17.535   4.862  1.00  0.00     0.037 A 
HETATM   15  C   UNL     1      43.615 -16.564   3.946  1.00  0.00     0.012 A 
BRANCH  13  16
HETATM   16  O   UNL     1      44.438 -19.925   5.296  1.00  0.00    -0.356 OA
HETATM   17  C   UNL     1      43.933 -21.210   4.957  1.00  0.00     0.210 C 
ENDBRANCH  13  16
ENDBRANCH   7  10
ENDBRANCH   5   7
ENDBRANCH   1   5
BRANCH   2  18
HETATM   18  C   UNL     1      39.518 -13.726  -0.995  1.00  0.00     0.126 A 
HETATM   19  N   UNL     1      38.997 -12.524  -1.370  1.00  0.00    -0.224 NA
HETATM   20  C   UNL     1      38.201 -12.526  -2.477  1.00  0.00     0.151 A 
HETATM   21  C   UNL     1      37.922 -13.683  -3.207  1.00  0.00     0.052 A 
HETATM   22  C   UNL     1      38.475 -14.893  -2.791  1.00  0.00     0.006 A 
HETATM   23  C   UNL     1      39.288 -14.920  -1.665  1.00  0.00     0.037 A 
BRANCH  20  24
HETATM   24  N   UNL     1      37.627 -11.289  -2.901  1.00  0.00    -0.227 N 
HETATM   25  N   UNL     1      36.282 -11.088  -2.956  1.00  0.00    -0.179 NA
HETATM   26  C   UNL     1      36.152  -9.830  -3.383  1.00  0.00     0.141 A 
HETATM   27  C   UNL     1      37.387  -9.205  -3.611  1.00  0.00     0.040 A 
HETATM   28  C   UNL     1      38.320 -10.162  -3.295  1.00  0.00     0.122 A 
ENDBRANCH  20  24
ENDBRANCH   2  18
TORSDOF 7
ENDMDL
MODEL 10
REMARK VINA RESULT:      -7.5     17.072     19.000
REMARK  7 active torsions:
REMARK  status: ('A' for Active; 'I' for Inactive)
REMARK    1  A    between atoms: C_2  and  N_3 
REMARK    2  A    between atoms: C_2  and  C_17 
REMARK       I    between atoms: N_3  and  C_4 
REMARK    3  A    between atoms: C_4  and  C_5 
REMARK    4  A    between atoms: C_7  and  N_8 
REMARK    5  A    between atoms: C_17  and  O_18 
REMARK    6  A    between atoms: C_17  and  C_19 
REMARK    7  A    between atoms: C_22  and  O_23 
ROOT
HETATM    1  N   UNL     1      46.175 -29.913   0.811  1.00  0.00    -0.349 N 
HETATM    2  C   UNL     1      46.894 -29.045   1.598  1.00  0.00     0.270 C 
HETATM    3  O   UNL     1      46.427 -28.011   2.064  1.00  0.00    -0.266 OA
HETATM    4  H   UNL     1      46.684 -30.731   0.484  1.00  0.00     0.163 HD
ENDROOT
BRANCH   1   5
HETATM    5  C   UNL     1      44.741 -29.816   0.519  1.00  0.00     0.114 C 
HETATM    6  C   UNL     1      43.949 -29.554   1.804  1.00  0.00     0.035 C 
BRANCH   5   7
HETATM    7  C   UNL     1      44.349 -28.806  -0.605  1.00  0.00     0.173 C 
BRANCH   7   8
HETATM    8  O   UNL     1      45.017 -27.548  -0.514  1.00  0.00    -0.389 OA
HETATM    9  H   UNL     1      44.752 -27.020  -1.297  1.00  0.00     0.210 HD
ENDBRANCH   7   8
BRANCH   7  10
HETATM   10  C   UNL     1      44.474 -29.381  -2.004  1.00  0.00    -0.028 A 
HETATM   11  C   UNL     1      44.801 -28.539  -3.077  1.00  0.00     0.012 A 
HETATM   12  C   UNL     1      44.923 -29.051  -4.372  1.00  0.00     0.037 A 
HETATM   13  C   UNL     1      44.723 -30.409  -4.621  1.00  0.00     0.068 A 
HETATM   14  C   UNL     1      44.383 -31.252  -3.564  1.00  0.00     0.037 A 
HETATM   15  C   UNL     1      44.259 -30.740  -2.267  1.00  0.00     0.012 A 
BRANCH  13  16
HETATM   16  O   UNL     1      44.884 -30.781  -5.928  1.00  0.00    -0.356 OA
HETATM   17  C   UNL     1      45.892 -31.747  -6.197  1.00  0.00     0.210 C 
ENDBRANCH  13  16
ENDBRANCH   7  10
ENDBRANCH   5   7
ENDBRANCH   1   5
BRANCH   2  18
HETATM   18  C   UNL     1      48.311 -29.459   1.857  1.00  0.00     0.126 A 
HETATM   19  N   UNL     1      49.002 -29.941   0.785  1.00  0.00    -0.224 NA
HETATM   20  C   UNL     1      50.282 -30.347   1.021  1.00  0.00     0.151 A 
HETATM   21  C   UNL     1      50.878 -30.279   2.282  1.00  0.00     0.052 A 
HETATM   22  C   UNL     1      50.139 -29.779   3.351  1.00  0.00     0.006 A 
HETATM   23  C   UNL     1      48.831 -29.360   3.141  1.00  0.00     0.037 A 
BRANCH  20  24
HETATM   24  N   UNL     1      51.039 -30.867  -0.072  1.00  0.00    -0.227 N 
HETATM   25  N   UNL     1      51.100 -30.246  -1.282  1.00  0.00    -0.179 NA
HETATM   26  C   UNL     1      51.898 -31.025  -2.015  1.00  0.00     0.141 A 
HETATM   27  C   UNL     1      52.359 -32.146  -1.309  1.00  0.00     0.040 A 
HETATM   28  C   UNL     1      51.793 -32.024  -0.063  1.00  0.00     0.122 A 
ENDBRANCH  20  24
ENDBRANCH   2  18
TORSDOF 7
ENDMDL
