MODEL 1
REMARK VINA RESULT:      -8.1      0.000      0.000
REMARK  7 active torsions:
REMARK  status: ('A' for Active; 'I' for Inactive)
REMARK    1  A    between atoms: O_2  and  C_3 
REMARK    2  A    between atoms: C_6  and  C_7 
REMARK    3  A    between atoms: C_7  and  C_8 
REMARK    4  A    between atoms: C_8  and  C_9 
REMARK    5  A    between atoms: C_9  and  O_10 
REMARK    6  A    between atoms: N_13  and  C_14 
REMARK    7  A    between atoms: C_14  and  N_15 
ROOT
HETATM    1  C   UNL     1      41.196 -12.377   3.113  1.00  0.00     0.175 C 
HETATM    2  C   UNL     1      41.333 -13.675   3.985  1.00  0.00     0.265 C 
HETATM    3  O   UNL     1      41.883 -13.854   5.063  1.00  0.00    -0.269 OA
HETATM    4  N   UNL     1      40.682 -14.714   3.306  1.00  0.00    -0.289 N 
HETATM    5  C   UNL     1      40.516 -14.361   1.959  1.00  0.00     0.049 A 
HETATM    6  C   UNL     1      40.867 -13.014   1.776  1.00  0.00     0.014 A 
HETATM    7  C   UNL     1      40.119 -15.158   0.900  1.00  0.00     0.032 A 
HETATM    8  C   UNL     1      40.077 -14.578  -0.373  1.00  0.00     0.021 A 
HETATM    9  C   UNL     1      40.425 -13.230  -0.558  1.00  0.00     0.011 A 
HETATM   10 BR   UNL     1      40.352 -12.482  -2.293  1.00  0.00    -0.051 Br
HETATM   11  C   UNL     1      40.817 -12.431   0.518  1.00  0.00     0.032 A 
ENDROOT
BRANCH   1  12
HETATM   12  C   UNL     1      42.467 -11.527   3.143  1.00  0.00     0.137 C 
BRANCH  12  13
HETATM   13  C   UNL     1      42.434 -10.475   4.245  1.00  0.00     0.163 C 
HETATM   14  O   UNL     1      41.735  -9.466   4.178  1.00  0.00    -0.292 OA
BRANCH  13  15
HETATM   15  C   UNL     1      43.266 -10.681   5.471  1.00  0.00     0.010 A 
HETATM   16  C   UNL     1      44.431 -11.455   5.478  1.00  0.00     0.018 A 
HETATM   17  C   UNL     1      45.170 -11.610   6.661  1.00  0.00     0.037 A 
HETATM   18  C   UNL     1      44.749 -10.997   7.842  1.00  0.00     0.068 A 
HETATM   19  C   UNL     1      43.585 -10.231   7.834  1.00  0.00     0.037 A 
HETATM   20  C   UNL     1      42.847 -10.070   6.659  1.00  0.00     0.018 A 
BRANCH  18  21
HETATM   21  O   UNL     1      45.373 -11.069   9.055  1.00  0.00    -0.356 OA
HETATM   22  C   UNL     1      45.108 -10.028   9.987  1.00  0.00     0.210 C 
ENDBRANCH  18  21
ENDBRANCH  13  15
ENDBRANCH  12  13
ENDBRANCH   1  12
BRANCH   1  23
HETATM   23  O   UNL     1      40.063 -11.585   3.453  1.00  0.00    -0.375 OA
HETATM   24  H   UNL     1      40.344 -10.728   3.812  1.00  0.00     0.211 HD
ENDBRANCH   1  23
BRANCH   4  25
HETATM   25  C   UNL     1      40.679 -16.066   3.790  1.00  0.00     0.367 C 
BRANCH  25  26
HETATM   26  N   UNL     1      42.060 -16.650   3.778  1.00  0.00    -0.055 N 
HETATM   27  H   UNL     1      42.664 -15.827   3.574  1.00  0.00     0.281 HD
HETATM   28  C   UNL     1      42.527 -17.173   5.110  1.00  0.00     0.237 C 
HETATM   29  C   UNL     1      44.013 -17.493   5.022  1.00  0.00     0.028 C 
HETATM   30  C   UNL     1      44.316 -18.469   3.889  1.00  0.00     0.003 C 
HETATM   31  C   UNL     1      43.749 -17.975   2.562  1.00  0.00     0.028 C 
HETATM   32  C   UNL     1      42.268 -17.636   2.667  1.00  0.00     0.237 C 
ENDBRANCH  25  26
ENDBRANCH   4  25
TORSDOF 7
ENDMDL
MODEL 2
REMARK VINA RESULT:      -7.7      3.085      7.564
REMARK  7 active torsions:
REMARK  status: ('A' for Active; 'I' for Inactive)
REMARK    1  A    between atoms: O_2  and  C_3 
REMARK    2  A    between atoms: C_6  and  C_7 
REMARK    3  A    between atoms: C_7  and  C_8 
REMARK    4  A    between atoms: C_8  and  C_9 
REMARK    5  A    between atoms: C_9  and  O_10 
REMARK    6  A    between atoms: N_13  and  C_14 
REMARK    7  A    between atoms: C_14  and  N_15 
ROOT
HETATM    1  C   UNL     1      40.350 -14.586   2.641  1.00  0.00     0.175 C 
HETATM    2  C   UNL     1      40.374 -13.596   3.859  1.00  0.00     0.265 C 
HETATM    3  O   UNL     1      40.052 -12.418   3.932  1.00  0.00    -0.269 OA
HETATM    4  N   UNL     1      40.862 -14.298   4.969  1.00  0.00    -0.289 N 
HETATM    5  C   UNL     1      41.530 -15.453   4.535  1.00  0.00     0.049 A 
HETATM    6  C   UNL     1      41.317 -15.634   3.159  1.00  0.00     0.014 A 
HETATM    7  C   UNL     1      42.332 -16.313   5.265  1.00  0.00     0.032 A 
HETATM    8  C   UNL     1      42.932 -17.380   4.586  1.00  0.00     0.021 A 
HETATM    9  C   UNL     1      42.718 -17.565   3.210  1.00  0.00     0.011 A 
HETATM   10 BR   UNL     1      43.543 -19.020   2.330  1.00  0.00    -0.051 Br
HETATM   11  C   UNL     1      41.901 -16.696   2.483  1.00  0.00     0.032 A 
ENDROOT
BRANCH   1  12
HETATM   12  C   UNL     1      40.758 -13.902   1.336  1.00  0.00     0.137 C 
BRANCH  12  13
HETATM   13  C   UNL     1      39.872 -14.313   0.166  1.00  0.00     0.163 C 
HETATM   14  O   UNL     1      39.688 -15.487  -0.146  1.00  0.00    -0.292 OA
BRANCH  13  15
HETATM   15  C   UNL     1      39.178 -13.252  -0.627  1.00  0.00     0.010 A 
HETATM   16  C   UNL     1      39.032 -11.936  -0.174  1.00  0.00     0.018 A 
HETATM   17  C   UNL     1      38.370 -10.984  -0.965  1.00  0.00     0.037 A 
HETATM   18  C   UNL     1      37.849 -11.340  -2.209  1.00  0.00     0.068 A 
HETATM   19  C   UNL     1      37.990 -12.653  -2.657  1.00  0.00     0.037 A 
HETATM   20  C   UNL     1      38.650 -13.603  -1.876  1.00  0.00     0.018 A 
BRANCH  18  21
HETATM   21  O   UNL     1      37.185 -10.515  -3.072  1.00  0.00    -0.356 OA
HETATM   22  C   UNL     1      37.965  -9.587  -3.816  1.00  0.00     0.210 C 
ENDBRANCH  18  21
ENDBRANCH  13  15
ENDBRANCH  12  13
ENDBRANCH   1  12
BRANCH   1  23
HETATM   23  O   UNL     1      39.104 -15.255   2.481  1.00  0.00    -0.375 OA
HETATM   24  H   UNL     1      39.105 -16.094   2.970  1.00  0.00     0.211 HD
ENDBRANCH   1  23
BRANCH   4  25
HETATM   25  C   UNL     1      41.086 -13.669   6.240  1.00  0.00     0.367 C 
BRANCH  25  26
HETATM   26  N   UNL     1      42.266 -12.746   6.188  1.00  0.00    -0.055 N 
HETATM   27  H   UNL     1      42.529 -12.752   5.181  1.00  0.00     0.281 HD
HETATM   28  C   UNL     1      41.949 -11.311   6.514  1.00  0.00     0.237 C 
HETATM   29  C   UNL     1      43.157 -10.448   6.175  1.00  0.00     0.028 C 
HETATM   30  C   UNL     1      44.414 -10.930   6.893  1.00  0.00     0.003 C 
HETATM   31  C   UNL     1      44.668 -12.412   6.637  1.00  0.00     0.028 C 
HETATM   32  C   UNL     1      43.447 -13.262   6.956  1.00  0.00     0.237 C 
ENDBRANCH  25  26
ENDBRANCH   4  25
TORSDOF 7
ENDMDL
MODEL 3
REMARK VINA RESULT:      -7.7      3.493      6.934
REMARK  7 active torsions:
REMARK  status: ('A' for Active; 'I' for Inactive)
REMARK    1  A    between atoms: O_2  and  C_3 
REMARK    2  A    between atoms: C_6  and  C_7 
REMARK    3  A    between atoms: C_7  and  C_8 
REMARK    4  A    between atoms: C_8  and  C_9 
REMARK    5  A    between atoms: C_9  and  O_10 
REMARK    6  A    between atoms: N_13  and  C_14 
REMARK    7  A    between atoms: C_14  and  N_15 
ROOT
HETATM    1  C   UNL     1      40.906 -13.712   3.503  1.00  0.00     0.175 C 
HETATM    2  C   UNL     1      40.342 -13.785   2.040  1.00  0.00     0.265 C 
HETATM    3  O   UNL     1      40.627 -14.534   1.115  1.00  0.00    -0.269 OA
HETATM    4  N   UNL     1      39.373 -12.782   1.906  1.00  0.00    -0.289 N 
HETATM    5  C   UNL     1      39.537 -11.835   2.928  1.00  0.00     0.049 A 
HETATM    6  C   UNL     1      40.477 -12.302   3.860  1.00  0.00     0.014 A 
HETATM    7  C   UNL     1      38.945 -10.590   3.055  1.00  0.00     0.032 A 
HETATM    8  C   UNL     1      39.312  -9.802   4.152  1.00  0.00     0.021 A 
HETATM    9  C   UNL     1      40.250 -10.269   5.087  1.00  0.00     0.011 A 
HETATM   10 BR   UNL     1      40.719  -9.175   6.556  1.00  0.00    -0.051 Br
HETATM   11  C   UNL     1      40.838 -11.528   4.955  1.00  0.00     0.032 A 
ENDROOT
BRANCH   1  12
HETATM   12  C   UNL     1      42.411 -13.976   3.553  1.00  0.00     0.137 C 
BRANCH  12  13
HETATM   13  C   UNL     1      42.786 -14.983   4.634  1.00  0.00     0.163 C 
HETATM   14  O   UNL     1      42.764 -14.709   5.832  1.00  0.00    -0.292 OA
BRANCH  13  15
HETATM   15  C   UNL     1      43.177 -16.369   4.231  1.00  0.00     0.010 A 
HETATM   16  C   UNL     1      43.930 -17.216   5.052  1.00  0.00     0.018 A 
HETATM   17  C   UNL     1      44.266 -18.508   4.617  1.00  0.00     0.037 A 
HETATM   18  C   UNL     1      43.855 -18.959   3.362  1.00  0.00     0.068 A 
HETATM   19  C   UNL     1      43.110 -18.112   2.543  1.00  0.00     0.037 A 
HETATM   20  C   UNL     1      42.770 -16.827   2.972  1.00  0.00     0.018 A 
BRANCH  18  21
HETATM   21  O   UNL     1      44.115 -20.187   2.822  1.00  0.00    -0.356 OA
HETATM   22  C   UNL     1      43.486 -20.501   1.586  1.00  0.00     0.210 C 
ENDBRANCH  18  21
ENDBRANCH  13  15
ENDBRANCH  12  13
ENDBRANCH   1  12
BRANCH   1  23
HETATM   23  O   UNL     1      40.222 -14.566   4.414  1.00  0.00    -0.375 OA
HETATM   24  H   UNL     1      40.814 -14.833   5.137  1.00  0.00     0.211 HD
ENDBRANCH   1  23
BRANCH   4  25
HETATM   25  C   UNL     1      38.705 -12.517   0.664  1.00  0.00     0.367 C 
BRANCH  25  26
HETATM   26  N   UNL     1      39.652 -12.622  -0.494  1.00  0.00    -0.055 N 
HETATM   27  H   UNL     1      40.436 -13.187  -0.110  1.00  0.00     0.281 HD
HETATM   28  C   UNL     1      39.122 -13.409  -1.663  1.00  0.00     0.237 C 
HETATM   29  C   UNL     1      40.257 -13.658  -2.647  1.00  0.00     0.028 C 
HETATM   30  C   UNL     1      40.917 -12.356  -3.090  1.00  0.00     0.003 C 
HETATM   31  C   UNL     1      41.358 -11.520  -1.894  1.00  0.00     0.028 C 
HETATM   32  C   UNL     1      40.222 -11.297  -0.905  1.00  0.00     0.237 C 
ENDBRANCH  25  26
ENDBRANCH   4  25
TORSDOF 7
ENDMDL
MODEL 4
REMARK VINA RESULT:      -7.6      2.530      4.823
REMARK  7 active torsions:
REMARK  status: ('A' for Active; 'I' for Inactive)
REMARK    1  A    between atoms: O_2  and  C_3 
REMARK    2  A    between atoms: C_6  and  C_7 
REMARK    3  A    between atoms: C_7  and  C_8 
REMARK    4  A    between atoms: C_8  and  C_9 
REMARK    5  A    between atoms: C_9  and  O_10 
REMARK    6  A    between atoms: N_13  and  C_14 
REMARK    7  A    between atoms: C_14  and  N_15 
ROOT
HETATM    1  C   UNL     1      42.374 -13.174   4.201  1.00  0.00     0.175 C 
HETATM    2  C   UNL     1      41.139 -12.666   3.377  1.00  0.00     0.265 C 
HETATM    3  O   UNL     1      40.422 -11.688   3.540  1.00  0.00    -0.269 OA
HETATM    4  N   UNL     1      40.934 -13.563   2.320  1.00  0.00    -0.289 N 
HETATM    5  C   UNL     1      41.594 -14.769   2.597  1.00  0.00     0.049 A 
HETATM    6  C   UNL     1      42.404 -14.616   3.733  1.00  0.00     0.014 A 
HETATM    7  C   UNL     1      41.489 -15.983   1.939  1.00  0.00     0.032 A 
HETATM    8  C   UNL     1      42.221 -17.064   2.442  1.00  0.00     0.021 A 
HETATM    9  C   UNL     1      43.034 -16.912   3.577  1.00  0.00     0.011 A 
HETATM   10 BR   UNL     1      44.010 -18.396   4.225  1.00  0.00    -0.051 Br
HETATM   11  C   UNL     1      43.140 -15.683   4.231  1.00  0.00     0.032 A 
ENDROOT
BRANCH   1  12
HETATM   12  C   UNL     1      42.183 -12.973   5.705  1.00  0.00     0.137 C 
BRANCH  12  13
HETATM   13  C   UNL     1      43.510 -12.833   6.443  1.00  0.00     0.163 C 
HETATM   14  O   UNL     1      44.299 -13.766   6.571  1.00  0.00    -0.292 OA
BRANCH  13  15
HETATM   15  C   UNL     1      43.884 -11.504   7.018  1.00  0.00     0.010 A 
HETATM   16  C   UNL     1      45.172 -11.210   7.480  1.00  0.00     0.018 A 
HETATM   17  C   UNL     1      45.461  -9.943   8.010  1.00  0.00     0.037 A 
HETATM   18  C   UNL     1      44.468  -8.965   8.084  1.00  0.00     0.068 A 
HETATM   19  C   UNL     1      43.184  -9.262   7.629  1.00  0.00     0.037 A 
HETATM   20  C   UNL     1      42.891 -10.519   7.098  1.00  0.00     0.018 A 
BRANCH  18  21
HETATM   21  O   UNL     1      44.618  -7.700   8.576  1.00  0.00    -0.356 OA
HETATM   22  C   UNL     1      43.484  -7.102   9.193  1.00  0.00     0.210 C 
ENDBRANCH  18  21
ENDBRANCH  13  15
ENDBRANCH  12  13
ENDBRANCH   1  12
BRANCH   1  23
HETATM   23  O   UNL     1      43.608 -12.605   3.778  1.00  0.00    -0.375 OA
HETATM   24  H   UNL     1      44.263 -12.644   4.494  1.00  0.00     0.211 HD
ENDBRANCH   1  23
BRANCH   4  25
HETATM   25  C   UNL     1      39.833 -13.439   1.407  1.00  0.00     0.367 C 
BRANCH  25  26
HETATM   26  N   UNL     1      40.314 -13.262  -0.002  1.00  0.00    -0.055 N 
HETATM   27  H   UNL     1      41.259 -13.696   0.013  1.00  0.00     0.281 HD
HETATM   28  C   UNL     1      39.530 -14.034  -1.029  1.00  0.00     0.237 C 
HETATM   29  C   UNL     1      40.268 -13.976  -2.360  1.00  0.00     0.028 C 
HETATM   30  C   UNL     1      40.524 -12.539  -2.802  1.00  0.00     0.003 C 
HETATM   31  C   UNL     1      41.228 -11.738  -1.712  1.00  0.00     0.028 C 
HETATM   32  C   UNL     1      40.495 -11.822  -0.381  1.00  0.00     0.237 C 
ENDBRANCH  25  26
ENDBRANCH   4  25
TORSDOF 7
ENDMDL
MODEL 5
REMARK VINA RESULT:      -7.5      2.596      6.759
REMARK  7 active torsions:
REMARK  status: ('A' for Active; 'I' for Inactive)
REMARK    1  A    between atoms: O_2  and  C_3 
REMARK    2  A    between atoms: C_6  and  C_7 
REMARK    3  A    between atoms: C_7  and  C_8 
REMARK    4  A    between atoms: C_8  and  C_9 
REMARK    5  A    between atoms: C_9  and  O_10 
REMARK    6  A    between atoms: N_13  and  C_14 
REMARK    7  A    between atoms: C_14  and  N_15 
ROOT
HETATM    1  C   UNL     1      42.319 -13.139   3.665  1.00  0.00     0.175 C 
HETATM    2  C   UNL     1      42.447 -12.927   5.214  1.00  0.00     0.265 C 
HETATM    3  O   UNL     1      42.575 -13.739   6.120  1.00  0.00    -0.269 OA
HETATM    4  N   UNL     1      42.389 -11.548   5.462  1.00  0.00    -0.289 N 
HETATM    5  C   UNL     1      41.835 -10.897   4.350  1.00  0.00     0.049 A 
HETATM    6  C   UNL     1      41.710 -11.803   3.284  1.00  0.00     0.014 A 
HETATM    7  C   UNL     1      41.405  -9.586   4.242  1.00  0.00     0.032 A 
HETATM    8  C   UNL     1      40.837  -9.183   3.028  1.00  0.00     0.021 A 
HETATM    9  C   UNL     1      40.714 -10.086   1.960  1.00  0.00     0.011 A 
HETATM   10 BR   UNL     1      39.944  -9.503   0.335  1.00  0.00    -0.051 Br
HETATM   11  C   UNL     1      41.157 -11.406   2.075  1.00  0.00     0.032 A 
ENDROOT
BRANCH   1  12
HETATM   12  C   UNL     1      41.477 -14.368   3.320  1.00  0.00     0.137 C 
BRANCH  12  13
HETATM   13  C   UNL     1      42.225 -15.347   2.422  1.00  0.00     0.163 C 
HETATM   14  O   UNL     1      42.334 -15.185   1.209  1.00  0.00    -0.292 OA
BRANCH  13  15
HETATM   15  C   UNL     1      42.872 -16.547   3.038  1.00  0.00     0.010 A 
HETATM   16  C   UNL     1      43.397 -16.548   4.335  1.00  0.00     0.018 A 
HETATM   17  C   UNL     1      43.992 -17.706   4.857  1.00  0.00     0.037 A 
HETATM   18  C   UNL     1      44.070 -18.868   4.088  1.00  0.00     0.068 A 
HETATM   19  C   UNL     1      43.552 -18.864   2.793  1.00  0.00     0.037 A 
HETATM   20  C   UNL     1      42.955 -17.716   2.270  1.00  0.00     0.018 A 
BRANCH  18  21
HETATM   21  O   UNL     1      44.622 -20.056   4.474  1.00  0.00    -0.356 OA
HETATM   22  C   UNL     1      43.962 -20.776   5.508  1.00  0.00     0.210 C 
ENDBRANCH  18  21
ENDBRANCH  13  15
ENDBRANCH  12  13
ENDBRANCH   1  12
BRANCH   1  23
HETATM   23  O   UNL     1      43.575 -13.195   2.996  1.00  0.00    -0.375 OA
HETATM   24  H   UNL     1      43.458 -13.051   2.043  1.00  0.00     0.211 HD
ENDBRANCH   1  23
BRANCH   4  25
HETATM   25  C   UNL     1      42.401 -11.003   6.790  1.00  0.00     0.367 C 
BRANCH  25  26
HETATM   26  N   UNL     1      43.728 -10.383   7.109  1.00  0.00    -0.055 N 
HETATM   27  H   UNL     1      43.949  -9.839   6.250  1.00  0.00     0.281 HD
HETATM   28  C   UNL     1      43.691  -9.376   8.227  1.00  0.00     0.237 C 
HETATM   29  C   UNL     1      45.025  -8.642   8.276  1.00  0.00     0.028 C 
HETATM   30  C   UNL     1      46.197  -9.608   8.418  1.00  0.00     0.003 C 
HETATM   31  C   UNL     1      46.165 -10.685   7.339  1.00  0.00     0.028 C 
HETATM   32  C   UNL     1      44.820 -11.396   7.284  1.00  0.00     0.237 C 
ENDBRANCH  25  26
ENDBRANCH   4  25
TORSDOF 7
ENDMDL
MODEL 6
REMARK VINA RESULT:      -7.4      3.334      7.571
REMARK  7 active torsions:
REMARK  status: ('A' for Active; 'I' for Inactive)
REMARK    1  A    between atoms: O_2  and  C_3 
REMARK    2  A    between atoms: C_6  and  C_7 
REMARK    3  A    between atoms: C_7  and  C_8 
REMARK    4  A    between atoms: C_8  and  C_9 
REMARK    5  A    between atoms: C_9  and  O_10 
REMARK    6  A    between atoms: N_13  and  C_14 
REMARK    7  A    between atoms: C_14  and  N_15 
ROOT
HETATM    1  C   UNL     1      42.902 -11.920   5.760  1.00  0.00     0.175 C 
HETATM    2  C   UNL     1      43.677 -11.450   7.042  1.00  0.00     0.265 C 
HETATM    3  O   UNL     1      44.391 -12.077   7.813  1.00  0.00    -0.269 OA
HETATM    4  N   UNL     1      43.424 -10.083   7.215  1.00  0.00    -0.289 N 
HETATM    5  C   UNL     1      42.286  -9.721   6.478  1.00  0.00     0.049 A 
HETATM    6  C   UNL     1      41.897 -10.788   5.654  1.00  0.00     0.014 A 
HETATM    7  C   UNL     1      41.567  -8.540   6.524  1.00  0.00     0.032 A 
HETATM    8  C   UNL     1      40.428  -8.437   5.717  1.00  0.00     0.021 A 
HETATM    9  C   UNL     1      40.038  -9.503   4.890  1.00  0.00     0.011 A 
HETATM   10 BR   UNL     1      38.495  -9.325   3.813  1.00  0.00    -0.051 Br
HETATM   11  C   UNL     1      40.774 -10.689   4.844  1.00  0.00     0.032 A 
ENDROOT
BRANCH   1  12
HETATM   12  C   UNL     1      42.304 -13.317   5.929  1.00  0.00     0.137 C 
BRANCH  12  13
HETATM   13  C   UNL     1      42.364 -14.131   4.642  1.00  0.00     0.163 C 
HETATM   14  O   UNL     1      41.932 -13.711   3.571  1.00  0.00    -0.292 OA
BRANCH  13  15
HETATM   15  C   UNL     1      42.991 -15.489   4.670  1.00  0.00     0.010 A 
HETATM   16  C   UNL     1      43.676 -15.988   5.783  1.00  0.00     0.018 A 
HETATM   17  C   UNL     1      44.242 -17.272   5.748  1.00  0.00     0.037 A 
HETATM   18  C   UNL     1      44.131 -18.062   4.603  1.00  0.00     0.068 A 
HETATM   19  C   UNL     1      43.453 -17.561   3.493  1.00  0.00     0.037 A 
HETATM   20  C   UNL     1      42.885 -16.286   3.523  1.00  0.00     0.018 A 
BRANCH  18  21
HETATM   21  O   UNL     1      44.635 -19.321   4.440  1.00  0.00    -0.356 OA
HETATM   22  C   UNL     1      44.101 -20.349   5.264  1.00  0.00     0.210 C 
ENDBRANCH  18  21
ENDBRANCH  13  15
ENDBRANCH  12  13
ENDBRANCH   1  12
BRANCH   1  23
HETATM   23  O   UNL     1      43.683 -11.856   4.572  1.00  0.00    -0.375 OA
HETATM   24  H   UNL     1      44.096 -12.716   4.391  1.00  0.00     0.211 HD
ENDBRANCH   1  23
BRANCH   4  25
HETATM   25  C   UNL     1      43.921  -9.345   8.342  1.00  0.00     0.367 C 
BRANCH  25  26
HETATM   26  N   UNL     1      43.338  -9.856   9.625  1.00  0.00    -0.055 N 
HETATM   27  H   UNL     1      42.899 -10.757   9.345  1.00  0.00     0.281 HD
HETATM   28  C   UNL     1      44.358 -10.213  10.673  1.00  0.00     0.237 C 
HETATM   29  C   UNL     1      43.662 -10.951  11.809  1.00  0.00     0.028 C 
HETATM   30  C   UNL     1      42.509 -10.138  12.390  1.00  0.00     0.003 C 
HETATM   31  C   UNL     1      41.536  -9.697  11.302  1.00  0.00     0.028 C 
HETATM   32  C   UNL     1      42.245  -8.980  10.161  1.00  0.00     0.237 C 
ENDBRANCH  25  26
ENDBRANCH   4  25
TORSDOF 7
ENDMDL
MODEL 7
REMARK VINA RESULT:      -7.4     17.155     19.472
REMARK  7 active torsions:
REMARK  status: ('A' for Active; 'I' for Inactive)
REMARK    1  A    between atoms: O_2  and  C_3 
REMARK    2  A    between atoms: C_6  and  C_7 
REMARK    3  A    between atoms: C_7  and  C_8 
REMARK    4  A    between atoms: C_8  and  C_9 
REMARK    5  A    between atoms: C_9  and  O_10 
REMARK    6  A    between atoms: N_13  and  C_14 
REMARK    7  A    between atoms: C_14  and  N_15 
ROOT
HETATM    1  C   UNL     1      49.244 -30.043   1.692  1.00  0.00     0.175 C 
HETATM    2  C   UNL     1      48.099 -29.263   0.954  1.00  0.00     0.265 C 
HETATM    3  O   UNL     1      46.994 -28.916   1.346  1.00  0.00    -0.269 OA
HETATM    4  N   UNL     1      48.543 -28.985  -0.346  1.00  0.00    -0.289 N 
HETATM    5  C   UNL     1      49.620 -29.826  -0.662  1.00  0.00     0.049 A 
HETATM    6  C   UNL     1      50.030 -30.523   0.486  1.00  0.00     0.014 A 
HETATM    7  C   UNL     1      50.219 -30.038  -1.892  1.00  0.00     0.032 A 
HETATM    8  C   UNL     1      51.257 -30.974  -1.959  1.00  0.00     0.021 A 
HETATM    9  C   UNL     1      51.671 -31.669  -0.811  1.00  0.00     0.011 A 
HETATM   10 BR   UNL     1      53.079 -32.924  -0.944  1.00  0.00    -0.051 Br
HETATM   11  C   UNL     1      51.066 -31.444   0.426  1.00  0.00     0.032 A 
ENDROOT
BRANCH   1  12
HETATM   12  C   UNL     1      48.697 -31.144   2.601  1.00  0.00     0.137 C 
BRANCH  12  13
HETATM   13  C   UNL     1      48.710 -30.741   4.070  1.00  0.00     0.163 C 
HETATM   14  O   UNL     1      47.948 -29.895   4.533  1.00  0.00    -0.292 OA
BRANCH  13  15
HETATM   15  C   UNL     1      49.672 -31.412   4.999  1.00  0.00     0.010 A 
HETATM   16  C   UNL     1      49.313 -32.487   5.819  1.00  0.00     0.018 A 
HETATM   17  C   UNL     1      50.261 -33.076   6.670  1.00  0.00     0.037 A 
HETATM   18  C   UNL     1      51.571 -32.595   6.707  1.00  0.00     0.068 A 
HETATM   19  C   UNL     1      51.925 -31.520   5.894  1.00  0.00     0.037 A 
HETATM   20  C   UNL     1      50.987 -30.932   5.043  1.00  0.00     0.018 A 
BRANCH  18  21
HETATM   21  O   UNL     1      52.585 -33.075   7.487  1.00  0.00    -0.356 OA
HETATM   22  C   UNL     1      53.214 -32.159   8.374  1.00  0.00     0.210 C 
ENDBRANCH  18  21
ENDBRANCH  13  15
ENDBRANCH  12  13
ENDBRANCH   1  12
BRANCH   1  23
HETATM   23  O   UNL     1      50.128 -29.196   2.418  1.00  0.00    -0.375 OA
HETATM   24  H   UNL     1      49.735 -28.946   3.269  1.00  0.00     0.211 HD
ENDBRANCH   1  23
BRANCH   4  25
HETATM   25  C   UNL     1      47.709 -28.344  -1.323  1.00  0.00     0.367 C 
BRANCH  25  26
HETATM   26  N   UNL     1      46.489 -29.164  -1.617  1.00  0.00    -0.055 N 
HETATM   27  H   UNL     1      46.478 -29.861  -0.844  1.00  0.00     0.281 HD
HETATM   28  C   UNL     1      45.190 -28.411  -1.500  1.00  0.00     0.237 C 
HETATM   29  C   UNL     1      44.037 -29.403  -1.566  1.00  0.00     0.028 C 
HETATM   30  C   UNL     1      44.091 -30.251  -2.833  1.00  0.00     0.003 C 
HETATM   31  C   UNL     1      45.448 -30.928  -2.992  1.00  0.00     0.028 C 
HETATM   32  C   UNL     1      46.595 -29.931  -2.902  1.00  0.00     0.237 C 
ENDBRANCH  25  26
ENDBRANCH   4  25
TORSDOF 7
ENDMDL
MODEL 8
REMARK VINA RESULT:      -7.4      4.284      7.350
REMARK  7 active torsions:
REMARK  status: ('A' for Active; 'I' for Inactive)
REMARK    1  A    between atoms: O_2  and  C_3 
REMARK    2  A    between atoms: C_6  and  C_7 
REMARK    3  A    between atoms: C_7  and  C_8 
REMARK    4  A    between atoms: C_8  and  C_9 
REMARK    5  A    between atoms: C_9  and  O_10 
REMARK    6  A    between atoms: N_13  and  C_14 
REMARK    7  A    between atoms: C_14  and  N_15 
ROOT
HETATM    1  C   UNL     1      39.695 -13.356   2.341  1.00  0.00     0.175 C 
HETATM    2  C   UNL     1      39.512 -12.655   0.949  1.00  0.00     0.265 C 
HETATM    3  O   UNL     1      39.891 -12.990  -0.165  1.00  0.00    -0.269 OA
HETATM    4  N   UNL     1      38.787 -11.474   1.158  1.00  0.00    -0.289 N 
HETATM    5  C   UNL     1      38.845 -11.125   2.515  1.00  0.00     0.049 A 
HETATM    6  C   UNL     1      39.430 -12.169   3.249  1.00  0.00     0.014 A 
HETATM    7  C   UNL     1      38.455  -9.943   3.121  1.00  0.00     0.032 A 
HETATM    8  C   UNL     1      38.661  -9.817   4.499  1.00  0.00     0.021 A 
HETATM    9  C   UNL     1      39.244 -10.861   5.235  1.00  0.00     0.011 A 
HETATM   10 BR   UNL     1      39.504 -10.653   7.096  1.00  0.00    -0.051 Br
HETATM   11  C   UNL     1      39.628 -12.053   4.617  1.00  0.00     0.032 A 
ENDROOT
BRANCH   1  12
HETATM   12  C   UNL     1      41.074 -14.000   2.485  1.00  0.00     0.137 C 
BRANCH  12  13
HETATM   13  C   UNL     1      41.062 -15.480   2.120  1.00  0.00     0.163 C 
HETATM   14  O   UNL     1      40.322 -15.944   1.255  1.00  0.00    -0.292 OA
BRANCH  13  15
HETATM   15  C   UNL     1      42.000 -16.409   2.823  1.00  0.00     0.010 A 
HETATM   16  C   UNL     1      42.807 -17.331   2.147  1.00  0.00     0.018 A 
HETATM   17  C   UNL     1      43.667 -18.176   2.864  1.00  0.00     0.037 A 
HETATM   18  C   UNL     1      43.726 -18.108   4.257  1.00  0.00     0.068 A 
HETATM   19  C   UNL     1      42.917 -17.193   4.929  1.00  0.00     0.037 A 
HETATM   20  C   UNL     1      42.061 -16.347   4.221  1.00  0.00     0.018 A 
BRANCH  18  21
HETATM   21  O   UNL     1      44.516 -18.871   5.069  1.00  0.00    -0.356 OA
HETATM   22  C   UNL     1      44.174 -20.244   5.209  1.00  0.00     0.210 C 
ENDBRANCH  18  21
ENDBRANCH  13  15
ENDBRANCH  12  13
ENDBRANCH   1  12
BRANCH   1  23
HETATM   23  O   UNL     1      38.673 -14.302   2.636  1.00  0.00    -0.375 OA
HETATM   24  H   UNL     1      38.785 -15.101   2.096  1.00  0.00     0.211 HD
ENDBRANCH   1  23
BRANCH   4  25
HETATM   25  C   UNL     1      38.506 -10.546   0.100  1.00  0.00     0.367 C 
BRANCH  25  26
HETATM   26  N   UNL     1      39.752 -10.186  -0.652  1.00  0.00    -0.055 N 
HETATM   27  H   UNL     1      40.345 -11.036  -0.551  1.00  0.00     0.281 HD
HETATM   28  C   UNL     1      39.555 -10.006  -2.134  1.00  0.00     0.237 C 
HETATM   29  C   UNL     1      40.918  -9.905  -2.805  1.00  0.00     0.028 C 
HETATM   30  C   UNL     1      41.762  -8.786  -2.203  1.00  0.00     0.003 C 
HETATM   31  C   UNL     1      41.870  -8.923  -0.688  1.00  0.00     0.028 C 
HETATM   32  C   UNL     1      40.503  -9.047  -0.030  1.00  0.00     0.237 C 
ENDBRANCH  25  26
ENDBRANCH   4  25
TORSDOF 7
ENDMDL
MODEL 9
REMARK VINA RESULT:      -7.4      3.160      7.334
REMARK  7 active torsions:
REMARK  status: ('A' for Active; 'I' for Inactive)
REMARK    1  A    between atoms: O_2  and  C_3 
REMARK    2  A    between atoms: C_6  and  C_7 
REMARK    3  A    between atoms: C_7  and  C_8 
REMARK    4  A    between atoms: C_8  and  C_9 
REMARK    5  A    between atoms: C_9  and  O_10 
REMARK    6  A    between atoms: N_13  and  C_14 
REMARK    7  A    between atoms: C_14  and  N_15 
ROOT
HETATM    1  C   UNL     1      40.464 -12.672   5.750  1.00  0.00     0.175 C 
HETATM    2  C   UNL     1      41.221 -11.297   5.769  1.00  0.00     0.265 C 
HETATM    3  O   UNL     1      40.905 -10.210   5.306  1.00  0.00    -0.269 OA
HETATM    4  N   UNL     1      42.431 -11.486   6.451  1.00  0.00    -0.289 N 
HETATM    5  C   UNL     1      42.729 -12.856   6.501  1.00  0.00     0.049 A 
HETATM    6  C   UNL     1      41.631 -13.598   6.038  1.00  0.00     0.014 A 
HETATM    7  C   UNL     1      43.909 -13.469   6.887  1.00  0.00     0.032 A 
HETATM    8  C   UNL     1      43.976 -14.864   6.802  1.00  0.00     0.021 A 
HETATM    9  C   UNL     1      42.878 -15.609   6.342  1.00  0.00     0.011 A 
HETATM   10 BR   UNL     1      43.008 -17.492   6.245  1.00  0.00    -0.051 Br
HETATM   11  C   UNL     1      41.690 -14.982   5.962  1.00  0.00     0.032 A 
ENDROOT
BRANCH   1  12
HETATM   12  C   UNL     1      39.744 -12.914   4.423  1.00  0.00     0.137 C 
BRANCH  12  13
HETATM   13  C   UNL     1      40.707 -12.972   3.244  1.00  0.00     0.163 C 
HETATM   14  O   UNL     1      41.022 -11.977   2.596  1.00  0.00    -0.292 OA
BRANCH  13  15
HETATM   15  C   UNL     1      41.315 -14.286   2.867  1.00  0.00     0.010 A 
HETATM   16  C   UNL     1      40.561 -15.452   2.698  1.00  0.00     0.018 A 
HETATM   17  C   UNL     1      41.190 -16.656   2.342  1.00  0.00     0.037 A 
HETATM   18  C   UNL     1      42.572 -16.702   2.156  1.00  0.00     0.068 A 
HETATM   19  C   UNL     1      43.322 -15.540   2.330  1.00  0.00     0.037 A 
HETATM   20  C   UNL     1      42.702 -14.339   2.681  1.00  0.00     0.018 A 
BRANCH  18  21
HETATM   21  O   UNL     1      43.303 -17.803   1.812  1.00  0.00    -0.356 OA
HETATM   22  C   UNL     1      43.918 -18.533   2.866  1.00  0.00     0.210 C 
ENDBRANCH  18  21
ENDBRANCH  13  15
ENDBRANCH  12  13
ENDBRANCH   1  12
BRANCH   1  23
HETATM   23  O   UNL     1      39.563 -12.836   6.840  1.00  0.00    -0.375 OA
HETATM   24  H   UNL     1      40.020 -13.230   7.601  1.00  0.00     0.211 HD
ENDBRANCH   1  23
BRANCH   4  25
HETATM   25  C   UNL     1      43.408 -10.444   6.587  1.00  0.00     0.367 C 
BRANCH  25  26
HETATM   26  N   UNL     1      43.768 -10.223   8.026  1.00  0.00    -0.055 N 
HETATM   27  H   UNL     1      43.867 -11.190   8.398  1.00  0.00     0.281 HD
HETATM   28  C   UNL     1      45.106  -9.569   8.240  1.00  0.00     0.237 C 
HETATM   29  C   UNL     1      45.460  -9.639   9.719  1.00  0.00     0.028 C 
HETATM   30  C   UNL     1      44.375  -9.012  10.590  1.00  0.00     0.003 C 
HETATM   31  C   UNL     1      43.006  -9.613  10.291  1.00  0.00     0.028 C 
HETATM   32  C   UNL     1      42.672  -9.559   8.807  1.00  0.00     0.237 C 
ENDBRANCH  25  26
ENDBRANCH   4  25
TORSDOF 7
ENDMDL
MODEL 10
REMARK VINA RESULT:      -7.3      3.411      6.835
REMARK  7 active torsions:
REMARK  status: ('A' for Active; 'I' for Inactive)
REMARK    1  A    between atoms: O_2  and  C_3 
REMARK    2  A    between atoms: C_6  and  C_7 
REMARK    3  A    between atoms: C_7  and  C_8 
REMARK    4  A    between atoms: C_8  and  C_9 
REMARK    5  A    between atoms: C_9  and  O_10 
REMARK    6  A    between atoms: N_13  and  C_14 
REMARK    7  A    between atoms: C_14  and  N_15 
ROOT
HETATM    1  C   UNL     1      40.748 -13.360   2.099  1.00  0.00     0.175 C 
HETATM    2  C   UNL     1      40.023 -12.323   3.026  1.00  0.00     0.265 C 
HETATM    3  O   UNL     1      40.048 -12.190   4.242  1.00  0.00    -0.269 OA
HETATM    4  N   UNL     1      39.261 -11.478   2.207  1.00  0.00    -0.289 N 
HETATM    5  C   UNL     1      39.076 -12.084   0.955  1.00  0.00     0.049 A 
HETATM    6  C   UNL     1      39.877 -13.233   0.862  1.00  0.00     0.014 A 
HETATM    7  C   UNL     1      38.226 -11.707  -0.070  1.00  0.00     0.032 A 
HETATM    8  C   UNL     1      38.188 -12.511  -1.214  1.00  0.00     0.021 A 
HETATM    9  C   UNL     1      38.991 -13.659  -1.311  1.00  0.00     0.011 A 
HETATM   10 BR   UNL     1      38.912 -14.718  -2.875  1.00  0.00    -0.051 Br
HETATM   11  C   UNL     1      39.851 -14.028  -0.275  1.00  0.00     0.032 A 
ENDROOT
BRANCH   1  12
HETATM   12  C   UNL     1      40.800 -14.754   2.725  1.00  0.00     0.137 C 
BRANCH  12  13
HETATM   13  C   UNL     1      42.121 -15.018   3.439  1.00  0.00     0.163 C 
HETATM   14  O   UNL     1      42.746 -14.137   4.024  1.00  0.00    -0.292 OA
BRANCH  13  15
HETATM   15  C   UNL     1      42.676 -16.407   3.449  1.00  0.00     0.010 A 
HETATM   16  C   UNL     1      42.629 -17.253   2.336  1.00  0.00     0.018 A 
HETATM   17  C   UNL     1      43.168 -18.547   2.408  1.00  0.00     0.037 A 
HETATM   18  C   UNL     1      43.753 -19.004   3.590  1.00  0.00     0.068 A 
HETATM   19  C   UNL     1      43.794 -18.161   4.700  1.00  0.00     0.037 A 
HETATM   20  C   UNL     1      43.262 -16.872   4.633  1.00  0.00     0.018 A 
BRANCH  18  21
HETATM   21  O   UNL     1      44.310 -20.235   3.791  1.00  0.00    -0.356 OA
HETATM   22  C   UNL     1      44.356 -20.718   5.128  1.00  0.00     0.210 C 
ENDBRANCH  18  21
ENDBRANCH  13  15
ENDBRANCH  12  13
ENDBRANCH   1  12
BRANCH   1  23
HETATM   23  O   UNL     1      42.050 -12.948   1.699  1.00  0.00    -0.375 OA
HETATM   24  H   UNL     1      42.032 -12.600   0.792  1.00  0.00     0.211 HD
ENDBRANCH   1  23
BRANCH   4  25
HETATM   25  C   UNL     1      38.407 -10.455   2.739  1.00  0.00     0.367 C 
BRANCH  25  26
HETATM   26  N   UNL     1      39.142  -9.590   3.719  1.00  0.00    -0.055 N 
HETATM   27  H   UNL     1      39.821 -10.247   4.154  1.00  0.00     0.281 HD
HETATM   28  C   UNL     1      39.975  -8.506   3.089  1.00  0.00     0.237 C 
HETATM   29  C   UNL     1      40.859  -7.878   4.158  1.00  0.00     0.028 C 
HETATM   30  C   UNL     1      40.040  -7.355   5.334  1.00  0.00     0.003 C 
HETATM   31  C   UNL     1      39.124  -8.437   5.899  1.00  0.00     0.028 C 
HETATM   32  C   UNL     1      38.262  -9.073   4.818  1.00  0.00     0.237 C 
ENDBRANCH  25  26
ENDBRANCH   4  25
TORSDOF 7
ENDMDL
