MODEL 1
REMARK VINA RESULT:      -8.3      0.000      0.000
REMARK  7 active torsions:
REMARK  status: ('A' for Active; 'I' for Inactive)
REMARK    1  A    between atoms: C_3  and  C_4 
REMARK    2  A    between atoms: N_5  and  C_7 
REMARK    3  A    between atoms: N_10  and  C_11 
REMARK    4  A    between atoms: C_14  and  C_15 
REMARK       I    between atoms: C_15  and  N_16 
REMARK    5  A    between atoms: N_16  and  C_17 
REMARK    6  A    between atoms: C_17  and  C_18 
REMARK    7  A    between atoms: C_18  and  N_19 
ROOT
HETATM    1  C   UNL     1      41.613 -16.454   3.378  1.00  0.00     0.192 C 
HETATM    2  C   UNL     1      40.259 -15.851   3.050  1.00  0.00     0.053 C 
HETATM    3  C   UNL     1      40.316 -14.412   2.575  1.00  0.00     0.125 C 
HETATM    4  N   UNL     1      41.270 -14.248   1.459  1.00  0.00    -0.381 N 
HETATM    5  C   UNL     1      42.612 -14.822   1.640  1.00  0.00     0.125 C 
HETATM    6  C   UNL     1      42.593 -16.231   2.224  1.00  0.00     0.053 C 
ENDROOT
BRANCH   4   7
HETATM    7  C   UNL     1      41.212 -12.962   0.854  1.00  0.00     0.030 A 
HETATM    8  C   UNL     1      40.864 -12.759  -0.495  1.00  0.00     0.030 A 
HETATM    9  C   UNL     1      40.903 -11.490  -1.095  1.00  0.00     0.019 A 
HETATM   10  C   UNL     1      41.275 -10.376  -0.346  1.00  0.00     0.032 A 
HETATM   11  C   UNL     1      41.561 -10.530   1.008  1.00  0.00     0.019 A 
HETATM   12  C   UNL     1      41.501 -11.800   1.597  1.00  0.00     0.030 A 
BRANCH  10  13
HETATM   13  C   UNL     1      41.466  -9.048  -0.972  1.00  0.00     0.251 C 
HETATM   14  N   UNL     1      42.531  -8.295  -0.536  1.00  0.00    -0.355 N 
HETATM   15  H   UNL     1      43.137  -8.706   0.170  1.00  0.00     0.162 HD
HETATM   16  O   UNL     1      40.690  -8.658  -1.840  1.00  0.00    -0.268 OA
BRANCH  14  17
HETATM   17  C   UNL     1      42.705  -6.868  -0.797  1.00  0.00     0.150 C 
BRANCH  17  18
HETATM   18  C   UNL     1      43.721  -6.467  -1.892  1.00  0.00     0.254 C 
BRANCH  18  19
HETATM   19  N   UNL     1      43.073  -5.899  -3.130  1.00  0.00    -0.066 N 
HETATM   20  H   UNL     1      43.687  -5.110  -3.430  1.00  0.00     0.280 HD
HETATM   21  C   UNL     1      42.998  -6.846  -4.315  1.00  0.00     0.261 C 
HETATM   22  C   UNL     1      42.394  -6.112  -5.520  1.00  0.00     0.195 C 
HETATM   23  O   UNL     1      41.099  -5.589  -5.205  1.00  0.00    -0.388 OA
HETATM   24  C   UNL     1      41.166  -4.639  -4.135  1.00  0.00     0.195 C 
HETATM   25  C   UNL     1      41.709  -5.288  -2.856  1.00  0.00     0.261 C 
ENDBRANCH  18  19
ENDBRANCH  17  18
ENDBRANCH  14  17
ENDBRANCH  10  13
ENDBRANCH   4   7
BRANCH   1  26
HETATM   26  N   UNL     1      42.225 -16.104   4.745  1.00  0.00    -0.056 N 
HETATM   27  C   UNL     1      43.631 -16.729   4.982  1.00  0.00     0.257 C 
HETATM   28  C   UNL     1      44.280 -15.972   6.155  1.00  0.00     0.041 C 
HETATM   29  C   UNL     1      43.425 -15.993   7.420  1.00  0.00     0.004 C 
HETATM   30  C   UNL     1      42.020 -15.482   7.143  1.00  0.00     0.028 C 
HETATM   31  C   UNL     1      41.356 -16.207   5.978  1.00  0.00     0.236 C 
HETATM   32  H   UNL     1      42.435 -15.103   4.663  1.00  0.00     0.281 HD
BRANCH  27  33
HETATM   33  C   UNL     1      43.657 -18.217   5.224  1.00  0.00     0.136 A 
HETATM   34  N   UNL     1      44.017 -19.156   4.278  1.00  0.00    -0.346 N 
HETATM   35  C   UNL     1      44.431 -18.921   2.914  1.00  0.00     0.157 C 
HETATM   36  C   UNL     1      43.940 -20.389   4.863  1.00  0.00     0.111 A 
HETATM   37  C   UNL     1      43.549 -20.158   6.157  1.00  0.00     0.136 A 
HETATM   38  N   UNL     1      43.375 -18.816   6.370  1.00  0.00    -0.244 NA
ENDBRANCH  27  33
ENDBRANCH   1  26
TORSDOF 7
ENDMDL
MODEL 2
REMARK VINA RESULT:      -8.1      7.802     12.149
REMARK  7 active torsions:
REMARK  status: ('A' for Active; 'I' for Inactive)
REMARK    1  A    between atoms: C_3  and  C_4 
REMARK    2  A    between atoms: N_5  and  C_7 
REMARK    3  A    between atoms: N_10  and  C_11 
REMARK    4  A    between atoms: C_14  and  C_15 
REMARK       I    between atoms: C_15  and  N_16 
REMARK    5  A    between atoms: N_16  and  C_17 
REMARK    6  A    between atoms: C_17  and  C_18 
REMARK    7  A    between atoms: C_18  and  N_19 
ROOT
HETATM    1  C   UNL     1      43.451  -8.260  10.873  1.00  0.00     0.192 C 
HETATM    2  C   UNL     1      44.381  -9.454  10.759  1.00  0.00     0.053 C 
HETATM    3  C   UNL     1      43.977 -10.461   9.700  1.00  0.00     0.125 C 
HETATM    4  N   UNL     1      43.763  -9.812   8.391  1.00  0.00    -0.381 N 
HETATM    5  C   UNL     1      42.905  -8.618   8.372  1.00  0.00     0.125 C 
HETATM    6  C   UNL     1      43.212  -7.635   9.496  1.00  0.00     0.053 C 
ENDROOT
BRANCH   4   7
HETATM    7  C   UNL     1      43.575 -10.739   7.329  1.00  0.00     0.030 A 
HETATM    8  C   UNL     1      42.449 -10.726   6.484  1.00  0.00     0.030 A 
HETATM    9  C   UNL     1      42.238 -11.707   5.501  1.00  0.00     0.019 A 
HETATM   10  C   UNL     1      43.172 -12.725   5.322  1.00  0.00     0.032 A 
HETATM   11  C   UNL     1      44.330 -12.732   6.095  1.00  0.00     0.019 A 
HETATM   12  C   UNL     1      44.534 -11.736   7.060  1.00  0.00     0.030 A 
BRANCH  10  13
HETATM   13  C   UNL     1      42.921 -13.855   4.398  1.00  0.00     0.251 C 
HETATM   14  N   UNL     1      42.360 -14.991   4.934  1.00  0.00    -0.355 N 
HETATM   15  H   UNL     1      42.128 -14.977   5.923  1.00  0.00     0.162 HD
HETATM   16  O   UNL     1      43.212 -13.756   3.210  1.00  0.00    -0.268 OA
BRANCH  14  17
HETATM   17  C   UNL     1      42.323 -16.293   4.271  1.00  0.00     0.150 C 
BRANCH  17  18
HETATM   18  C   UNL     1      43.569 -17.197   4.416  1.00  0.00     0.254 C 
BRANCH  18  19
HETATM   19  N   UNL     1      43.354 -18.600   3.904  1.00  0.00    -0.066 N 
HETATM   20  H   UNL     1      42.397 -18.870   4.220  1.00  0.00     0.280 HD
HETATM   21  C   UNL     1      43.352 -18.744   2.392  1.00  0.00     0.261 C 
HETATM   22  C   UNL     1      43.044 -20.199   2.016  1.00  0.00     0.195 C 
HETATM   23  O   UNL     1      43.992 -21.092   2.610  1.00  0.00    -0.388 OA
HETATM   24  C   UNL     1      43.953 -21.019   4.040  1.00  0.00     0.195 C 
HETATM   25  C   UNL     1      44.304 -19.609   4.528  1.00  0.00     0.261 C 
ENDBRANCH  18  19
ENDBRANCH  17  18
ENDBRANCH  14  17
ENDBRANCH  10  13
ENDBRANCH   4   7
BRANCH   1  26
HETATM   26  N   UNL     1      42.147  -8.457  11.663  1.00  0.00    -0.056 N 
HETATM   27  C   UNL     1      41.082  -7.351  11.403  1.00  0.00     0.257 C 
HETATM   28  C   UNL     1      39.728  -7.890  11.901  1.00  0.00     0.041 C 
HETATM   29  C   UNL     1      39.762  -8.317  13.366  1.00  0.00     0.004 C 
HETATM   30  C   UNL     1      40.881  -9.314  13.623  1.00  0.00     0.028 C 
HETATM   31  C   UNL     1      42.233  -8.812  13.130  1.00  0.00     0.236 C 
HETATM   32  H   UNL     1      41.724  -9.283  11.224  1.00  0.00     0.281 HD
BRANCH  27  33
HETATM   33  C   UNL     1      41.376  -6.000  12.005  1.00  0.00     0.136 A 
HETATM   34  N   UNL     1      40.971  -4.798  11.462  1.00  0.00    -0.346 N 
HETATM   35  C   UNL     1      40.209  -4.589  10.252  1.00  0.00     0.157 C 
HETATM   36  C   UNL     1      41.400  -3.799  12.290  1.00  0.00     0.111 A 
HETATM   37  C   UNL     1      42.041  -4.431  13.325  1.00  0.00     0.136 A 
HETATM   38  N   UNL     1      42.023  -5.788  13.140  1.00  0.00    -0.244 NA
ENDBRANCH  27  33
ENDBRANCH   1  26
TORSDOF 7
ENDMDL
MODEL 3
REMARK VINA RESULT:      -7.9     12.812     15.996
REMARK  7 active torsions:
REMARK  status: ('A' for Active; 'I' for Inactive)
REMARK    1  A    between atoms: C_3  and  C_4 
REMARK    2  A    between atoms: N_5  and  C_7 
REMARK    3  A    between atoms: N_10  and  C_11 
REMARK    4  A    between atoms: C_14  and  C_15 
REMARK       I    between atoms: C_15  and  N_16 
REMARK    5  A    between atoms: N_16  and  C_17 
REMARK    6  A    between atoms: C_17  and  C_18 
REMARK    7  A    between atoms: C_18  and  N_19 
ROOT
HETATM    1  C   UNL     1      40.652  -5.903  17.947  1.00  0.00     0.192 C 
HETATM    2  C   UNL     1      40.819  -5.192  16.617  1.00  0.00     0.053 C 
HETATM    3  C   UNL     1      41.705  -5.922  15.626  1.00  0.00     0.125 C 
HETATM    4  N   UNL     1      41.270  -7.322  15.443  1.00  0.00    -0.381 N 
HETATM    5  C   UNL     1      41.039  -8.112  16.662  1.00  0.00     0.125 C 
HETATM    6  C   UNL     1      40.246  -7.363  17.727  1.00  0.00     0.053 C 
ENDROOT
BRANCH   4   7
HETATM    7  C   UNL     1      41.946  -7.986  14.382  1.00  0.00     0.030 A 
HETATM    8  C   UNL     1      43.032  -7.421  13.687  1.00  0.00     0.030 A 
HETATM    9  C   UNL     1      43.625  -8.054  12.582  1.00  0.00     0.019 A 
HETATM   10  C   UNL     1      43.155  -9.294  12.155  1.00  0.00     0.032 A 
HETATM   11  C   UNL     1      42.126  -9.913  12.859  1.00  0.00     0.019 A 
HETATM   12  C   UNL     1      41.556  -9.276  13.970  1.00  0.00     0.030 A 
BRANCH  10  13
HETATM   13  C   UNL     1      43.656  -9.928  10.913  1.00  0.00     0.251 C 
HETATM   14  N   UNL     1      43.967  -9.094   9.865  1.00  0.00    -0.355 N 
HETATM   15  H   UNL     1      43.861  -8.094  10.014  1.00  0.00     0.162 HD
HETATM   16  O   UNL     1      43.775 -11.147  10.849  1.00  0.00    -0.268 OA
BRANCH  14  17
HETATM   17  C   UNL     1      44.174  -9.532   8.486  1.00  0.00     0.150 C 
BRANCH  17  18
HETATM   18  C   UNL     1      42.914  -9.744   7.615  1.00  0.00     0.254 C 
BRANCH  18  19
HETATM   19  N   UNL     1      42.707 -11.181   7.201  1.00  0.00    -0.066 N 
HETATM   20  H   UNL     1      42.117 -11.605   7.950  1.00  0.00     0.280 HD
HETATM   21  C   UNL     1      41.942 -11.377   5.903  1.00  0.00     0.261 C 
HETATM   22  C   UNL     1      41.737 -12.877   5.652  1.00  0.00     0.195 C 
HETATM   23  O   UNL     1      42.992 -13.565   5.612  1.00  0.00    -0.388 OA
HETATM   24  C   UNL     1      43.692 -13.448   6.856  1.00  0.00     0.195 C 
HETATM   25  C   UNL     1      43.998 -11.981   7.178  1.00  0.00     0.261 C 
ENDBRANCH  18  19
ENDBRANCH  17  18
ENDBRANCH  14  17
ENDBRANCH  10  13
ENDBRANCH   4   7
BRANCH   1  26
HETATM   26  N   UNL     1      41.791  -5.759  18.970  1.00  0.00    -0.056 N 
HETATM   27  C   UNL     1      41.820  -6.889  20.042  1.00  0.00     0.257 C 
HETATM   28  C   UNL     1      43.209  -6.858  20.705  1.00  0.00     0.041 C 
HETATM   29  C   UNL     1      43.551  -5.495  21.302  1.00  0.00     0.004 C 
HETATM   30  C   UNL     1      43.410  -4.390  20.268  1.00  0.00     0.028 C 
HETATM   31  C   UNL     1      42.047  -4.401  19.586  1.00  0.00     0.236 C 
HETATM   32  H   UNL     1      42.634  -5.952  18.418  1.00  0.00     0.281 HD
BRANCH  27  33
HETATM   33  C   UNL     1      40.728  -6.837  21.080  1.00  0.00     0.136 A 
HETATM   34  N   UNL     1      40.118  -7.949  21.627  1.00  0.00    -0.346 N 
HETATM   35  C   UNL     1      40.388  -9.337  21.333  1.00  0.00     0.157 C 
HETATM   36  C   UNL     1      39.200  -7.514  22.542  1.00  0.00     0.111 A 
HETATM   37  C   UNL     1      39.293  -6.145  22.533  1.00  0.00     0.136 A 
HETATM   38  N   UNL     1      40.237  -5.738  21.628  1.00  0.00    -0.244 NA
ENDBRANCH  27  33
ENDBRANCH   1  26
TORSDOF 7
ENDMDL
MODEL 4
REMARK VINA RESULT:      -7.8      8.863     11.823
REMARK  7 active torsions:
REMARK  status: ('A' for Active; 'I' for Inactive)
REMARK    1  A    between atoms: C_3  and  C_4 
REMARK    2  A    between atoms: N_5  and  C_7 
REMARK    3  A    between atoms: N_10  and  C_11 
REMARK    4  A    between atoms: C_14  and  C_15 
REMARK       I    between atoms: C_15  and  N_16 
REMARK    5  A    between atoms: N_16  and  C_17 
REMARK    6  A    between atoms: C_17  and  C_18 
REMARK    7  A    between atoms: C_18  and  N_19 
ROOT
HETATM    1  C   UNL     1      43.279 -12.396   5.651  1.00  0.00     0.192 C 
HETATM    2  C   UNL     1      42.637 -11.025   5.538  1.00  0.00     0.053 C 
HETATM    3  C   UNL     1      42.369 -10.349   6.868  1.00  0.00     0.125 C 
HETATM    4  N   UNL     1      43.582 -10.314   7.710  1.00  0.00    -0.381 N 
HETATM    5  C   UNL     1      44.318 -11.576   7.872  1.00  0.00     0.125 C 
HETATM    6  C   UNL     1      44.506 -12.338   6.564  1.00  0.00     0.053 C 
ENDROOT
BRANCH   4   7
HETATM    7  C   UNL     1      43.430  -9.520   8.881  1.00  0.00     0.030 A 
HETATM    8  C   UNL     1      44.034  -9.837  10.112  1.00  0.00     0.030 A 
HETATM    9  C   UNL     1      43.796  -9.091  11.278  1.00  0.00     0.019 A 
HETATM   10  C   UNL     1      42.954  -7.983  11.235  1.00  0.00     0.032 A 
HETATM   11  C   UNL     1      42.391  -7.600  10.021  1.00  0.00     0.019 A 
HETATM   12  C   UNL     1      42.652  -8.345   8.862  1.00  0.00     0.030 A 
BRANCH  10  13
HETATM   13  C   UNL     1      42.565  -7.256  12.466  1.00  0.00     0.251 C 
HETATM   14  N   UNL     1      42.117  -8.010  13.525  1.00  0.00    -0.355 N 
HETATM   15  H   UNL     1      42.105  -9.020  13.409  1.00  0.00     0.162 HD
HETATM   16  O   UNL     1      42.647  -6.032  12.510  1.00  0.00    -0.268 OA
BRANCH  14  17
HETATM   17  C   UNL     1      41.410  -7.476  14.686  1.00  0.00     0.150 C 
BRANCH  17  18
HETATM   18  C   UNL     1      42.268  -7.006  15.884  1.00  0.00     0.254 C 
BRANCH  18  19
HETATM   19  N   UNL     1      42.079  -5.547  16.220  1.00  0.00    -0.066 N 
HETATM   20  H   UNL     1      43.005  -5.098  16.050  1.00  0.00     0.280 HD
HETATM   21  C   UNL     1      41.085  -4.804  15.344  1.00  0.00     0.261 C 
HETATM   22  C   UNL     1      41.056  -3.323  15.745  1.00  0.00     0.195 C 
HETATM   23  O   UNL     1      40.722  -3.175  17.130  1.00  0.00    -0.388 OA
HETATM   24  C   UNL     1      41.692  -3.810  17.971  1.00  0.00     0.195 C 
HETATM   25  C   UNL     1      41.762  -5.316  17.688  1.00  0.00     0.261 C 
ENDBRANCH  18  19
ENDBRANCH  17  18
ENDBRANCH  14  17
ENDBRANCH  10  13
ENDBRANCH   4   7
BRANCH   1  26
HETATM   26  N   UNL     1      42.355 -13.579   5.983  1.00  0.00    -0.056 N 
HETATM   27  C   UNL     1      42.951 -14.967   5.601  1.00  0.00     0.257 C 
HETATM   28  C   UNL     1      42.141 -16.038   6.355  1.00  0.00     0.041 C 
HETATM   29  C   UNL     1      40.643 -15.961   6.069  1.00  0.00     0.004 C 
HETATM   30  C   UNL     1      40.102 -14.566   6.342  1.00  0.00     0.028 C 
HETATM   31  C   UNL     1      40.891 -13.483   5.616  1.00  0.00     0.236 C 
HETATM   32  H   UNL     1      42.361 -13.607   7.009  1.00  0.00     0.281 HD
BRANCH  27  33
HETATM   33  C   UNL     1      43.006 -15.276   4.126  1.00  0.00     0.136 A 
HETATM   34  N   UNL     1      43.417 -16.482   3.596  1.00  0.00    -0.346 N 
HETATM   35  C   UNL     1      43.860 -17.656   4.313  1.00  0.00     0.157 C 
HETATM   36  C   UNL     1      43.313 -16.398   2.236  1.00  0.00     0.111 A 
HETATM   37  C   UNL     1      42.823 -15.142   1.982  1.00  0.00     0.136 A 
HETATM   38  N   UNL     1      42.639 -14.457   3.154  1.00  0.00    -0.244 NA
ENDBRANCH  27  33
ENDBRANCH   1  26
TORSDOF 7
ENDMDL
MODEL 5
REMARK VINA RESULT:      -7.8     12.347     16.596
REMARK  7 active torsions:
REMARK  status: ('A' for Active; 'I' for Inactive)
REMARK    1  A    between atoms: C_3  and  C_4 
REMARK    2  A    between atoms: N_5  and  C_7 
REMARK    3  A    between atoms: N_10  and  C_11 
REMARK    4  A    between atoms: C_14  and  C_15 
REMARK       I    between atoms: C_15  and  N_16 
REMARK    5  A    between atoms: N_16  and  C_17 
REMARK    6  A    between atoms: C_17  and  C_18 
REMARK    7  A    between atoms: C_18  and  N_19 
ROOT
HETATM    1  C   UNL     1      41.459  -8.832  10.331  1.00  0.00     0.192 C 
HETATM    2  C   UNL     1      40.875  -9.722  11.413  1.00  0.00     0.053 C 
HETATM    3  C   UNL     1      41.122  -9.231  12.826  1.00  0.00     0.125 C 
HETATM    4  N   UNL     1      40.699  -7.825  12.992  1.00  0.00    -0.381 N 
HETATM    5  C   UNL     1      41.172  -6.865  11.984  1.00  0.00     0.125 C 
HETATM    6  C   UNL     1      41.042  -7.376  10.553  1.00  0.00     0.053 C 
ENDROOT
BRANCH   4   7
HETATM    7  C   UNL     1      40.729  -7.385  14.343  1.00  0.00     0.030 A 
HETATM    8  C   UNL     1      40.259  -6.123  14.754  1.00  0.00     0.030 A 
HETATM    9  C   UNL     1      40.383  -5.672  16.079  1.00  0.00     0.019 A 
HETATM   10  C   UNL     1      40.969  -6.492  17.041  1.00  0.00     0.032 A 
HETATM   11  C   UNL     1      41.385  -7.772  16.685  1.00  0.00     0.019 A 
HETATM   12  C   UNL     1      41.238  -8.214  15.363  1.00  0.00     0.030 A 
BRANCH  10  13
HETATM   13  C   UNL     1      41.247  -6.003  18.411  1.00  0.00     0.251 C 
HETATM   14  N   UNL     1      42.563  -5.963  18.808  1.00  0.00    -0.355 N 
HETATM   15  H   UNL     1      43.266  -6.245  18.129  1.00  0.00     0.162 HD
HETATM   16  O   UNL     1      40.323  -5.657  19.142  1.00  0.00    -0.268 OA
BRANCH  14  17
HETATM   17  C   UNL     1      43.012  -5.812  20.190  1.00  0.00     0.150 C 
BRANCH  17  18
HETATM   18  C   UNL     1      43.037  -7.085  21.068  1.00  0.00     0.254 C 
BRANCH  18  19
HETATM   19  N   UNL     1      41.716  -7.812  21.108  1.00  0.00    -0.066 N 
HETATM   20  H   UNL     1      41.041  -7.194  20.606  1.00  0.00     0.280 HD
HETATM   21  C   UNL     1      41.687  -9.144  20.377  1.00  0.00     0.261 C 
HETATM   22  C   UNL     1      40.268  -9.727  20.431  1.00  0.00     0.195 C 
HETATM   23  O   UNL     1      39.829  -9.880  21.785  1.00  0.00    -0.388 OA
HETATM   24  C   UNL     1      39.783  -8.620  22.465  1.00  0.00     0.195 C 
HETATM   25  C   UNL     1      41.171  -7.972  22.517  1.00  0.00     0.261 C 
ENDBRANCH  18  19
ENDBRANCH  17  18
ENDBRANCH  14  17
ENDBRANCH  10  13
ENDBRANCH   4   7
BRANCH   1  26
HETATM   26  N   UNL     1      42.962  -8.974  10.040  1.00  0.00    -0.056 N 
HETATM   27  C   UNL     1      43.376  -8.480   8.622  1.00  0.00     0.257 C 
HETATM   28  C   UNL     1      44.904  -8.285   8.631  1.00  0.00     0.041 C 
HETATM   29  C   UNL     1      45.661  -9.547   9.040  1.00  0.00     0.004 C 
HETATM   30  C   UNL     1      45.164 -10.077  10.376  1.00  0.00     0.028 C 
HETATM   31  C   UNL     1      43.653 -10.270  10.401  1.00  0.00     0.236 C 
HETATM   32  H   UNL     1      43.393  -8.275  10.656  1.00  0.00     0.281 HD
BRANCH  27  33
HETATM   33  C   UNL     1      42.954  -9.357   7.471  1.00  0.00     0.136 A 
HETATM   34  N   UNL     1      41.986  -9.020   6.547  1.00  0.00    -0.346 N 
HETATM   35  C   UNL     1      41.207  -7.804   6.488  1.00  0.00     0.157 C 
HETATM   36  C   UNL     1      41.892 -10.045   5.647  1.00  0.00     0.111 A 
HETATM   37  C   UNL     1      42.822 -10.970   6.046  1.00  0.00     0.136 A 
HETATM   38  N   UNL     1      43.471 -10.538   7.173  1.00  0.00    -0.244 NA
ENDBRANCH  27  33
ENDBRANCH   1  26
TORSDOF 7
ENDMDL
MODEL 6
REMARK VINA RESULT:      -7.8      7.985     12.199
REMARK  7 active torsions:
REMARK  status: ('A' for Active; 'I' for Inactive)
REMARK    1  A    between atoms: C_3  and  C_4 
REMARK    2  A    between atoms: N_5  and  C_7 
REMARK    3  A    between atoms: N_10  and  C_11 
REMARK    4  A    between atoms: C_14  and  C_15 
REMARK       I    between atoms: C_15  and  N_16 
REMARK    5  A    between atoms: N_16  and  C_17 
REMARK    6  A    between atoms: C_17  and  C_18 
REMARK    7  A    between atoms: C_18  and  N_19 
ROOT
HETATM    1  C   UNL     1      41.535  -7.293   9.874  1.00  0.00     0.192 C 
HETATM    2  C   UNL     1      42.774  -7.344   8.998  1.00  0.00     0.053 C 
HETATM    3  C   UNL     1      43.038  -8.697   8.367  1.00  0.00     0.125 C 
HETATM    4  N   UNL     1      41.847  -9.203   7.655  1.00  0.00    -0.381 N 
HETATM    5  C   UNL     1      40.572  -9.175   8.386  1.00  0.00     0.125 C 
HETATM    6  C   UNL     1      40.327  -7.864   9.127  1.00  0.00     0.053 C 
ENDROOT
BRANCH   4   7
HETATM    7  C   UNL     1      42.107 -10.372   6.887  1.00  0.00     0.030 A 
HETATM    8  C   UNL     1      43.377 -10.973   6.803  1.00  0.00     0.030 A 
HETATM    9  C   UNL     1      43.632 -12.072   5.966  1.00  0.00     0.019 A 
HETATM   10  C   UNL     1      42.603 -12.617   5.200  1.00  0.00     0.032 A 
HETATM   11  C   UNL     1      41.319 -12.090   5.309  1.00  0.00     0.019 A 
HETATM   12  C   UNL     1      41.078 -11.004   6.162  1.00  0.00     0.030 A 
BRANCH  10  13
HETATM   13  C   UNL     1      42.859 -13.681   4.201  1.00  0.00     0.251 C 
HETATM   14  N   UNL     1      42.893 -14.976   4.661  1.00  0.00    -0.355 N 
HETATM   15  H   UNL     1      42.715 -15.128   5.650  1.00  0.00     0.162 HD
HETATM   16  O   UNL     1      43.033 -13.390   3.022  1.00  0.00    -0.268 OA
BRANCH  14  17
HETATM   17  C   UNL     1      43.427 -16.111   3.911  1.00  0.00     0.150 C 
BRANCH  17  18
HETATM   18  C   UNL     1      43.921 -17.329   4.726  1.00  0.00     0.254 C 
BRANCH  18  19
HETATM   19  N   UNL     1      43.564 -18.655   4.099  1.00  0.00    -0.066 N 
HETATM   20  H   UNL     1      42.573 -18.834   4.370  1.00  0.00     0.280 HD
HETATM   21  C   UNL     1      43.596 -18.682   2.580  1.00  0.00     0.261 C 
HETATM   22  C   UNL     1      43.136 -20.059   2.083  1.00  0.00     0.195 C 
HETATM   23  O   UNL     1      43.955 -21.099   2.628  1.00  0.00    -0.388 OA
HETATM   24  C   UNL     1      43.878 -21.131   4.058  1.00  0.00     0.195 C 
HETATM   25  C   UNL     1      44.371 -19.812   4.664  1.00  0.00     0.261 C 
ENDBRANCH  18  19
ENDBRANCH  17  18
ENDBRANCH  14  17
ENDBRANCH  10  13
ENDBRANCH   4   7
BRANCH   1  26
HETATM   26  N   UNL     1      41.661  -7.852  11.301  1.00  0.00    -0.056 N 
HETATM   27  C   UNL     1      40.352  -7.737  12.137  1.00  0.00     0.257 C 
HETATM   28  C   UNL     1      40.491  -8.688  13.340  1.00  0.00     0.041 C 
HETATM   29  C   UNL     1      41.733  -8.404  14.182  1.00  0.00     0.004 C 
HETATM   30  C   UNL     1      42.990  -8.410  13.326  1.00  0.00     0.028 C 
HETATM   31  C   UNL     1      42.878  -7.485  12.120  1.00  0.00     0.236 C 
HETATM   32  H   UNL     1      41.747  -8.864  11.155  1.00  0.00     0.281 HD
BRANCH  27  33
HETATM   33  C   UNL     1      39.981  -6.348  12.591  1.00  0.00     0.136 A 
HETATM   34  N   UNL     1      38.685  -5.903  12.763  1.00  0.00    -0.346 N 
HETATM   35  C   UNL     1      37.463  -6.645  12.556  1.00  0.00     0.157 C 
HETATM   36  C   UNL     1      38.743  -4.609  13.199  1.00  0.00     0.111 A 
HETATM   37  C   UNL     1      40.078  -4.313  13.295  1.00  0.00     0.136 A 
HETATM   38  N   UNL     1      40.834  -5.391  12.916  1.00  0.00    -0.244 NA
ENDBRANCH  27  33
ENDBRANCH   1  26
TORSDOF 7
ENDMDL
MODEL 7
REMARK VINA RESULT:      -7.6      5.976     10.905
REMARK  7 active torsions:
REMARK  status: ('A' for Active; 'I' for Inactive)
REMARK    1  A    between atoms: C_3  and  C_4 
REMARK    2  A    between atoms: N_5  and  C_7 
REMARK    3  A    between atoms: N_10  and  C_11 
REMARK    4  A    between atoms: C_14  and  C_15 
REMARK       I    between atoms: C_15  and  N_16 
REMARK    5  A    between atoms: N_16  and  C_17 
REMARK    6  A    between atoms: C_17  and  C_18 
REMARK    7  A    between atoms: C_18  and  N_19 
ROOT
HETATM    1  C   UNL     1      40.133 -13.642   1.110  1.00  0.00     0.192 C 
HETATM    2  C   UNL     1      41.530 -14.167   1.387  1.00  0.00     0.053 C 
HETATM    3  C   UNL     1      42.289 -13.393   2.448  1.00  0.00     0.125 C 
HETATM    4  N   UNL     1      41.500 -13.263   3.690  1.00  0.00    -0.381 N 
HETATM    5  C   UNL     1      40.113 -12.794   3.552  1.00  0.00     0.125 C 
HETATM    6  C   UNL     1      39.354 -13.475   2.418  1.00  0.00     0.053 C 
ENDROOT
BRANCH   4   7
HETATM    7  C   UNL     1      42.244 -12.718   4.772  1.00  0.00     0.030 A 
HETATM    8  C   UNL     1      43.280 -13.413   5.424  1.00  0.00     0.030 A 
HETATM    9  C   UNL     1      43.939 -12.893   6.550  1.00  0.00     0.019 A 
HETATM   10  C   UNL     1      43.588 -11.639   7.045  1.00  0.00     0.032 A 
HETATM   11  C   UNL     1      42.613 -10.895   6.386  1.00  0.00     0.019 A 
HETATM   12  C   UNL     1      41.977 -11.420   5.253  1.00  0.00     0.030 A 
BRANCH  10  13
HETATM   13  C   UNL     1      44.156 -11.116   8.309  1.00  0.00     0.251 C 
HETATM   14  N   UNL     1      43.269 -10.645   9.248  1.00  0.00    -0.355 N 
HETATM   15  H   UNL     1      42.278 -10.707   9.029  1.00  0.00     0.162 HD
HETATM   16  O   UNL     1      45.371 -11.114   8.484  1.00  0.00    -0.268 OA
BRANCH  14  17
HETATM   17  C   UNL     1      43.635  -9.822  10.399  1.00  0.00     0.150 C 
BRANCH  17  18
HETATM   18  C   UNL     1      43.580 -10.491  11.792  1.00  0.00     0.254 C 
BRANCH  18  19
HETATM   19  N   UNL     1      42.875  -9.653  12.831  1.00  0.00    -0.066 N 
HETATM   20  H   UNL     1      43.199 -10.020  13.753  1.00  0.00     0.280 HD
HETATM   21  C   UNL     1      43.229  -8.176  12.821  1.00  0.00     0.261 C 
HETATM   22  C   UNL     1      42.506  -7.468  13.974  1.00  0.00     0.195 C 
HETATM   23  O   UNL     1      41.090  -7.652  13.880  1.00  0.00    -0.388 OA
HETATM   24  C   UNL     1      40.737  -9.038  13.962  1.00  0.00     0.195 C 
HETATM   25  C   UNL     1      41.367  -9.834  12.813  1.00  0.00     0.261 C 
ENDBRANCH  18  19
ENDBRANCH  17  18
ENDBRANCH  14  17
ENDBRANCH  10  13
ENDBRANCH   4   7
BRANCH   1  26
HETATM   26  N   UNL     1      40.013 -12.413   0.194  1.00  0.00    -0.056 N 
HETATM   27  C   UNL     1      38.673 -12.348  -0.598  1.00  0.00     0.257 C 
HETATM   28  C   UNL     1      38.515 -10.907  -1.116  1.00  0.00     0.041 C 
HETATM   29  C   UNL     1      39.701 -10.447  -1.961  1.00  0.00     0.004 C 
HETATM   30  C   UNL     1      41.012 -10.622  -1.211  1.00  0.00     0.028 C 
HETATM   31  C   UNL     1      41.192 -12.038  -0.676  1.00  0.00     0.236 C 
HETATM   32  H   UNL     1      39.923 -11.631   0.853  1.00  0.00     0.281 HD
BRANCH  27  33
HETATM   33  C   UNL     1      38.525 -13.342  -1.722  1.00  0.00     0.136 A 
HETATM   34  N   UNL     1      37.558 -13.271  -2.704  1.00  0.00    -0.346 N 
HETATM   35  C   UNL     1      36.528 -12.269  -2.858  1.00  0.00     0.157 C 
HETATM   36  C   UNL     1      37.748 -14.324  -3.555  1.00  0.00     0.111 A 
HETATM   37  C   UNL     1      38.841 -14.996  -3.069  1.00  0.00     0.136 A 
HETATM   38  N   UNL     1      39.312 -14.384  -1.937  1.00  0.00    -0.244 NA
ENDBRANCH  27  33
ENDBRANCH   1  26
TORSDOF 7
ENDMDL
MODEL 8
REMARK VINA RESULT:      -7.4      8.226     12.000
REMARK  7 active torsions:
REMARK  status: ('A' for Active; 'I' for Inactive)
REMARK    1  A    between atoms: C_3  and  C_4 
REMARK    2  A    between atoms: N_5  and  C_7 
REMARK    3  A    between atoms: N_10  and  C_11 
REMARK    4  A    between atoms: C_14  and  C_15 
REMARK       I    between atoms: C_15  and  N_16 
REMARK    5  A    between atoms: N_16  and  C_17 
REMARK    6  A    between atoms: C_17  and  C_18 
REMARK    7  A    between atoms: C_18  and  N_19 
ROOT
HETATM    1  C   UNL     1      40.127  -7.436  10.526  1.00  0.00     0.192 C 
HETATM    2  C   UNL     1      40.891  -6.969   9.300  1.00  0.00     0.053 C 
HETATM    3  C   UNL     1      41.396  -8.092   8.415  1.00  0.00     0.125 C 
HETATM    4  N   UNL     1      40.309  -9.027   8.056  1.00  0.00    -0.381 N 
HETATM    5  C   UNL     1      39.470  -9.526   9.155  1.00  0.00     0.125 C 
HETATM    6  C   UNL     1      39.038  -8.436  10.130  1.00  0.00     0.053 C 
ENDROOT
BRANCH   4   7
HETATM    7  C   UNL     1      40.691  -9.980   7.073  1.00  0.00     0.030 A 
HETATM    8  C   UNL     1      39.850 -11.025   6.643  1.00  0.00     0.030 A 
HETATM    9  C   UNL     1      40.280 -12.010   5.740  1.00  0.00     0.019 A 
HETATM   10  C   UNL     1      41.572 -11.962   5.220  1.00  0.00     0.032 A 
HETATM   11  C   UNL     1      42.409 -10.906   5.571  1.00  0.00     0.019 A 
HETATM   12  C   UNL     1      41.959  -9.921   6.460  1.00  0.00     0.030 A 
BRANCH  10  13
HETATM   13  C   UNL     1      42.111 -13.055   4.378  1.00  0.00     0.251 C 
HETATM   14  N   UNL     1      41.345 -13.461   3.311  1.00  0.00    -0.355 N 
HETATM   15  H   UNL     1      40.469 -12.970   3.149  1.00  0.00     0.162 HD
HETATM   16  O   UNL     1      43.197 -13.560   4.645  1.00  0.00    -0.268 OA
BRANCH  14  17
HETATM   17  C   UNL     1      41.547 -14.700   2.564  1.00  0.00     0.150 C 
BRANCH  17  18
HETATM   18  C   UNL     1      41.227 -16.026   3.294  1.00  0.00     0.254 C 
BRANCH  18  19
HETATM   19  N   UNL     1      42.357 -16.518   4.165  1.00  0.00    -0.066 N 
HETATM   20  H   UNL     1      43.054 -15.742   4.184  1.00  0.00     0.280 HD
HETATM   21  C   UNL     1      41.988 -16.786   5.614  1.00  0.00     0.261 C 
HETATM   22  C   UNL     1      43.243 -17.199   6.394  1.00  0.00     0.195 C 
HETATM   23  O   UNL     1      43.856 -18.351   5.804  1.00  0.00    -0.388 OA
HETATM   24  C   UNL     1      44.275 -18.089   4.460  1.00  0.00     0.195 C 
HETATM   25  C   UNL     1      43.079 -17.718   3.575  1.00  0.00     0.261 C 
ENDBRANCH  18  19
ENDBRANCH  17  18
ENDBRANCH  14  17
ENDBRANCH  10  13
ENDBRANCH   4   7
BRANCH   1  26
HETATM   26  N   UNL     1      40.955  -7.915  11.730  1.00  0.00    -0.056 N 
HETATM   27  C   UNL     1      40.145  -7.992  13.058  1.00  0.00     0.257 C 
HETATM   28  C   UNL     1      40.952  -8.863  14.039  1.00  0.00     0.041 C 
HETATM   29  C   UNL     1      42.370  -8.346  14.264  1.00  0.00     0.004 C 
HETATM   30  C   UNL     1      43.108  -8.172  12.946  1.00  0.00     0.028 C 
HETATM   31  C   UNL     1      42.328  -7.321  11.950  1.00  0.00     0.236 C 
HETATM   32  H   UNL     1      41.135  -8.903  11.519  1.00  0.00     0.281 HD
BRANCH  27  33
HETATM   33  C   UNL     1      39.786  -6.669  13.687  1.00  0.00     0.136 A 
HETATM   34  N   UNL     1      38.565  -6.042  13.541  1.00  0.00    -0.346 N 
HETATM   35  C   UNL     1      37.420  -6.503  12.789  1.00  0.00     0.157 C 
HETATM   36  C   UNL     1      38.601  -4.884  14.267  1.00  0.00     0.111 A 
HETATM   37  C   UNL     1      39.844  -4.852  14.846  1.00  0.00     0.136 A 
HETATM   38  N   UNL     1      40.567  -5.957  14.481  1.00  0.00    -0.244 NA
ENDBRANCH  27  33
ENDBRANCH   1  26
TORSDOF 7
ENDMDL
MODEL 9
REMARK VINA RESULT:      -7.4      8.114     11.221
REMARK  7 active torsions:
REMARK  status: ('A' for Active; 'I' for Inactive)
REMARK    1  A    between atoms: C_3  and  C_4 
REMARK    2  A    between atoms: N_5  and  C_7 
REMARK    3  A    between atoms: N_10  and  C_11 
REMARK    4  A    between atoms: C_14  and  C_15 
REMARK       I    between atoms: C_15  and  N_16 
REMARK    5  A    between atoms: N_16  and  C_17 
REMARK    6  A    between atoms: C_17  and  C_18 
REMARK    7  A    between atoms: C_18  and  N_19 
ROOT
HETATM    1  C   UNL     1      42.264 -12.140   4.988  1.00  0.00     0.192 C 
HETATM    2  C   UNL     1      41.359 -10.941   5.213  1.00  0.00     0.053 C 
HETATM    3  C   UNL     1      41.416 -10.371   6.617  1.00  0.00     0.125 C 
HETATM    4  N   UNL     1      42.806 -10.088   7.029  1.00  0.00    -0.381 N 
HETATM    5  C   UNL     1      43.791 -11.161   6.830  1.00  0.00     0.125 C 
HETATM    6  C   UNL     1      43.685 -11.834   5.465  1.00  0.00     0.053 C 
ENDROOT
BRANCH   4   7
HETATM    7  C   UNL     1      42.894  -9.373   8.255  1.00  0.00     0.030 A 
HETATM    8  C   UNL     1      43.480  -9.907   9.419  1.00  0.00     0.030 A 
HETATM    9  C   UNL     1      43.473  -9.220  10.644  1.00  0.00     0.019 A 
HETATM   10  C   UNL     1      42.891  -7.957  10.731  1.00  0.00     0.032 A 
HETATM   11  C   UNL     1      42.361  -7.370   9.585  1.00  0.00     0.019 A 
HETATM   12  C   UNL     1      42.392  -8.061   8.366  1.00  0.00     0.030 A 
BRANCH  10  13
HETATM   13  C   UNL     1      42.737  -7.261  12.029  1.00  0.00     0.251 C 
HETATM   14  N   UNL     1      42.842  -8.026  13.167  1.00  0.00    -0.355 N 
HETATM   15  H   UNL     1      43.045  -9.015  13.049  1.00  0.00     0.162 HD
HETATM   16  O   UNL     1      42.523  -6.053  12.059  1.00  0.00    -0.268 OA
BRANCH  14  17
HETATM   17  C   UNL     1      42.421  -7.598  14.499  1.00  0.00     0.150 C 
BRANCH  17  18
HETATM   18  C   UNL     1      40.974  -7.937  14.927  1.00  0.00     0.254 C 
BRANCH  18  19
HETATM   19  N   UNL     1      40.016  -6.782  14.768  1.00  0.00    -0.066 N 
HETATM   20  H   UNL     1      40.601  -5.974  14.461  1.00  0.00     0.280 HD
HETATM   21  C   UNL     1      38.954  -6.963  13.697  1.00  0.00     0.261 C 
HETATM   22  C   UNL     1      38.109  -5.687  13.592  1.00  0.00     0.195 C 
HETATM   23  O   UNL     1      37.510  -5.365  14.852  1.00  0.00    -0.388 OA
HETATM   24  C   UNL     1      38.503  -5.120  15.855  1.00  0.00     0.195 C 
HETATM   25  C   UNL     1      39.375  -6.362  16.080  1.00  0.00     0.261 C 
ENDBRANCH  18  19
ENDBRANCH  17  18
ENDBRANCH  14  17
ENDBRANCH  10  13
ENDBRANCH   4   7
BRANCH   1  26
HETATM   26  N   UNL     1      41.758 -13.504   5.485  1.00  0.00    -0.056 N 
HETATM   27  C   UNL     1      42.213 -14.702   4.600  1.00  0.00     0.257 C 
HETATM   28  C   UNL     1      42.009 -15.987   5.424  1.00  0.00     0.041 C 
HETATM   29  C   UNL     1      40.573 -16.153   5.917  1.00  0.00     0.004 C 
HETATM   30  C   UNL     1      40.109 -14.926   6.685  1.00  0.00     0.028 C 
HETATM   31  C   UNL     1      40.309 -13.636   5.897  1.00  0.00     0.236 C 
HETATM   32  H   UNL     1      42.285 -13.653   6.353  1.00  0.00     0.281 HD
BRANCH  27  33
HETATM   33  C   UNL     1      41.544 -14.816   3.254  1.00  0.00     0.136 A 
HETATM   34  N   UNL     1      42.209 -14.771   2.045  1.00  0.00    -0.346 N 
HETATM   35  C   UNL     1      43.628 -14.613   1.824  1.00  0.00     0.157 C 
HETATM   36  C   UNL     1      41.283 -14.927   1.052  1.00  0.00     0.111 A 
HETATM   37  C   UNL     1      40.080 -15.080   1.693  1.00  0.00     0.136 A 
HETATM   38  N   UNL     1      40.251 -15.009   3.050  1.00  0.00    -0.244 NA
ENDBRANCH  27  33
ENDBRANCH   1  26
TORSDOF 7
ENDMDL
MODEL 10
REMARK VINA RESULT:      -7.2      5.421     10.873
REMARK  7 active torsions:
REMARK  status: ('A' for Active; 'I' for Inactive)
REMARK    1  A    between atoms: C_3  and  C_4 
REMARK    2  A    between atoms: N_5  and  C_7 
REMARK    3  A    between atoms: N_10  and  C_11 
REMARK    4  A    between atoms: C_14  and  C_15 
REMARK       I    between atoms: C_15  and  N_16 
REMARK    5  A    between atoms: N_16  and  C_17 
REMARK    6  A    between atoms: C_17  and  C_18 
REMARK    7  A    between atoms: C_18  and  N_19 
ROOT
HETATM    1  C   UNL     1      39.383 -12.947   0.243  1.00  0.00     0.192 C 
HETATM    2  C   UNL     1      40.141 -14.097   0.881  1.00  0.00     0.053 C 
HETATM    3  C   UNL     1      41.226 -13.668   1.850  1.00  0.00     0.125 C 
HETATM    4  N   UNL     1      40.704 -12.731   2.865  1.00  0.00    -0.381 N 
HETATM    5  C   UNL     1      39.919 -11.588   2.375  1.00  0.00     0.125 C 
HETATM    6  C   UNL     1      38.893 -11.969   1.313  1.00  0.00     0.053 C 
ENDROOT
BRANCH   4   7
HETATM    7  C   UNL     1      41.633 -12.456   3.906  1.00  0.00     0.030 A 
HETATM    8  C   UNL     1      42.504 -13.425   4.438  1.00  0.00     0.030 A 
HETATM    9  C   UNL     1      43.348 -13.157   5.528  1.00  0.00     0.019 A 
HETATM   10  C   UNL     1      43.356 -11.889   6.106  1.00  0.00     0.032 A 
HETATM   11  C   UNL     1      42.556 -10.887   5.564  1.00  0.00     0.019 A 
HETATM   12  C   UNL     1      41.733 -11.166   4.465  1.00  0.00     0.030 A 
BRANCH  10  13
HETATM   13  C   UNL     1      44.123 -11.605   7.342  1.00  0.00     0.251 C 
HETATM   14  N   UNL     1      43.431 -11.057   8.397  1.00  0.00    -0.355 N 
HETATM   15  H   UNL     1      42.434 -10.905   8.275  1.00  0.00     0.162 HD
HETATM   16  O   UNL     1      45.323 -11.854   7.394  1.00  0.00    -0.268 OA
BRANCH  14  17
HETATM   17  C   UNL     1      44.051 -10.430   9.562  1.00  0.00     0.150 C 
BRANCH  17  18
HETATM   18  C   UNL     1      43.247  -9.321  10.280  1.00  0.00     0.254 C 
BRANCH  18  19
HETATM   19  N   UNL     1      41.955  -9.814  10.885  1.00  0.00    -0.066 N 
HETATM   20  H   UNL     1      41.929 -10.839  10.691  1.00  0.00     0.280 HD
HETATM   21  C   UNL     1      41.850  -9.671  12.394  1.00  0.00     0.261 C 
HETATM   22  C   UNL     1      40.529 -10.283  12.876  1.00  0.00     0.195 C 
HETATM   23  O   UNL     1      39.412  -9.665  12.228  1.00  0.00    -0.388 OA
HETATM   24  C   UNL     1      39.461  -9.855  10.809  1.00  0.00     0.195 C 
HETATM   25  C   UNL     1      40.726  -9.226  10.213  1.00  0.00     0.261 C 
ENDBRANCH  18  19
ENDBRANCH  17  18
ENDBRANCH  14  17
ENDBRANCH  10  13
ENDBRANCH   4   7
BRANCH   1  26
HETATM   26  N   UNL     1      40.057 -12.233  -0.941  1.00  0.00    -0.056 N 
HETATM   27  C   UNL     1      39.492 -10.809  -1.219  1.00  0.00     0.257 C 
HETATM   28  C   UNL     1      40.511 -10.076  -2.111  1.00  0.00     0.041 C 
HETATM   29  C   UNL     1      40.819 -10.830  -3.403  1.00  0.00     0.004 C 
HETATM   30  C   UNL     1      41.262 -12.256  -3.115  1.00  0.00     0.028 C 
HETATM   31  C   UNL     1      40.278 -13.003  -2.224  1.00  0.00     0.236 C 
HETATM   32  H   UNL     1      41.003 -12.036  -0.595  1.00  0.00     0.281 HD
BRANCH  27  33
HETATM   33  C   UNL     1      38.112 -10.755  -1.824  1.00  0.00     0.136 A 
HETATM   34  N   UNL     1      37.218  -9.719  -1.638  1.00  0.00    -0.346 N 
HETATM   35  C   UNL     1      37.410  -8.517  -0.860  1.00  0.00     0.157 C 
HETATM   36  C   UNL     1      36.089 -10.009  -2.353  1.00  0.00     0.111 A 
HETATM   37  C   UNL     1      36.341 -11.210  -2.966  1.00  0.00     0.136 A 
HETATM   38  N   UNL     1      37.590 -11.662  -2.632  1.00  0.00    -0.244 NA
ENDBRANCH  27  33
ENDBRANCH   1  26
TORSDOF 7
ENDMDL
