MODEL 1
REMARK VINA RESULT:      -8.4      0.000      0.000
REMARK  10 active torsions:
REMARK  status: ('A' for Active; 'I' for Inactive)
REMARK    1  A    between atoms: C_6  and  C_7 
REMARK    2  A    between atoms: C_7  and  C_8 
REMARK       I    between atoms: C_8  and  N_9 
REMARK    3  A    between atoms: N_9  and  C_10 
REMARK    4  A    between atoms: C_10  and  C_11 
REMARK    5  A    between atoms: C_11  and  N_12 
REMARK    6  A    between atoms: C_19  and  C_20 
REMARK    7  A    between atoms: C_29  and  C_30 
REMARK    8  A    between atoms: C_30  and  O_31 
REMARK    9  A    between atoms: O_31  and  C_32 
REMARK   10  A    between atoms: C_32  and  C_33 
ROOT
HETATM    1  C   UNL     1      41.030 -15.842   6.788  1.00  0.00     0.071 C 
HETATM    2  C   UNL     1      40.497 -14.849   5.786  1.00  0.00     0.048 C 
HETATM    3  N   UNL     1      39.759 -13.804   6.358  1.00  0.00    -0.229 NA
HETATM    4  C   UNL     1      39.869 -12.653   5.773  1.00  0.00     0.170 C 
HETATM    5  N   UNL     1      40.546 -12.492   4.371  1.00  0.00    -0.319 N 
HETATM    6  C   UNL     1      41.356 -11.484   4.427  1.00  0.00     0.011 C 
HETATM    7  C   UNL     1      40.273 -13.737   3.631  1.00  0.00     0.166 C 
HETATM    8  S   UNL     1      39.617 -11.115   6.503  1.00  0.00    -0.086 SA
HETATM    9  C   UNL     1      41.011 -10.455   5.501  1.00  0.00     0.135 C 
HETATM   10  C   UNL     1      40.865 -14.815   4.481  1.00  0.00     0.069 C 
ENDROOT
BRANCH   6  11
HETATM   11  C   UNL     1      42.568 -11.400   3.545  1.00  0.00     0.156 C 
BRANCH  11  12
HETATM   12  C   UNL     1      43.859 -11.551   4.315  1.00  0.00     0.223 C 
HETATM   13  N   UNL     1      43.772 -11.846   5.660  1.00  0.00    -0.359 N 
HETATM   14  H   UNL     1      42.863 -11.913   6.118  1.00  0.00     0.162 HD
HETATM   15  O   UNL     1      44.936 -11.356   3.758  1.00  0.00    -0.273 OA
BRANCH  13  16
HETATM   16  C   UNL     1      45.013 -12.051   6.405  1.00  0.00     0.150 C 
BRANCH  16  17
HETATM   17  C   UNL     1      45.690 -10.783   6.951  1.00  0.00     0.254 C 
BRANCH  17  18
HETATM   18  N   UNL     1      44.760 -10.021   7.881  1.00  0.00    -0.070 N 
HETATM   19  H   UNL     1      44.004  -9.600   7.321  1.00  0.00     0.279 HD
HETATM   20  C   UNL     1      45.435  -8.889   8.650  1.00  0.00     0.235 C 
HETATM   21  C   UNL     1      45.490  -9.386  10.078  1.00  0.00     0.029 C 
HETATM   22  C   UNL     1      44.182 -10.134  10.221  1.00  0.00     0.029 C 
HETATM   23  C   UNL     1      44.083 -10.911   8.923  1.00  0.00     0.235 C 
ENDBRANCH  17  18
ENDBRANCH  16  17
ENDBRANCH  13  16
ENDBRANCH  11  12
ENDBRANCH   6  11
BRANCH   7  24
HETATM   24  C   UNL     1      40.386 -13.792   2.114  1.00  0.00    -0.030 A 
HETATM   25  C   UNL     1      40.675 -12.681   1.306  1.00  0.00     0.011 A 
HETATM   26  C   UNL     1      40.634 -12.770  -0.094  1.00  0.00     0.024 A 
HETATM   27  C   UNL     1      40.251 -13.954  -0.713  1.00  0.00     0.034 A 
HETATM   28 CL   UNL     1      40.169 -14.044  -2.425  1.00  0.00    -0.084 Cl
HETATM   29  C   UNL     1      39.898 -15.052   0.058  1.00  0.00     0.024 A 
HETATM   30  C   UNL     1      39.955 -14.966   1.452  1.00  0.00     0.011 A 
ENDBRANCH   7  24
BRANCH  10  31
HETATM   31  C   UNL     1      42.220 -15.263   4.124  1.00  0.00     0.294 C 
HETATM   32  O   UNL     1      43.177 -14.531   4.351  1.00  0.00    -0.259 OA
BRANCH  31  33
HETATM   33  O   UNL     1      42.202 -16.385   3.387  1.00  0.00    -0.314 OA
BRANCH  33  34
HETATM   34  C   UNL     1      43.262 -17.290   3.728  1.00  0.00     0.206 C 
BRANCH  34  35
HETATM   35  C   UNL     1      43.628 -18.078   2.514  1.00  0.00    -0.011 C 
HETATM   36  C   UNL     1      43.241 -19.341   2.297  1.00  0.00     0.009 C 
ENDBRANCH  34  35
ENDBRANCH  33  34
ENDBRANCH  31  33
ENDBRANCH  10  31
TORSDOF 10
ENDMDL
MODEL 2
REMARK VINA RESULT:      -7.9      3.200      5.028
REMARK  10 active torsions:
REMARK  status: ('A' for Active; 'I' for Inactive)
REMARK    1  A    between atoms: C_6  and  C_7 
REMARK    2  A    between atoms: C_7  and  C_8 
REMARK       I    between atoms: C_8  and  N_9 
REMARK    3  A    between atoms: N_9  and  C_10 
REMARK    4  A    between atoms: C_10  and  C_11 
REMARK    5  A    between atoms: C_11  and  N_12 
REMARK    6  A    between atoms: C_19  and  C_20 
REMARK    7  A    between atoms: C_29  and  C_30 
REMARK    8  A    between atoms: C_30  and  O_31 
REMARK    9  A    between atoms: O_31  and  C_32 
REMARK   10  A    between atoms: C_32  and  C_33 
ROOT
HETATM    1  C   UNL     1      42.140 -16.894   2.037  1.00  0.00     0.071 C 
HETATM    2  C   UNL     1      42.237 -15.446   2.446  1.00  0.00     0.048 C 
HETATM    3  N   UNL     1      41.576 -14.566   1.579  1.00  0.00    -0.229 NA
HETATM    4  C   UNL     1      41.027 -13.533   2.137  1.00  0.00     0.170 C 
HETATM    5  N   UNL     1      41.313 -13.140   3.626  1.00  0.00    -0.319 N 
HETATM    6  C   UNL     1      40.183 -12.872   4.197  1.00  0.00     0.011 C 
HETATM    7  C   UNL     1      42.700 -13.553   3.907  1.00  0.00     0.166 C 
HETATM    8  S   UNL     1      39.701 -12.628   1.517  1.00  0.00    -0.086 SA
HETATM    9  C   UNL     1      39.077 -12.439   3.237  1.00  0.00     0.135 C 
HETATM   10  C   UNL     1      42.712 -15.025   3.645  1.00  0.00     0.069 C 
ENDROOT
BRANCH   6  11
HETATM   11  C   UNL     1      39.986 -13.054   5.674  1.00  0.00     0.156 C 
BRANCH  11  12
HETATM   12  C   UNL     1      39.545 -11.782   6.362  1.00  0.00     0.223 C 
HETATM   13  N   UNL     1      40.522 -10.880   6.729  1.00  0.00    -0.359 N 
HETATM   14  H   UNL     1      41.508 -11.094   6.577  1.00  0.00     0.162 HD
HETATM   15  O   UNL     1      38.359 -11.605   6.628  1.00  0.00    -0.273 OA
BRANCH  13  16
HETATM   16  C   UNL     1      40.106  -9.621   7.343  1.00  0.00     0.150 C 
BRANCH  16  17
HETATM   17  C   UNL     1      40.600  -9.375   8.779  1.00  0.00     0.254 C 
BRANCH  17  18
HETATM   18  N   UNL     1      42.117  -9.415   8.853  1.00  0.00    -0.070 N 
HETATM   19  H   UNL     1      42.444 -10.308   8.455  1.00  0.00     0.279 HD
HETATM   20  C   UNL     1      42.677  -9.321  10.269  1.00  0.00     0.235 C 
HETATM   21  C   UNL     1      43.302  -7.945  10.334  1.00  0.00     0.029 C 
HETATM   22  C   UNL     1      43.887  -7.778   8.948  1.00  0.00     0.029 C 
HETATM   23  C   UNL     1      42.792  -8.309   8.044  1.00  0.00     0.235 C 
ENDBRANCH  17  18
ENDBRANCH  16  17
ENDBRANCH  13  16
ENDBRANCH  11  12
ENDBRANCH   6  11
BRANCH   7  24
HETATM   24  C   UNL     1      43.473 -12.965   5.079  1.00  0.00    -0.030 A 
HETATM   25  C   UNL     1      43.161 -13.203   6.426  1.00  0.00     0.011 A 
HETATM   26  C   UNL     1      43.830 -12.525   7.458  1.00  0.00     0.024 A 
HETATM   27  C   UNL     1      44.784 -11.558   7.162  1.00  0.00     0.034 A 
HETATM   28 CL   UNL     1      45.571 -10.709   8.429  1.00  0.00    -0.084 Cl
HETATM   29  C   UNL     1      45.069 -11.254   5.839  1.00  0.00     0.024 A 
HETATM   30  C   UNL     1      44.414 -11.941   4.813  1.00  0.00     0.011 A 
ENDBRANCH   7  24
BRANCH  10  31
HETATM   31  C   UNL     1      42.541 -15.902   4.813  1.00  0.00     0.294 C 
HETATM   32  O   UNL     1      41.423 -16.054   5.294  1.00  0.00    -0.259 OA
BRANCH  31  33
HETATM   33  O   UNL     1      43.718 -16.283   5.335  1.00  0.00    -0.314 OA
BRANCH  33  34
HETATM   34  C   UNL     1      44.170 -17.543   4.822  1.00  0.00     0.206 C 
BRANCH  34  35
HETATM   35  C   UNL     1      43.727 -18.625   5.749  1.00  0.00    -0.011 C 
HETATM   36  C   UNL     1      43.904 -19.932   5.514  1.00  0.00     0.009 C 
ENDBRANCH  34  35
ENDBRANCH  33  34
ENDBRANCH  31  33
ENDBRANCH  10  31
TORSDOF 10
ENDMDL
MODEL 3
REMARK VINA RESULT:      -7.6      2.560      3.863
REMARK  10 active torsions:
REMARK  status: ('A' for Active; 'I' for Inactive)
REMARK    1  A    between atoms: C_6  and  C_7 
REMARK    2  A    between atoms: C_7  and  C_8 
REMARK       I    between atoms: C_8  and  N_9 
REMARK    3  A    between atoms: N_9  and  C_10 
REMARK    4  A    between atoms: C_10  and  C_11 
REMARK    5  A    between atoms: C_11  and  N_12 
REMARK    6  A    between atoms: C_19  and  C_20 
REMARK    7  A    between atoms: C_29  and  C_30 
REMARK    8  A    between atoms: C_30  and  O_31 
REMARK    9  A    between atoms: O_31  and  C_32 
REMARK   10  A    between atoms: C_32  and  C_33 
ROOT
HETATM    1  C   UNL     1      42.120 -17.221   2.443  1.00  0.00     0.071 C 
HETATM    2  C   UNL     1      41.570 -16.157   3.360  1.00  0.00     0.048 C 
HETATM    3  N   UNL     1      41.569 -16.518   4.713  1.00  0.00    -0.229 NA
HETATM    4  C   UNL     1      41.791 -15.554   5.552  1.00  0.00     0.170 C 
HETATM    5  N   UNL     1      41.781 -14.051   5.114  1.00  0.00    -0.319 N 
HETATM    6  C   UNL     1      42.820 -13.474   5.628  1.00  0.00     0.011 C 
HETATM    7  C   UNL     1      40.802 -13.941   4.018  1.00  0.00     0.166 C 
HETATM    8  S   UNL     1      42.431 -15.717   7.141  1.00  0.00    -0.086 SA
HETATM    9  C   UNL     1      43.363 -14.153   6.883  1.00  0.00     0.135 C 
HETATM   10  C   UNL     1      41.305 -14.885   2.972  1.00  0.00     0.069 C 
ENDROOT
BRANCH   6  11
HETATM   11  C   UNL     1      43.459 -12.281   4.978  1.00  0.00     0.156 C 
BRANCH  11  12
HETATM   12  C   UNL     1      44.121 -11.360   5.977  1.00  0.00     0.223 C 
HETATM   13  N   UNL     1      43.306 -10.650   6.832  1.00  0.00    -0.359 N 
HETATM   14  H   UNL     1      42.291 -10.716   6.755  1.00  0.00     0.162 HD
HETATM   15  O   UNL     1      45.341 -11.220   5.970  1.00  0.00    -0.273 OA
BRANCH  13  16
HETATM   16  C   UNL     1      43.935  -9.799   7.841  1.00  0.00     0.150 C 
BRANCH  16  17
HETATM   17  C   UNL     1      44.331 -10.492   9.156  1.00  0.00     0.254 C 
BRANCH  17  18
HETATM   18  N   UNL     1      43.186 -10.473  10.154  1.00  0.00    -0.070 N 
HETATM   19  H   UNL     1      42.506 -11.202   9.892  1.00  0.00     0.279 HD
HETATM   20  C   UNL     1      42.428  -9.150  10.211  1.00  0.00     0.235 C 
HETATM   21  C   UNL     1      42.817  -8.552  11.545  1.00  0.00     0.029 C 
HETATM   22  C   UNL     1      42.900  -9.767  12.444  1.00  0.00     0.029 C 
HETATM   23  C   UNL     1      43.625 -10.785  11.584  1.00  0.00     0.235 C 
ENDBRANCH  17  18
ENDBRANCH  16  17
ENDBRANCH  13  16
ENDBRANCH  11  12
ENDBRANCH   6  11
BRANCH   7  24
HETATM   24  C   UNL     1      40.202 -12.598   3.630  1.00  0.00    -0.030 A 
HETATM   25  C   UNL     1      40.565 -11.375   4.216  1.00  0.00     0.011 A 
HETATM   26  C   UNL     1      39.879 -10.190   3.909  1.00  0.00     0.024 A 
HETATM   27  C   UNL     1      38.784 -10.212   3.053  1.00  0.00     0.034 A 
HETATM   28 CL   UNL     1      37.930  -8.763   2.710  1.00  0.00    -0.084 Cl
HETATM   29  C   UNL     1      38.360 -11.414   2.507  1.00  0.00     0.024 A 
HETATM   30  C   UNL     1      39.054 -12.592   2.802  1.00  0.00     0.011 A 
ENDBRANCH   7  24
BRANCH  10  31
HETATM   31  C   UNL     1      42.115 -14.298   1.894  1.00  0.00     0.294 C 
HETATM   32  O   UNL     1      43.314 -14.111   2.073  1.00  0.00    -0.259 OA
BRANCH  31  33
HETATM   33  O   UNL     1      41.357 -13.847   0.881  1.00  0.00    -0.314 OA
BRANCH  33  34
HETATM   34  C   UNL     1      40.495 -14.859   0.341  1.00  0.00     0.206 C 
BRANCH  34  35
HETATM   35  C   UNL     1      39.742 -14.282  -0.811  1.00  0.00    -0.011 C 
HETATM   36  C   UNL     1      39.388 -12.994  -0.904  1.00  0.00     0.009 C 
ENDBRANCH  34  35
ENDBRANCH  33  34
ENDBRANCH  31  33
ENDBRANCH  10  31
TORSDOF 10
ENDMDL
MODEL 4
REMARK VINA RESULT:      -7.5      2.954      7.227
REMARK  10 active torsions:
REMARK  status: ('A' for Active; 'I' for Inactive)
REMARK    1  A    between atoms: C_6  and  C_7 
REMARK    2  A    between atoms: C_7  and  C_8 
REMARK       I    between atoms: C_8  and  N_9 
REMARK    3  A    between atoms: N_9  and  C_10 
REMARK    4  A    between atoms: C_10  and  C_11 
REMARK    5  A    between atoms: C_11  and  N_12 
REMARK    6  A    between atoms: C_19  and  C_20 
REMARK    7  A    between atoms: C_29  and  C_30 
REMARK    8  A    between atoms: C_30  and  O_31 
REMARK    9  A    between atoms: O_31  and  C_32 
REMARK   10  A    between atoms: C_32  and  C_33 
ROOT
HETATM    1  C   UNL     1      42.088  -8.655   6.560  1.00  0.00     0.071 C 
HETATM    2  C   UNL     1      41.504  -9.987   6.162  1.00  0.00     0.048 C 
HETATM    3  N   UNL     1      40.311  -9.891   5.436  1.00  0.00    -0.229 NA
HETATM    4  C   UNL     1      40.133 -10.796   4.524  1.00  0.00     0.170 C 
HETATM    5  N   UNL     1      41.041 -12.067   4.424  1.00  0.00    -0.319 N 
HETATM    6  C   UNL     1      41.376 -12.228   3.184  1.00  0.00     0.011 C 
HETATM    7  C   UNL     1      41.452 -12.396   5.801  1.00  0.00     0.166 C 
HETATM    8  S   UNL     1      39.149 -10.644   3.120  1.00  0.00    -0.086 SA
HETATM    9  C   UNL     1      40.408 -11.602   2.183  1.00  0.00     0.135 C 
HETATM   10  C   UNL     1      42.159 -11.169   6.283  1.00  0.00     0.069 C 
ENDROOT
BRANCH   6  11
HETATM   11  C   UNL     1      42.654 -12.913   2.797  1.00  0.00     0.156 C 
BRANCH  11  12
HETATM   12  C   UNL     1      42.423 -14.290   2.217  1.00  0.00     0.223 C 
HETATM   13  N   UNL     1      43.455 -15.201   2.297  1.00  0.00    -0.359 N 
HETATM   14  H   UNL     1      44.355 -14.931   2.694  1.00  0.00     0.162 HD
HETATM   15  O   UNL     1      41.366 -14.549   1.647  1.00  0.00    -0.273 OA
BRANCH  13  16
HETATM   16  C   UNL     1      43.226 -16.553   1.792  1.00  0.00     0.150 C 
BRANCH  16  17
HETATM   17  C   UNL     1      42.937 -17.630   2.852  1.00  0.00     0.254 C 
BRANCH  17  18
HETATM   18  N   UNL     1      44.044 -18.670   2.894  1.00  0.00    -0.070 N 
HETATM   19  H   UNL     1      44.836 -18.333   2.327  1.00  0.00     0.279 HD
HETATM   20  C   UNL     1      43.642 -20.033   2.339  1.00  0.00     0.235 C 
HETATM   21  C   UNL     1      43.568 -20.927   3.557  1.00  0.00     0.029 C 
HETATM   22  C   UNL     1      44.712 -20.424   4.410  1.00  0.00     0.029 C 
HETATM   23  C   UNL     1      44.591 -18.916   4.299  1.00  0.00     0.235 C 
ENDBRANCH  17  18
ENDBRANCH  16  17
ENDBRANCH  13  16
ENDBRANCH  11  12
ENDBRANCH   6  11
BRANCH   7  24
HETATM   24  C   UNL     1      41.968 -13.782   6.158  1.00  0.00    -0.030 A 
HETATM   25  C   UNL     1      43.289 -14.208   5.950  1.00  0.00     0.011 A 
HETATM   26  C   UNL     1      43.667 -15.541   6.177  1.00  0.00     0.024 A 
HETATM   27  C   UNL     1      42.723 -16.484   6.564  1.00  0.00     0.034 A 
HETATM   28 CL   UNL     1      43.187 -18.119   6.807  1.00  0.00    -0.084 Cl
HETATM   29  C   UNL     1      41.396 -16.109   6.718  1.00  0.00     0.024 A 
HETATM   30  C   UNL     1      41.024 -14.778   6.506  1.00  0.00     0.011 A 
ENDBRANCH   7  24
BRANCH  10  31
HETATM   31  C   UNL     1      43.626 -11.172   6.174  1.00  0.00     0.294 C 
HETATM   32  O   UNL     1      44.149 -11.048   5.071  1.00  0.00    -0.259 OA
BRANCH  31  33
HETATM   33  O   UNL     1      44.217 -11.518   7.328  1.00  0.00    -0.314 OA
BRANCH  33  34
HETATM   34  C   UNL     1      45.432 -10.794   7.569  1.00  0.00     0.206 C 
BRANCH  34  35
HETATM   35  C   UNL     1      45.194  -9.806   8.661  1.00  0.00    -0.011 C 
HETATM   36  C   UNL     1      45.378  -8.486   8.530  1.00  0.00     0.009 C 
ENDBRANCH  34  35
ENDBRANCH  33  34
ENDBRANCH  31  33
ENDBRANCH  10  31
TORSDOF 10
ENDMDL
MODEL 5
REMARK VINA RESULT:      -7.5      3.035      7.736
REMARK  10 active torsions:
REMARK  status: ('A' for Active; 'I' for Inactive)
REMARK    1  A    between atoms: C_6  and  C_7 
REMARK    2  A    between atoms: C_7  and  C_8 
REMARK       I    between atoms: C_8  and  N_9 
REMARK    3  A    between atoms: N_9  and  C_10 
REMARK    4  A    between atoms: C_10  and  C_11 
REMARK    5  A    between atoms: C_11  and  N_12 
REMARK    6  A    between atoms: C_19  and  C_20 
REMARK    7  A    between atoms: C_29  and  C_30 
REMARK    8  A    between atoms: C_30  and  O_31 
REMARK    9  A    between atoms: O_31  and  C_32 
REMARK   10  A    between atoms: C_32  and  C_33 
ROOT
HETATM    1  C   UNL     1      42.653  -9.480   7.148  1.00  0.00     0.071 C 
HETATM    2  C   UNL     1      41.997 -10.709   6.572  1.00  0.00     0.048 C 
HETATM    3  N   UNL     1      40.626 -10.560   6.326  1.00  0.00    -0.229 NA
HETATM    4  C   UNL     1      40.170 -11.190   5.289  1.00  0.00     0.170 C 
HETATM    5  N   UNL     1      41.016 -12.263   4.526  1.00  0.00    -0.319 N 
HETATM    6  C   UNL     1      40.915 -12.031   3.257  1.00  0.00     0.011 C 
HETATM    7  C   UNL     1      41.876 -12.910   5.535  1.00  0.00     0.166 C 
HETATM    8  S   UNL     1      38.766 -10.774   4.385  1.00  0.00    -0.086 SA
HETATM    9  C   UNL     1      39.652 -11.274   2.853  1.00  0.00     0.135 C 
HETATM   10  C   UNL     1      42.679 -11.790   6.115  1.00  0.00     0.069 C 
ENDROOT
BRANCH   6  11
HETATM   11  C   UNL     1      42.001 -12.422   2.297  1.00  0.00     0.156 C 
BRANCH  11  12
HETATM   12  C   UNL     1      41.471 -13.164   1.091  1.00  0.00     0.223 C 
HETATM   13  N   UNL     1      41.082 -12.417  -0.001  1.00  0.00    -0.359 N 
HETATM   14  H   UNL     1      41.113 -11.398   0.031  1.00  0.00     0.162 HD
HETATM   15  O   UNL     1      41.344 -14.385   1.126  1.00  0.00    -0.273 OA
BRANCH  13  16
HETATM   16  C   UNL     1      40.621 -13.124  -1.194  1.00  0.00     0.150 C 
BRANCH  16  17
HETATM   17  C   UNL     1      40.684 -12.335  -2.513  1.00  0.00     0.254 C 
BRANCH  17  18
HETATM   18  N   UNL     1      39.350 -12.371  -3.239  1.00  0.00    -0.070 N 
HETATM   19  H   UNL     1      39.523 -12.288  -4.252  1.00  0.00     0.279 HD
HETATM   20  C   UNL     1      38.396 -11.246  -2.852  1.00  0.00     0.235 C 
HETATM   21  C   UNL     1      37.308 -11.935  -2.056  1.00  0.00     0.029 C 
HETATM   22  C   UNL     1      37.153 -13.256  -2.777  1.00  0.00     0.029 C 
HETATM   23  C   UNL     1      38.586 -13.679  -3.037  1.00  0.00     0.235 C 
ENDBRANCH  17  18
ENDBRANCH  16  17
ENDBRANCH  13  16
ENDBRANCH  11  12
ENDBRANCH   6  11
BRANCH   7  24
HETATM   24  C   UNL     1      42.511 -14.268   5.273  1.00  0.00    -0.030 A 
HETATM   25  C   UNL     1      42.066 -15.169   4.293  1.00  0.00     0.011 A 
HETATM   26  C   UNL     1      42.608 -16.459   4.192  1.00  0.00     0.024 A 
HETATM   27  C   UNL     1      43.566 -16.894   5.102  1.00  0.00     0.034 A 
HETATM   28 CL   UNL     1      44.199 -18.485   4.992  1.00  0.00    -0.084 Cl
HETATM   29  C   UNL     1      43.981 -16.050   6.121  1.00  0.00     0.024 A 
HETATM   30  C   UNL     1      43.451 -14.759   6.211  1.00  0.00     0.011 A 
ENDBRANCH   7  24
BRANCH  10  31
HETATM   31  C   UNL     1      44.022 -11.584   5.552  1.00  0.00     0.294 C 
HETATM   32  O   UNL     1      44.138 -11.212   4.389  1.00  0.00    -0.259 OA
BRANCH  31  33
HETATM   33  O   UNL     1      44.986 -12.038   6.368  1.00  0.00    -0.314 OA
BRANCH  33  34
HETATM   34  C   UNL     1      46.084 -11.124   6.492  1.00  0.00     0.206 C 
BRANCH  34  35
HETATM   35  C   UNL     1      46.077 -10.550   7.870  1.00  0.00    -0.011 C 
HETATM   36  C   UNL     1      46.205  -9.244   8.138  1.00  0.00     0.009 C 
ENDBRANCH  34  35
ENDBRANCH  33  34
ENDBRANCH  31  33
ENDBRANCH  10  31
TORSDOF 10
ENDMDL
MODEL 6
REMARK VINA RESULT:      -7.5      3.822      6.063
REMARK  10 active torsions:
REMARK  status: ('A' for Active; 'I' for Inactive)
REMARK    1  A    between atoms: C_6  and  C_7 
REMARK    2  A    between atoms: C_7  and  C_8 
REMARK       I    between atoms: C_8  and  N_9 
REMARK    3  A    between atoms: N_9  and  C_10 
REMARK    4  A    between atoms: C_10  and  C_11 
REMARK    5  A    between atoms: C_11  and  N_12 
REMARK    6  A    between atoms: C_19  and  C_20 
REMARK    7  A    between atoms: C_29  and  C_30 
REMARK    8  A    between atoms: C_30  and  O_31 
REMARK    9  A    between atoms: O_31  and  C_32 
REMARK   10  A    between atoms: C_32  and  C_33 
ROOT
HETATM    1  C   UNL     1      42.968 -14.021   2.307  1.00  0.00     0.071 C 
HETATM    2  C   UNL     1      42.838 -12.717   3.053  1.00  0.00     0.048 C 
HETATM    3  N   UNL     1      42.215 -11.701   2.317  1.00  0.00    -0.229 NA
HETATM    4  C   UNL     1      41.477 -10.884   3.001  1.00  0.00     0.170 C 
HETATM    5  N   UNL     1      41.497 -10.853   4.566  1.00  0.00    -0.319 N 
HETATM    6  C   UNL     1      40.273 -10.821   4.985  1.00  0.00     0.011 C 
HETATM    7  C   UNL     1      42.866 -11.218   4.973  1.00  0.00     0.166 C 
HETATM    8  S   UNL     1      40.160  -9.955   2.396  1.00  0.00    -0.086 SA
HETATM    9  C   UNL     1      39.276 -10.247   3.981  1.00  0.00     0.135 C 
HETATM   10  C   UNL     1      43.084 -12.573   4.379  1.00  0.00     0.069 C 
ENDROOT
BRANCH   6  11
HETATM   11  C   UNL     1      39.886 -11.379   6.325  1.00  0.00     0.156 C 
BRANCH  11  12
HETATM   12  C   UNL     1      39.406 -10.312   7.281  1.00  0.00     0.223 C 
HETATM   13  N   UNL     1      39.373 -10.623   8.625  1.00  0.00    -0.359 N 
HETATM   14  H   UNL     1      39.623 -11.558   8.946  1.00  0.00     0.162 HD
HETATM   15  O   UNL     1      39.008  -9.232   6.851  1.00  0.00    -0.273 OA
BRANCH  13  16
HETATM   16  C   UNL     1      38.966  -9.582   9.566  1.00  0.00     0.150 C 
BRANCH  16  17
HETATM   17  C   UNL     1      40.088  -8.968  10.421  1.00  0.00     0.254 C 
BRANCH  17  18
HETATM   18  N   UNL     1      40.657  -9.987  11.394  1.00  0.00    -0.070 N 
HETATM   19  H   UNL     1      40.648 -10.915  10.944  1.00  0.00     0.279 HD
HETATM   20  C   UNL     1      39.875 -10.112  12.698  1.00  0.00     0.235 C 
HETATM   21  C   UNL     1      40.781  -9.493  13.739  1.00  0.00     0.029 C 
HETATM   22  C   UNL     1      42.158  -9.924  13.282  1.00  0.00     0.029 C 
HETATM   23  C   UNL     1      42.109  -9.709  11.782  1.00  0.00     0.235 C 
ENDBRANCH  17  18
ENDBRANCH  16  17
ENDBRANCH  13  16
ENDBRANCH  11  12
ENDBRANCH   6  11
BRANCH   7  24
HETATM   24  C   UNL     1      43.390 -10.883   6.362  1.00  0.00    -0.030 A 
HETATM   25  C   UNL     1      42.760  -9.995   7.247  1.00  0.00     0.011 A 
HETATM   26  C   UNL     1      43.364  -9.627   8.460  1.00  0.00     0.024 A 
HETATM   27  C   UNL     1      44.631 -10.096   8.786  1.00  0.00     0.034 A 
HETATM   28 CL   UNL     1      45.377  -9.613  10.255  1.00  0.00    -0.084 Cl
HETATM   29  C   UNL     1      45.307 -10.925   7.903  1.00  0.00     0.024 A 
HETATM   30  C   UNL     1      44.698 -11.303   6.703  1.00  0.00     0.011 A 
ENDBRANCH   7  24
BRANCH  10  31
HETATM   31  C   UNL     1      42.846 -13.723   5.265  1.00  0.00     0.294 C 
HETATM   32  O   UNL     1      43.801 -14.366   5.688  1.00  0.00    -0.259 OA
BRANCH  31  33
HETATM   33  O   UNL     1      41.544 -14.044   5.337  1.00  0.00    -0.314 OA
BRANCH  33  34
HETATM   34  C   UNL     1      41.291 -15.141   6.226  1.00  0.00     0.206 C 
BRANCH  34  35
HETATM   35  C   UNL     1      40.752 -16.285   5.434  1.00  0.00    -0.011 C 
HETATM   36  C   UNL     1      40.550 -16.250   4.111  1.00  0.00     0.009 C 
ENDBRANCH  34  35
ENDBRANCH  33  34
ENDBRANCH  31  33
ENDBRANCH  10  31
TORSDOF 10
ENDMDL
MODEL 7
REMARK VINA RESULT:      -7.2      4.182      7.272
REMARK  10 active torsions:
REMARK  status: ('A' for Active; 'I' for Inactive)
REMARK    1  A    between atoms: C_6  and  C_7 
REMARK    2  A    between atoms: C_7  and  C_8 
REMARK       I    between atoms: C_8  and  N_9 
REMARK    3  A    between atoms: N_9  and  C_10 
REMARK    4  A    between atoms: C_10  and  C_11 
REMARK    5  A    between atoms: C_11  and  N_12 
REMARK    6  A    between atoms: C_19  and  C_20 
REMARK    7  A    between atoms: C_29  and  C_30 
REMARK    8  A    between atoms: C_30  and  O_31 
REMARK    9  A    between atoms: O_31  and  C_32 
REMARK   10  A    between atoms: C_32  and  C_33 
ROOT
HETATM    1  C   UNL     1      40.568  -9.372   4.325  1.00  0.00     0.071 C 
HETATM    2  C   UNL     1      40.121 -10.690   3.743  1.00  0.00     0.048 C 
HETATM    3  N   UNL     1      38.781 -10.706   3.337  1.00  0.00    -0.229 NA
HETATM    4  C   UNL     1      38.519 -11.423   2.289  1.00  0.00     0.170 C 
HETATM    5  N   UNL     1      39.561 -12.423   1.683  1.00  0.00    -0.319 N 
HETATM    6  C   UNL     1      39.584 -12.253   0.400  1.00  0.00     0.011 C 
HETATM    7  C   UNL     1      40.361 -12.928   2.813  1.00  0.00     0.166 C 
HETATM    8  S   UNL     1      37.194 -11.204   1.213  1.00  0.00    -0.086 SA
HETATM    9  C   UNL     1      38.303 -11.660  -0.182  1.00  0.00     0.135 C 
HETATM   10  C   UNL     1      40.964 -11.703   3.421  1.00  0.00     0.069 C 
ENDROOT
BRANCH   6  11
HETATM   11  C   UNL     1      40.811 -12.555  -0.411  1.00  0.00     0.156 C 
BRANCH  11  12
HETATM   12  C   UNL     1      41.232 -11.394  -1.281  1.00  0.00     0.223 C 
HETATM   13  N   UNL     1      41.623 -10.230  -0.652  1.00  0.00    -0.359 N 
HETATM   14  H   UNL     1      41.583 -10.152   0.364  1.00  0.00     0.162 HD
HETATM   15  O   UNL     1      41.165 -11.484  -2.504  1.00  0.00    -0.273 OA
BRANCH  13  16
HETATM   16  C   UNL     1      42.087  -9.118  -1.480  1.00  0.00     0.150 C 
BRANCH  16  17
HETATM   17  C   UNL     1      41.205  -7.858  -1.474  1.00  0.00     0.254 C 
BRANCH  17  18
HETATM   18  N   UNL     1      40.997  -7.327  -2.882  1.00  0.00    -0.070 N 
HETATM   19  H   UNL     1      40.001  -7.427  -3.130  1.00  0.00     0.279 HD
HETATM   20  C   UNL     1      41.802  -8.057  -3.952  1.00  0.00     0.235 C 
HETATM   21  C   UNL     1      42.861  -7.060  -4.370  1.00  0.00     0.029 C 
HETATM   22  C   UNL     1      42.118  -5.743  -4.316  1.00  0.00     0.029 C 
HETATM   23  C   UNL     1      41.330  -5.842  -3.024  1.00  0.00     0.235 C 
ENDBRANCH  17  18
ENDBRANCH  16  17
ENDBRANCH  13  16
ENDBRANCH  11  12
ENDBRANCH   6  11
BRANCH   7  24
HETATM   24  C   UNL     1      41.165 -14.215   2.695  1.00  0.00    -0.030 A 
HETATM   25  C   UNL     1      42.057 -14.492   1.647  1.00  0.00     0.011 A 
HETATM   26  C   UNL     1      42.666 -15.751   1.524  1.00  0.00     0.024 A 
HETATM   27  C   UNL     1      42.355 -16.773   2.414  1.00  0.00     0.034 A 
HETATM   28 CL   UNL     1      43.078 -18.319   2.236  1.00  0.00    -0.084 Cl
HETATM   29  C   UNL     1      41.429 -16.550   3.423  1.00  0.00     0.024 A 
HETATM   30  C   UNL     1      40.835 -15.291   3.553  1.00  0.00     0.011 A 
ENDBRANCH   7  24
BRANCH  10  31
HETATM   31  C   UNL     1      42.334 -11.368   3.003  1.00  0.00     0.294 C 
HETATM   32  O   UNL     1      42.509 -10.707   1.984  1.00  0.00    -0.259 OA
BRANCH  31  33
HETATM   33  O   UNL     1      43.256 -12.027   3.722  1.00  0.00    -0.314 OA
BRANCH  33  34
HETATM   34  C   UNL     1      43.561 -11.376   4.964  1.00  0.00     0.206 C 
BRANCH  34  35
HETATM   35  C   UNL     1      43.380 -12.356   6.075  1.00  0.00    -0.011 C 
HETATM   36  C   UNL     1      43.385 -13.685   5.909  1.00  0.00     0.009 C 
ENDBRANCH  34  35
ENDBRANCH  33  34
ENDBRANCH  31  33
ENDBRANCH  10  31
TORSDOF 10
ENDMDL
MODEL 8
REMARK VINA RESULT:      -7.1      4.668      9.464
REMARK  10 active torsions:
REMARK  status: ('A' for Active; 'I' for Inactive)
REMARK    1  A    between atoms: C_6  and  C_7 
REMARK    2  A    between atoms: C_7  and  C_8 
REMARK       I    between atoms: C_8  and  N_9 
REMARK    3  A    between atoms: N_9  and  C_10 
REMARK    4  A    between atoms: C_10  and  C_11 
REMARK    5  A    between atoms: C_11  and  N_12 
REMARK    6  A    between atoms: C_19  and  C_20 
REMARK    7  A    between atoms: C_29  and  C_30 
REMARK    8  A    between atoms: C_30  and  O_31 
REMARK    9  A    between atoms: O_31  and  C_32 
REMARK   10  A    between atoms: C_32  and  C_33 
ROOT
HETATM    1  C   UNL     1      43.573 -11.192  12.201  1.00  0.00     0.071 C 
HETATM    2  C   UNL     1      43.773 -10.226  11.060  1.00  0.00     0.048 C 
HETATM    3  N   UNL     1      44.742 -10.633  10.135  1.00  0.00    -0.229 NA
HETATM    4  C   UNL     1      44.509 -10.313   8.900  1.00  0.00     0.170 C 
HETATM    5  N   UNL     1      43.379  -9.306   8.499  1.00  0.00    -0.319 N 
HETATM    6  C   UNL     1      42.721  -9.811   7.506  1.00  0.00     0.011 C 
HETATM    7  C   UNL     1      43.271  -8.338   9.606  1.00  0.00     0.166 C 
HETATM    8  S   UNL     1      45.121 -11.119   7.508  1.00  0.00    -0.086 SA
HETATM    9  C   UNL     1      43.509 -10.822   6.676  1.00  0.00     0.135 C 
HETATM   10  C   UNL     1      42.955  -9.174  10.805  1.00  0.00     0.069 C 
ENDROOT
BRANCH   6  11
HETATM   11  C   UNL     1      41.280  -9.469   7.263  1.00  0.00     0.156 C 
BRANCH  11  12
HETATM   12  C   UNL     1      40.600 -10.446   6.331  1.00  0.00     0.223 C 
HETATM   13  N   UNL     1      40.434 -11.742   6.771  1.00  0.00    -0.359 N 
HETATM   14  H   UNL     1      40.800 -12.032   7.677  1.00  0.00     0.162 HD
HETATM   15  O   UNL     1      40.269 -10.091   5.202  1.00  0.00    -0.273 OA
BRANCH  13  16
HETATM   16  C   UNL     1      39.728 -12.682   5.903  1.00  0.00     0.150 C 
BRANCH  16  17
HETATM   17  C   UNL     1      40.232 -14.135   5.931  1.00  0.00     0.254 C 
BRANCH  17  18
HETATM   18  N   UNL     1      40.732 -14.569   4.563  1.00  0.00    -0.070 N 
HETATM   19  H   UNL     1      40.122 -14.158   3.842  1.00  0.00     0.279 HD
HETATM   20  C   UNL     1      40.732 -16.079   4.347  1.00  0.00     0.235 C 
HETATM   21  C   UNL     1      42.196 -16.459   4.347  1.00  0.00     0.029 C 
HETATM   22  C   UNL     1      42.845 -15.286   3.643  1.00  0.00     0.029 C 
HETATM   23  C   UNL     1      42.149 -14.086   4.256  1.00  0.00     0.235 C 
ENDBRANCH  17  18
ENDBRANCH  16  17
ENDBRANCH  13  16
ENDBRANCH  11  12
ENDBRANCH   6  11
BRANCH   7  24
HETATM   24  C   UNL     1      42.607  -6.984   9.405  1.00  0.00    -0.030 A 
HETATM   25  C   UNL     1      42.013  -6.569   8.202  1.00  0.00     0.011 A 
HETATM   26  C   UNL     1      41.536  -5.259   8.041  1.00  0.00     0.024 A 
HETATM   27  C   UNL     1      41.692  -4.323   9.057  1.00  0.00     0.034 A 
HETATM   28 CL   UNL     1      41.137  -2.714   8.838  1.00  0.00    -0.084 Cl
HETATM   29  C   UNL     1      42.331  -4.683  10.234  1.00  0.00     0.024 A 
HETATM   30  C   UNL     1      42.792  -5.993  10.399  1.00  0.00     0.011 A 
ENDBRANCH   7  24
BRANCH  10  31
HETATM   31  C   UNL     1      41.535  -9.285  11.172  1.00  0.00     0.294 C 
HETATM   32  O   UNL     1      40.786  -9.969  10.484  1.00  0.00    -0.259 OA
BRANCH  31  33
HETATM   33  O   UNL     1      41.198  -8.426  12.147  1.00  0.00    -0.314 OA
BRANCH  33  34
HETATM   34  C   UNL     1      41.042  -9.066  13.421  1.00  0.00     0.206 C 
BRANCH  34  35
HETATM   35  C   UNL     1      42.069  -8.524  14.359  1.00  0.00    -0.011 C 
HETATM   36  C   UNL     1      42.839  -7.461  14.093  1.00  0.00     0.009 C 
ENDBRANCH  34  35
ENDBRANCH  33  34
ENDBRANCH  31  33
ENDBRANCH  10  31
TORSDOF 10
ENDMDL
MODEL 9
REMARK VINA RESULT:      -6.9     17.017     19.492
REMARK  10 active torsions:
REMARK  status: ('A' for Active; 'I' for Inactive)
REMARK    1  A    between atoms: C_6  and  C_7 
REMARK    2  A    between atoms: C_7  and  C_8 
REMARK       I    between atoms: C_8  and  N_9 
REMARK    3  A    between atoms: N_9  and  C_10 
REMARK    4  A    between atoms: C_10  and  C_11 
REMARK    5  A    between atoms: C_11  and  N_12 
REMARK    6  A    between atoms: C_19  and  C_20 
REMARK    7  A    between atoms: C_29  and  C_30 
REMARK    8  A    between atoms: C_30  and  O_31 
REMARK    9  A    between atoms: O_31  and  C_32 
REMARK   10  A    between atoms: C_32  and  C_33 
ROOT
HETATM    1  C   UNL     1      47.640 -27.967  -0.170  1.00  0.00     0.071 C 
HETATM    2  C   UNL     1      46.201 -28.387  -0.334  1.00  0.00     0.048 C 
HETATM    3  N   UNL     1      45.656 -28.073  -1.585  1.00  0.00    -0.229 NA
HETATM    4  C   UNL     1      44.796 -28.923  -2.053  1.00  0.00     0.170 C 
HETATM    5  N   UNL     1      44.194 -30.069  -1.173  1.00  0.00    -0.319 N 
HETATM    6  C   UNL     1      44.236 -31.168  -1.856  1.00  0.00     0.011 C 
HETATM    7  C   UNL     1      44.127 -29.547   0.204  1.00  0.00     0.166 C 
HETATM    8  S   UNL     1      44.410 -29.169  -3.712  1.00  0.00    -0.086 SA
HETATM    9  C   UNL     1      44.260 -30.969  -3.369  1.00  0.00     0.135 C 
HETATM   10  C   UNL     1      45.541 -29.191   0.538  1.00  0.00     0.069 C 
ENDROOT
BRANCH   6  11
HETATM   11  C   UNL     1      44.328 -32.508  -1.185  1.00  0.00     0.156 C 
BRANCH  11  12
HETATM   12  C   UNL     1      45.443 -33.362  -1.743  1.00  0.00     0.223 C 
HETATM   13  N   UNL     1      46.739 -32.949  -1.522  1.00  0.00    -0.359 N 
HETATM   14  H   UNL     1      46.928 -32.072  -1.036  1.00  0.00     0.162 HD
HETATM   15  O   UNL     1      45.179 -34.354  -2.419  1.00  0.00    -0.273 OA
BRANCH  13  16
HETATM   16  C   UNL     1      47.828 -33.795  -2.008  1.00  0.00     0.150 C 
BRANCH  16  17
HETATM   17  C   UNL     1      49.230 -33.466  -1.467  1.00  0.00     0.254 C 
BRANCH  17  18
HETATM   18  N   UNL     1      49.177 -32.337  -0.452  1.00  0.00    -0.070 N 
HETATM   19  H   UNL     1      48.192 -32.160  -0.205  1.00  0.00     0.279 HD
HETATM   20  C   UNL     1      49.761 -31.019  -0.950  1.00  0.00     0.235 C 
HETATM   21  C   UNL     1      51.050 -30.862  -0.173  1.00  0.00     0.029 C 
HETATM   22  C   UNL     1      50.688 -31.414   1.188  1.00  0.00     0.029 C 
HETATM   23  C   UNL     1      49.897 -32.665   0.856  1.00  0.00     0.235 C 
ENDBRANCH  17  18
ENDBRANCH  16  17
ENDBRANCH  13  16
ENDBRANCH  11  12
ENDBRANCH   6  11
BRANCH   7  24
HETATM   24  C   UNL     1      43.220 -30.186   1.246  1.00  0.00    -0.030 A 
HETATM   25  C   UNL     1      42.416 -31.311   1.005  1.00  0.00     0.011 A 
HETATM   26  C   UNL     1      41.502 -31.770   1.965  1.00  0.00     0.024 A 
HETATM   27  C   UNL     1      41.333 -31.083   3.162  1.00  0.00     0.034 A 
HETATM   28 CL   UNL     1      40.187 -31.632   4.316  1.00  0.00    -0.084 Cl
HETATM   29  C   UNL     1      42.066 -29.930   3.403  1.00  0.00     0.024 A 
HETATM   30  C   UNL     1      42.988 -29.483   2.452  1.00  0.00     0.011 A 
ENDBRANCH   7  24
BRANCH  10  31
HETATM   31  C   UNL     1      46.312 -30.196   1.285  1.00  0.00     0.294 C 
HETATM   32  O   UNL     1      46.599 -31.260   0.746  1.00  0.00    -0.259 OA
BRANCH  31  33
HETATM   33  O   UNL     1      46.436 -29.874   2.583  1.00  0.00    -0.314 OA
BRANCH  33  34
HETATM   34  C   UNL     1      47.240 -30.812   3.313  1.00  0.00     0.206 C 
BRANCH  34  35
HETATM   35  C   UNL     1      48.483 -30.124   3.769  1.00  0.00    -0.011 C 
HETATM   36  C   UNL     1      48.695 -28.807   3.656  1.00  0.00     0.009 C 
ENDBRANCH  34  35
ENDBRANCH  33  34
ENDBRANCH  31  33
ENDBRANCH  10  31
TORSDOF 10
ENDMDL
MODEL 10
REMARK VINA RESULT:      -6.9      3.188      4.848
REMARK  10 active torsions:
REMARK  status: ('A' for Active; 'I' for Inactive)
REMARK    1  A    between atoms: C_6  and  C_7 
REMARK    2  A    between atoms: C_7  and  C_8 
REMARK       I    between atoms: C_8  and  N_9 
REMARK    3  A    between atoms: N_9  and  C_10 
REMARK    4  A    between atoms: C_10  and  C_11 
REMARK    5  A    between atoms: C_11  and  N_12 
REMARK    6  A    between atoms: C_19  and  C_20 
REMARK    7  A    between atoms: C_29  and  C_30 
REMARK    8  A    between atoms: C_30  and  O_31 
REMARK    9  A    between atoms: O_31  and  C_32 
REMARK   10  A    between atoms: C_32  and  C_33 
ROOT
HETATM    1  C   UNL     1      39.817 -14.983   2.277  1.00  0.00     0.071 C 
HETATM    2  C   UNL     1      40.350 -13.619   2.636  1.00  0.00     0.048 C 
HETATM    3  N   UNL     1      39.669 -12.562   2.019  1.00  0.00    -0.229 NA
HETATM    4  C   UNL     1      39.557 -11.479   2.722  1.00  0.00     0.170 C 
HETATM    5  N   UNL     1      40.361 -11.259   4.047  1.00  0.00    -0.319 N 
HETATM    6  C   UNL     1      39.547 -10.801   4.943  1.00  0.00     0.011 C 
HETATM    7  C   UNL     1      41.641 -11.972   3.882  1.00  0.00     0.166 C 
HETATM    8  S   UNL     1      38.339 -10.275   2.547  1.00  0.00    -0.086 SA
HETATM    9  C   UNL     1      38.326 -10.080   4.376  1.00  0.00     0.135 C 
HETATM   10  C   UNL     1      41.248 -13.392   3.627  1.00  0.00     0.069 C 
ENDROOT
BRANCH   6  11
HETATM   11  C   UNL     1      39.773 -11.039   6.407  1.00  0.00     0.156 C 
BRANCH  11  12
HETATM   12  C   UNL     1      39.751  -9.762   7.214  1.00  0.00     0.223 C 
HETATM   13  N   UNL     1      40.749  -8.839   6.982  1.00  0.00    -0.359 N 
HETATM   14  H   UNL     1      41.497  -9.041   6.319  1.00  0.00     0.162 HD
HETATM   15  O   UNL     1      38.899  -9.597   8.083  1.00  0.00    -0.273 OA
BRANCH  13  16
HETATM   16  C   UNL     1      40.707  -7.575   7.714  1.00  0.00     0.150 C 
BRANCH  16  17
HETATM   17  C   UNL     1      41.870  -7.319   8.687  1.00  0.00     0.254 C 
BRANCH  17  18
HETATM   18  N   UNL     1      42.681  -8.584   8.918  1.00  0.00    -0.070 N 
HETATM   19  H   UNL     1      42.493  -9.242   8.147  1.00  0.00     0.279 HD
HETATM   20  C   UNL     1      42.353  -9.309  10.219  1.00  0.00     0.235 C 
HETATM   21  C   UNL     1      43.567  -9.082  11.092  1.00  0.00     0.029 C 
HETATM   22  C   UNL     1      44.708  -9.147  10.100  1.00  0.00     0.029 C 
HETATM   23  C   UNL     1      44.190  -8.343   8.923  1.00  0.00     0.235 C 
ENDBRANCH  17  18
ENDBRANCH  16  17
ENDBRANCH  13  16
ENDBRANCH  11  12
ENDBRANCH   6  11
BRANCH   7  24
HETATM   24  C   UNL     1      42.844 -11.641   4.754  1.00  0.00    -0.030 A 
HETATM   25  C   UNL     1      44.161 -11.556   4.277  1.00  0.00     0.011 A 
HETATM   26  C   UNL     1      45.242 -11.380   5.155  1.00  0.00     0.024 A 
HETATM   27  C   UNL     1      45.034 -11.341   6.529  1.00  0.00     0.034 A 
HETATM   28 CL   UNL     1      46.365 -11.160   7.597  1.00  0.00    -0.084 Cl
HETATM   29  C   UNL     1      43.751 -11.486   7.035  1.00  0.00     0.024 A 
HETATM   30  C   UNL     1      42.674 -11.645   6.159  1.00  0.00     0.011 A 
ENDBRANCH   7  24
BRANCH  10  31
HETATM   31  C   UNL     1      41.251 -14.292   4.790  1.00  0.00     0.294 C 
HETATM   32  O   UNL     1      40.361 -14.198   5.628  1.00  0.00    -0.259 OA
BRANCH  31  33
HETATM   33  O   UNL     1      42.390 -14.999   4.878  1.00  0.00    -0.314 OA
BRANCH  33  34
HETATM   34  C   UNL     1      42.161 -16.415   4.924  1.00  0.00     0.206 C 
BRANCH  34  35
HETATM   35  C   UNL     1      42.533 -17.003   3.604  1.00  0.00    -0.011 C 
HETATM   36  C   UNL     1      43.331 -16.401   2.713  1.00  0.00     0.009 C 
ENDBRANCH  34  35
ENDBRANCH  33  34
ENDBRANCH  31  33
ENDBRANCH  10  31
TORSDOF 10
ENDMDL
