MODEL 1
REMARK VINA RESULT:      -8.8      0.000      0.000
REMARK  10 active torsions:
REMARK  status: ('A' for Active; 'I' for Inactive)
REMARK    1  A    between atoms: C_6  and  N_7 
REMARK    2  A    between atoms: C_8  and  S_9 
REMARK    3  A    between atoms: S_9  and  C_10 
REMARK    4  A    between atoms: C_10  and  C_11 
REMARK       I    between atoms: C_11  and  N_12 
REMARK    5  A    between atoms: N_12  and  C_13 
REMARK    6  A    between atoms: C_13  and  C_14 
REMARK    7  A    between atoms: C_14  and  C_15 
REMARK    8  A    between atoms: C_17  and  O_18 
REMARK    9  A    between atoms: C_20  and  O_21 
REMARK   10  A    between atoms: C_29  and  N_30 
ROOT
HETATM    1  N   UNL     1      41.077 -10.214  -1.920  1.00  0.00    -0.276 N 
HETATM    2  C   UNL     1      41.385 -10.007  -0.546  1.00  0.00     0.177 A 
HETATM    3  N   UNL     1      42.034  -8.976  -0.059  1.00  0.00    -0.204 NA
HETATM    4  C   UNL     1      42.389  -8.059  -0.983  1.00  0.00     0.162 A 
HETATM    5  C   UNL     1      42.190  -8.069  -2.336  1.00  0.00     0.081 A 
HETATM    6  C   UNL     1      41.519  -9.210  -2.882  1.00  0.00     0.124 A 
HETATM    7  N   UNL     1      43.031  -6.885  -0.723  1.00  0.00    -0.260 N 
HETATM    8  H   UNL     1      43.334  -6.527   0.177  1.00  0.00     0.191 HD
HETATM    9  N   UNL     1      43.256  -6.148  -1.833  1.00  0.00    -0.177 NA
HETATM   10  C   UNL     1      42.730  -6.874  -2.833  1.00  0.00     0.068 A 
HETATM   11  C   UNL     1      42.787  -6.351  -4.218  1.00  0.00     0.073 C 
ENDROOT
BRANCH   2  12
HETATM   12  S   UNL     1      40.860 -11.200   0.666  1.00  0.00    -0.082 SA
BRANCH  12  13
HETATM   13  C   UNL     1      41.850 -10.689   2.098  1.00  0.00     0.185 C 
BRANCH  13  14
HETATM   14  C   UNL     1      42.778 -11.801   2.565  1.00  0.00     0.227 C 
HETATM   15  N   UNL     1      42.440 -13.050   2.079  1.00  0.00    -0.360 N 
HETATM   16  H   UNL     1      41.589 -13.176   1.547  1.00  0.00     0.162 HD
HETATM   17  O   UNL     1      43.772 -11.606   3.259  1.00  0.00    -0.273 OA
BRANCH  15  18
HETATM   18  C   UNL     1      43.283 -14.213   2.294  1.00  0.00     0.127 C 
BRANCH  18  19
HETATM   19  C   UNL     1      42.628 -15.518   1.835  1.00  0.00     0.058 C 
BRANCH  19  20
HETATM   20  C   UNL     1      43.108 -16.685   2.666  1.00  0.00    -0.054 A 
HETATM   21  C   UNL     1      43.434 -16.506   4.019  1.00  0.00     0.046 A 
HETATM   22  C   UNL     1      43.925 -17.570   4.786  1.00  0.00     0.102 A 
HETATM   23  C   UNL     1      44.096 -18.836   4.192  1.00  0.00     0.101 A 
HETATM   24  C   UNL     1      43.768 -19.014   2.845  1.00  0.00     0.040 A 
HETATM   25  C   UNL     1      43.279 -17.945   2.087  1.00  0.00     0.010 A 
BRANCH  22  26
HETATM   26  O   UNL     1      44.275 -17.474   6.112  1.00  0.00    -0.353 OA
HETATM   27  C   UNL     1      43.239 -17.234   7.051  1.00  0.00     0.210 C 
ENDBRANCH  22  26
BRANCH  23  28
HETATM   28  O   UNL     1      44.590 -19.824   5.008  1.00  0.00    -0.353 OA
HETATM   29  C   UNL     1      43.768 -20.959   5.242  1.00  0.00     0.210 C 
ENDBRANCH  23  28
ENDBRANCH  19  20
ENDBRANCH  18  19
ENDBRANCH  15  18
ENDBRANCH  13  14
ENDBRANCH  12  13
ENDBRANCH   2  12
BRANCH   1  30
HETATM   30  C   UNL     1      40.338 -11.349  -2.367  1.00  0.00     0.045 A 
HETATM   31  C   UNL     1      38.942 -11.313  -2.463  1.00  0.00     0.054 A 
HETATM   32  C   UNL     1      38.224 -12.462  -2.814  1.00  0.00     0.042 A 
HETATM   33  C   UNL     1      38.885 -13.675  -3.057  1.00  0.00    -0.040 A 
HETATM   34 CL   UNL     1      36.504 -12.336  -2.910  1.00  0.00    -0.084 Cl
HETATM   35  C   UNL     1      38.140 -14.928  -3.430  1.00  0.00     0.050 C 
HETATM   36  C   UNL     1      40.284 -13.707  -2.965  1.00  0.00     0.011 A 
HETATM   37  C   UNL     1      41.002 -12.558  -2.621  1.00  0.00     0.031 A 
ENDBRANCH   1  30
BRANCH   6  38
HETATM   38  N   UNL     1      41.355  -9.342  -4.185  1.00  0.00    -0.384 N 
HETATM   39  H   UNL     1      41.618 -10.185  -4.674  1.00  0.00     0.157 HD
HETATM   40  H   UNL     1      40.926  -8.597  -4.720  1.00  0.00     0.157 HD
ENDBRANCH   6  38
TORSDOF 10
ENDMDL
MODEL 2
REMARK VINA RESULT:      -8.8      5.775      9.542
REMARK  10 active torsions:
REMARK  status: ('A' for Active; 'I' for Inactive)
REMARK    1  A    between atoms: C_6  and  N_7 
REMARK    2  A    between atoms: C_8  and  S_9 
REMARK    3  A    between atoms: S_9  and  C_10 
REMARK    4  A    between atoms: C_10  and  C_11 
REMARK       I    between atoms: C_11  and  N_12 
REMARK    5  A    between atoms: N_12  and  C_13 
REMARK    6  A    between atoms: C_13  and  C_14 
REMARK    7  A    between atoms: C_14  and  C_15 
REMARK    8  A    between atoms: C_17  and  O_18 
REMARK    9  A    between atoms: C_20  and  O_21 
REMARK   10  A    between atoms: C_29  and  N_30 
ROOT
HETATM    1  N   UNL     1      41.896 -14.664   3.624  1.00  0.00    -0.276 N 
HETATM    2  C   UNL     1      42.522 -14.402   4.874  1.00  0.00     0.177 A 
HETATM    3  N   UNL     1      43.307 -15.231   5.522  1.00  0.00    -0.204 NA
HETATM    4  C   UNL     1      43.520 -16.401   4.884  1.00  0.00     0.162 A 
HETATM    5  C   UNL     1      43.020 -16.842   3.691  1.00  0.00     0.081 A 
HETATM    6  C   UNL     1      42.129 -15.961   2.998  1.00  0.00     0.124 A 
HETATM    7  N   UNL     1      44.328 -17.406   5.328  1.00  0.00    -0.260 N 
HETATM    8  H   UNL     1      44.878 -17.431   6.181  1.00  0.00     0.191 HD
HETATM    9  N   UNL     1      44.368 -18.463   4.488  1.00  0.00    -0.177 NA
HETATM   10  C   UNL     1      43.565 -18.116   3.469  1.00  0.00     0.068 A 
HETATM   11  C   UNL     1      43.383 -19.053   2.336  1.00  0.00     0.073 C 
ENDROOT
BRANCH   2  12
HETATM   12  S   UNL     1      42.274 -12.831   5.674  1.00  0.00    -0.082 SA
BRANCH  12  13
HETATM   13  C   UNL     1      43.873 -12.033   5.362  1.00  0.00     0.185 C 
BRANCH  13  14
HETATM   14  C   UNL     1      44.638 -11.783   6.653  1.00  0.00     0.227 C 
HETATM   15  N   UNL     1      45.792 -11.042   6.483  1.00  0.00    -0.360 N 
HETATM   16  H   UNL     1      46.106 -10.797   5.553  1.00  0.00     0.162 HD
HETATM   17  O   UNL     1      44.243 -12.150   7.756  1.00  0.00    -0.273 OA
BRANCH  15  18
HETATM   18  C   UNL     1      46.582 -10.577   7.609  1.00  0.00     0.127 C 
BRANCH  18  19
HETATM   19  C   UNL     1      46.335  -9.105   7.945  1.00  0.00     0.058 C 
BRANCH  19  20
HETATM   20  C   UNL     1      45.280  -8.963   9.016  1.00  0.00    -0.054 A 
HETATM   21  C   UNL     1      44.291  -7.974   8.911  1.00  0.00     0.046 A 
HETATM   22  C   UNL     1      43.336  -7.802   9.921  1.00  0.00     0.102 A 
HETATM   23  C   UNL     1      43.370  -8.633  11.060  1.00  0.00     0.101 A 
HETATM   24  C   UNL     1      44.354  -9.620  11.161  1.00  0.00     0.040 A 
HETATM   25  C   UNL     1      45.303  -9.783  10.148  1.00  0.00     0.010 A 
BRANCH  22  26
HETATM   26  O   UNL     1      42.342  -6.853   9.898  1.00  0.00    -0.353 OA
HETATM   27  C   UNL     1      42.722  -5.497  10.074  1.00  0.00     0.210 C 
ENDBRANCH  22  26
BRANCH  23  28
HETATM   28  O   UNL     1      42.405  -8.396  12.008  1.00  0.00    -0.353 OA
HETATM   29  C   UNL     1      42.836  -8.047  13.316  1.00  0.00     0.210 C 
ENDBRANCH  23  28
ENDBRANCH  19  20
ENDBRANCH  18  19
ENDBRANCH  15  18
ENDBRANCH  13  14
ENDBRANCH  12  13
ENDBRANCH   2  12
BRANCH   1  30
HETATM   30  C   UNL     1      41.080 -13.695   2.969  1.00  0.00     0.045 A 
HETATM   31  C   UNL     1      41.643 -12.697   2.165  1.00  0.00     0.054 A 
HETATM   32  C   UNL     1      40.839 -11.698   1.604  1.00  0.00     0.042 A 
HETATM   33  C   UNL     1      39.458 -11.666   1.850  1.00  0.00    -0.040 A 
HETATM   34 CL   UNL     1      41.610 -10.502   0.625  1.00  0.00    -0.084 Cl
HETATM   35  C   UNL     1      38.569 -10.603   1.266  1.00  0.00     0.050 C 
HETATM   36  C   UNL     1      38.896 -12.670   2.651  1.00  0.00     0.011 A 
HETATM   37  C   UNL     1      39.697 -13.672   3.206  1.00  0.00     0.031 A 
ENDBRANCH   1  30
BRANCH   6  38
HETATM   38  N   UNL     1      41.537 -16.336   1.879  1.00  0.00    -0.384 N 
HETATM   39  H   UNL     1      41.874 -17.113   1.330  1.00  0.00     0.157 HD
HETATM   40  H   UNL     1      40.700 -15.859   1.564  1.00  0.00     0.157 HD
ENDBRANCH   6  38
TORSDOF 10
ENDMDL
MODEL 3
REMARK VINA RESULT:      -8.4      5.627      9.807
REMARK  10 active torsions:
REMARK  status: ('A' for Active; 'I' for Inactive)
REMARK    1  A    between atoms: C_6  and  N_7 
REMARK    2  A    between atoms: C_8  and  S_9 
REMARK    3  A    between atoms: S_9  and  C_10 
REMARK    4  A    between atoms: C_10  and  C_11 
REMARK       I    between atoms: C_11  and  N_12 
REMARK    5  A    between atoms: N_12  and  C_13 
REMARK    6  A    between atoms: C_13  and  C_14 
REMARK    7  A    between atoms: C_14  and  C_15 
REMARK    8  A    between atoms: C_17  and  O_18 
REMARK    9  A    between atoms: C_20  and  O_21 
REMARK   10  A    between atoms: C_29  and  N_30 
ROOT
HETATM    1  N   UNL     1      42.610 -15.599   4.203  1.00  0.00    -0.276 N 
HETATM    2  C   UNL     1      42.775 -15.808   5.601  1.00  0.00     0.177 A 
HETATM    3  N   UNL     1      43.171 -16.927   6.161  1.00  0.00    -0.204 NA
HETATM    4  C   UNL     1      43.455 -17.914   5.285  1.00  0.00     0.162 A 
HETATM    5  C   UNL     1      43.363 -17.915   3.921  1.00  0.00     0.081 A 
HETATM    6  C   UNL     1      42.892 -16.712   3.304  1.00  0.00     0.124 A 
HETATM    7  N   UNL     1      43.923 -19.151   5.616  1.00  0.00    -0.260 N 
HETATM    8  H   UNL     1      44.126 -19.513   6.542  1.00  0.00     0.191 HD
HETATM    9  N   UNL     1      44.133 -19.941   4.541  1.00  0.00    -0.177 NA
HETATM   10  C   UNL     1      43.794 -19.178   3.489  1.00  0.00     0.068 A 
HETATM   11  C   UNL     1      43.916 -19.732   2.120  1.00  0.00     0.073 C 
ENDROOT
BRANCH   2  12
HETATM   12  S   UNL     1      42.450 -14.478   6.738  1.00  0.00    -0.082 SA
BRANCH  12  13
HETATM   13  C   UNL     1      44.062 -13.647   6.761  1.00  0.00     0.185 C 
BRANCH  13  14
HETATM   14  C   UNL     1      43.918 -12.147   6.971  1.00  0.00     0.227 C 
HETATM   15  N   UNL     1      45.016 -11.559   7.571  1.00  0.00    -0.360 N 
HETATM   16  H   UNL     1      45.777 -12.133   7.909  1.00  0.00     0.162 HD
HETATM   17  O   UNL     1      42.945 -11.501   6.591  1.00  0.00    -0.273 OA
BRANCH  15  18
HETATM   18  C   UNL     1      45.131 -10.121   7.725  1.00  0.00     0.127 C 
BRANCH  18  19
HETATM   19  C   UNL     1      45.308  -9.688   9.183  1.00  0.00     0.058 C 
BRANCH  19  20
HETATM   20  C   UNL     1      43.988  -9.703   9.916  1.00  0.00    -0.054 A 
HETATM   21  C   UNL     1      42.829  -9.205   9.300  1.00  0.00     0.046 A 
HETATM   22  C   UNL     1      41.609  -9.169   9.987  1.00  0.00     0.102 A 
HETATM   23  C   UNL     1      41.544  -9.637  11.315  1.00  0.00     0.101 A 
HETATM   24  C   UNL     1      42.698 -10.136  11.926  1.00  0.00     0.040 A 
HETATM   25  C   UNL     1      43.911 -10.167  11.232  1.00  0.00     0.010 A 
BRANCH  22  26
HETATM   26  O   UNL     1      40.435  -8.690   9.459  1.00  0.00    -0.353 OA
HETATM   27  C   UNL     1      39.761  -9.499   8.507  1.00  0.00     0.210 C 
ENDBRANCH  22  26
BRANCH  23  28
HETATM   28  O   UNL     1      40.314  -9.561  11.922  1.00  0.00    -0.353 OA
HETATM   29  C   UNL     1      40.112 -10.326  13.102  1.00  0.00     0.210 C 
ENDBRANCH  23  28
ENDBRANCH  19  20
ENDBRANCH  18  19
ENDBRANCH  15  18
ENDBRANCH  13  14
ENDBRANCH  12  13
ENDBRANCH   2  12
BRANCH   1  30
HETATM   30  C   UNL     1      42.204 -14.339   3.669  1.00  0.00     0.045 A 
HETATM   31  C   UNL     1      40.855 -14.054   3.432  1.00  0.00     0.054 A 
HETATM   32  C   UNL     1      40.480 -12.851   2.822  1.00  0.00     0.042 A 
HETATM   33  C   UNL     1      41.448 -11.917   2.423  1.00  0.00    -0.040 A 
HETATM   34 CL   UNL     1      38.795 -12.573   2.563  1.00  0.00    -0.084 Cl
HETATM   35  C   UNL     1      41.076 -10.618   1.761  1.00  0.00     0.050 C 
HETATM   36  C   UNL     1      42.798 -12.204   2.666  1.00  0.00     0.011 A 
HETATM   37  C   UNL     1      43.172 -13.402   3.281  1.00  0.00     0.031 A 
ENDBRANCH   1  30
BRANCH   6  38
HETATM   38  N   UNL     1      42.697 -16.650   2.000  1.00  0.00    -0.384 N 
HETATM   39  H   UNL     1      43.442 -16.420   1.358  1.00  0.00     0.157 HD
HETATM   40  H   UNL     1      41.786 -16.866   1.612  1.00  0.00     0.157 HD
ENDBRANCH   6  38
TORSDOF 10
ENDMDL
MODEL 4
REMARK VINA RESULT:      -8.3      7.070      9.994
REMARK  10 active torsions:
REMARK  status: ('A' for Active; 'I' for Inactive)
REMARK    1  A    between atoms: C_6  and  N_7 
REMARK    2  A    between atoms: C_8  and  S_9 
REMARK    3  A    between atoms: S_9  and  C_10 
REMARK    4  A    between atoms: C_10  and  C_11 
REMARK       I    between atoms: C_11  and  N_12 
REMARK    5  A    between atoms: N_12  and  C_13 
REMARK    6  A    between atoms: C_13  and  C_14 
REMARK    7  A    between atoms: C_14  and  C_15 
REMARK    8  A    between atoms: C_17  and  O_18 
REMARK    9  A    between atoms: C_20  and  O_21 
REMARK   10  A    between atoms: C_29  and  N_30 
ROOT
HETATM    1  N   UNL     1      42.068 -12.354   5.516  1.00  0.00    -0.276 N 
HETATM    2  C   UNL     1      42.958 -11.630   6.358  1.00  0.00     0.177 A 
HETATM    3  N   UNL     1      42.716 -10.455   6.891  1.00  0.00    -0.204 NA
HETATM    4  C   UNL     1      41.495  -9.958   6.600  1.00  0.00     0.162 A 
HETATM    5  C   UNL     1      40.505 -10.489   5.820  1.00  0.00     0.081 A 
HETATM    6  C   UNL     1      40.777 -11.751   5.202  1.00  0.00     0.124 A 
HETATM    7  N   UNL     1      40.993  -8.779   7.066  1.00  0.00    -0.260 N 
HETATM    8  H   UNL     1      41.442  -8.111   7.684  1.00  0.00     0.191 HD
HETATM    9  N   UNL     1      39.741  -8.527   6.625  1.00  0.00    -0.177 NA
HETATM   10  C   UNL     1      39.432  -9.586   5.860  1.00  0.00     0.068 A 
HETATM   11  C   UNL     1      38.100  -9.653   5.214  1.00  0.00     0.073 C 
ENDROOT
BRANCH   2  12
HETATM   12  S   UNL     1      44.541 -12.326   6.777  1.00  0.00    -0.082 SA
BRANCH  12  13
HETATM   13  C   UNL     1      45.624 -10.896   6.513  1.00  0.00     0.185 C 
BRANCH  13  14
HETATM   14  C   UNL     1      45.754 -10.049   7.771  1.00  0.00     0.227 C 
HETATM   15  N   UNL     1      45.055 -10.549   8.854  1.00  0.00    -0.360 N 
HETATM   16  H   UNL     1      44.449 -11.351   8.741  1.00  0.00     0.162 HD
HETATM   17  O   UNL     1      46.461  -9.048   7.843  1.00  0.00    -0.273 OA
BRANCH  15  18
HETATM   18  C   UNL     1      45.168  -9.966  10.178  1.00  0.00     0.127 C 
BRANCH  18  19
HETATM   19  C   UNL     1      44.350 -10.715  11.233  1.00  0.00     0.058 C 
BRANCH  19  20
HETATM   20  C   UNL     1      43.392  -9.783  11.938  1.00  0.00    -0.054 A 
HETATM   21  C   UNL     1      42.190 -10.273  12.471  1.00  0.00     0.046 A 
HETATM   22  C   UNL     1      41.272  -9.411  13.084  1.00  0.00     0.102 A 
HETATM   23  C   UNL     1      41.559  -8.033  13.166  1.00  0.00     0.101 A 
HETATM   24  C   UNL     1      42.759  -7.548  12.638  1.00  0.00     0.040 A 
HETATM   25  C   UNL     1      43.667  -8.416  12.027  1.00  0.00     0.010 A 
BRANCH  22  26
HETATM   26  O   UNL     1      40.072  -9.809  13.621  1.00  0.00    -0.353 OA
HETATM   27  C   UNL     1      39.357 -10.835  12.950  1.00  0.00     0.210 C 
ENDBRANCH  22  26
BRANCH  23  28
HETATM   28  O   UNL     1      40.606  -7.253  13.775  1.00  0.00    -0.353 OA
HETATM   29  C   UNL     1      39.927  -6.296  12.976  1.00  0.00     0.210 C 
ENDBRANCH  23  28
ENDBRANCH  19  20
ENDBRANCH  18  19
ENDBRANCH  15  18
ENDBRANCH  13  14
ENDBRANCH  12  13
ENDBRANCH   2  12
BRANCH   1  30
HETATM   30  C   UNL     1      42.394 -13.643   5.001  1.00  0.00     0.045 A 
HETATM   31  C   UNL     1      42.873 -13.803   3.696  1.00  0.00     0.054 A 
HETATM   32  C   UNL     1      43.101 -15.082   3.174  1.00  0.00     0.042 A 
HETATM   33  C   UNL     1      42.839 -16.227   3.941  1.00  0.00    -0.040 A 
HETATM   34 CL   UNL     1      43.691 -15.194   1.555  1.00  0.00    -0.084 Cl
HETATM   35  C   UNL     1      43.069 -17.614   3.406  1.00  0.00     0.050 C 
HETATM   36  C   UNL     1      42.364 -16.064   5.250  1.00  0.00     0.011 A 
HETATM   37  C   UNL     1      42.143 -14.787   5.774  1.00  0.00     0.031 A 
ENDBRANCH   1  30
BRANCH   6  38
HETATM   38  N   UNL     1      39.911 -12.300   4.370  1.00  0.00    -0.384 N 
HETATM   39  H   UNL     1      40.061 -13.215   3.971  1.00  0.00     0.157 HD
HETATM   40  H   UNL     1      39.052 -11.815   4.139  1.00  0.00     0.157 HD
ENDBRANCH   6  38
TORSDOF 10
ENDMDL
MODEL 5
REMARK VINA RESULT:      -8.3      5.558      8.479
REMARK  10 active torsions:
REMARK  status: ('A' for Active; 'I' for Inactive)
REMARK    1  A    between atoms: C_6  and  N_7 
REMARK    2  A    between atoms: C_8  and  S_9 
REMARK    3  A    between atoms: S_9  and  C_10 
REMARK    4  A    between atoms: C_10  and  C_11 
REMARK       I    between atoms: C_11  and  N_12 
REMARK    5  A    between atoms: N_12  and  C_13 
REMARK    6  A    between atoms: C_13  and  C_14 
REMARK    7  A    between atoms: C_14  and  C_15 
REMARK    8  A    between atoms: C_17  and  O_18 
REMARK    9  A    between atoms: C_20  and  O_21 
REMARK   10  A    between atoms: C_29  and  N_30 
ROOT
HETATM    1  N   UNL     1      41.794 -13.160   2.517  1.00  0.00    -0.276 N 
HETATM    2  C   UNL     1      42.566 -11.976   2.685  1.00  0.00     0.177 A 
HETATM    3  N   UNL     1      42.314 -10.816   2.124  1.00  0.00    -0.204 NA
HETATM    4  C   UNL     1      41.204 -10.804   1.356  1.00  0.00     0.162 A 
HETATM    5  C   UNL     1      40.336 -11.821   1.069  1.00  0.00     0.081 A 
HETATM    6  C   UNL     1      40.627 -13.100   1.644  1.00  0.00     0.124 A 
HETATM    7  N   UNL     1      40.709  -9.714   0.703  1.00  0.00    -0.260 N 
HETATM    8  H   UNL     1      41.085  -8.771   0.692  1.00  0.00     0.191 HD
HETATM    9  N   UNL     1      39.578  -9.979   0.014  1.00  0.00    -0.177 NA
HETATM   10  C   UNL     1      39.339 -11.281   0.243  1.00  0.00     0.068 A 
HETATM   11  C   UNL     1      38.144 -11.918  -0.359  1.00  0.00     0.073 C 
ENDROOT
BRANCH   2  12
HETATM   12  S   UNL     1      43.995 -11.996   3.746  1.00  0.00    -0.082 SA
BRANCH  12  13
HETATM   13  C   UNL     1      43.253 -11.512   5.328  1.00  0.00     0.185 C 
BRANCH  13  14
HETATM   14  C   UNL     1      44.241 -11.645   6.477  1.00  0.00     0.227 C 
HETATM   15  N   UNL     1      45.339 -10.812   6.368  1.00  0.00    -0.360 N 
HETATM   16  H   UNL     1      45.474 -10.256   5.534  1.00  0.00     0.162 HD
HETATM   17  O   UNL     1      44.059 -12.378   7.446  1.00  0.00    -0.273 OA
BRANCH  15  18
HETATM   18  C   UNL     1      46.319 -10.687   7.431  1.00  0.00     0.127 C 
BRANCH  18  19
HETATM   19  C   UNL     1      46.326  -9.301   8.079  1.00  0.00     0.058 C 
BRANCH  19  20
HETATM   20  C   UNL     1      45.237  -9.184   9.120  1.00  0.00    -0.054 A 
HETATM   21  C   UNL     1      44.278  -8.163   9.032  1.00  0.00     0.046 A 
HETATM   22  C   UNL     1      43.293  -8.016  10.017  1.00  0.00     0.102 A 
HETATM   23  C   UNL     1      43.265  -8.904  11.111  1.00  0.00     0.101 A 
HETATM   24  C   UNL     1      44.219  -9.923  11.195  1.00  0.00     0.040 A 
HETATM   25  C   UNL     1      45.199 -10.060  10.208  1.00  0.00     0.010 A 
BRANCH  22  26
HETATM   26  O   UNL     1      42.327  -7.040  10.008  1.00  0.00    -0.353 OA
HETATM   27  C   UNL     1      42.754  -5.689   9.929  1.00  0.00     0.210 C 
ENDBRANCH  22  26
BRANCH  23  28
HETATM   28  O   UNL     1      42.274  -8.689  12.038  1.00  0.00    -0.353 OA
HETATM   29  C   UNL     1      41.858  -9.793  12.828  1.00  0.00     0.210 C 
ENDBRANCH  23  28
ENDBRANCH  19  20
ENDBRANCH  18  19
ENDBRANCH  15  18
ENDBRANCH  13  14
ENDBRANCH  12  13
ENDBRANCH   2  12
BRANCH   1  30
HETATM   30  C   UNL     1      42.117 -14.375   3.189  1.00  0.00     0.045 A 
HETATM   31  C   UNL     1      41.649 -14.635   4.483  1.00  0.00     0.054 A 
HETATM   32  C   UNL     1      42.050 -15.789   5.165  1.00  0.00     0.042 A 
HETATM   33  C   UNL     1      42.941 -16.698   4.575  1.00  0.00    -0.040 A 
HETATM   34 CL   UNL     1      41.430 -16.036   6.758  1.00  0.00    -0.084 Cl
HETATM   35  C   UNL     1      43.394 -17.944   5.286  1.00  0.00     0.050 C 
HETATM   36  C   UNL     1      43.404 -16.438   3.278  1.00  0.00     0.011 A 
HETATM   37  C   UNL     1      42.999 -15.289   2.593  1.00  0.00     0.031 A 
ENDBRANCH   1  30
BRANCH   6  38
HETATM   38  N   UNL     1      39.889 -14.156   1.357  1.00  0.00    -0.384 N 
HETATM   39  H   UNL     1      40.075 -14.735   0.551  1.00  0.00     0.157 HD
HETATM   40  H   UNL     1      39.130 -14.427   1.971  1.00  0.00     0.157 HD
ENDBRANCH   6  38
TORSDOF 10
ENDMDL
MODEL 6
REMARK VINA RESULT:      -8.2      3.101      5.725
REMARK  10 active torsions:
REMARK  status: ('A' for Active; 'I' for Inactive)
REMARK    1  A    between atoms: C_6  and  N_7 
REMARK    2  A    between atoms: C_8  and  S_9 
REMARK    3  A    between atoms: S_9  and  C_10 
REMARK    4  A    between atoms: C_10  and  C_11 
REMARK       I    between atoms: C_11  and  N_12 
REMARK    5  A    between atoms: N_12  and  C_13 
REMARK    6  A    between atoms: C_13  and  C_14 
REMARK    7  A    between atoms: C_14  and  C_15 
REMARK    8  A    between atoms: C_17  and  O_18 
REMARK    9  A    between atoms: C_20  and  O_21 
REMARK   10  A    between atoms: C_29  and  N_30 
ROOT
HETATM    1  N   UNL     1      40.433 -10.806   2.074  1.00  0.00    -0.276 N 
HETATM    2  C   UNL     1      39.574 -11.900   1.776  1.00  0.00     0.177 A 
HETATM    3  N   UNL     1      39.380 -12.947   2.545  1.00  0.00    -0.204 NA
HETATM    4  C   UNL     1      40.060 -12.910   3.710  1.00  0.00     0.162 A 
HETATM    5  C   UNL     1      40.925 -11.961   4.180  1.00  0.00     0.081 A 
HETATM    6  C   UNL     1      41.174 -10.836   3.330  1.00  0.00     0.124 A 
HETATM    7  N   UNL     1      39.994 -13.854   4.692  1.00  0.00    -0.260 N 
HETATM    8  H   UNL     1      39.442 -14.705   4.701  1.00  0.00     0.191 HD
HETATM    9  N   UNL     1      40.770 -13.563   5.758  1.00  0.00    -0.177 NA
HETATM   10  C   UNL     1      41.343 -12.388   5.449  1.00  0.00     0.068 A 
HETATM   11  C   UNL     1      42.265 -11.752   6.419  1.00  0.00     0.073 C 
ENDROOT
BRANCH   2  12
HETATM   12  S   UNL     1      38.642 -11.906   0.260  1.00  0.00    -0.082 SA
BRANCH  12  13
HETATM   13  C   UNL     1      39.806 -12.741  -0.853  1.00  0.00     0.185 C 
BRANCH  13  14
HETATM   14  C   UNL     1      40.193 -14.117  -0.332  1.00  0.00     0.227 C 
HETATM   15  N   UNL     1      41.356 -14.124   0.416  1.00  0.00    -0.360 N 
HETATM   16  H   UNL     1      41.913 -13.284   0.497  1.00  0.00     0.162 HD
HETATM   17  O   UNL     1      39.509 -15.123  -0.504  1.00  0.00    -0.273 OA
BRANCH  15  18
HETATM   18  C   UNL     1      41.812 -15.310   1.118  1.00  0.00     0.127 C 
BRANCH  18  19
HETATM   19  C   UNL     1      42.925 -15.016   2.126  1.00  0.00     0.058 C 
BRANCH  19  20
HETATM   20  C   UNL     1      43.174 -16.207   3.021  1.00  0.00    -0.054 A 
HETATM   21  C   UNL     1      43.148 -16.063   4.416  1.00  0.00     0.046 A 
HETATM   22  C   UNL     1      43.424 -17.150   5.256  1.00  0.00     0.102 A 
HETATM   23  C   UNL     1      43.733 -18.404   4.692  1.00  0.00     0.101 A 
HETATM   24  C   UNL     1      43.755 -18.547   3.302  1.00  0.00     0.040 A 
HETATM   25  C   UNL     1      43.480 -17.456   2.473  1.00  0.00     0.010 A 
BRANCH  22  26
HETATM   26  O   UNL     1      43.427 -17.090   6.629  1.00  0.00    -0.353 OA
HETATM   27  C   UNL     1      42.707 -16.033   7.244  1.00  0.00     0.210 C 
ENDBRANCH  22  26
BRANCH  23  28
HETATM   28  O   UNL     1      43.999 -19.417   5.581  1.00  0.00    -0.353 OA
HETATM   29  C   UNL     1      44.343 -20.689   5.051  1.00  0.00     0.210 C 
ENDBRANCH  23  28
ENDBRANCH  19  20
ENDBRANCH  18  19
ENDBRANCH  15  18
ENDBRANCH  13  14
ENDBRANCH  12  13
ENDBRANCH   2  12
BRANCH   1  30
HETATM   30  C   UNL     1      40.565  -9.688   1.197  1.00  0.00     0.045 A 
HETATM   31  C   UNL     1      41.597  -9.623   0.254  1.00  0.00     0.054 A 
HETATM   32  C   UNL     1      41.768  -8.480  -0.534  1.00  0.00     0.042 A 
HETATM   33  C   UNL     1      40.922  -7.371  -0.384  1.00  0.00    -0.040 A 
HETATM   34 CL   UNL     1      43.066  -8.478  -1.674  1.00  0.00    -0.084 Cl
HETATM   35  C   UNL     1      41.085  -6.127  -1.213  1.00  0.00     0.050 C 
HETATM   36  C   UNL     1      39.886  -7.440   0.558  1.00  0.00     0.011 A 
HETATM   37  C   UNL     1      39.710  -8.585   1.341  1.00  0.00     0.031 A 
ENDBRANCH   1  30
BRANCH   6  38
HETATM   38  N   UNL     1      42.055  -9.913   3.667  1.00  0.00    -0.384 N 
HETATM   39  H   UNL     1      42.107  -9.539   4.603  1.00  0.00     0.157 HD
HETATM   40  H   UNL     1      42.727  -9.580   2.985  1.00  0.00     0.157 HD
ENDBRANCH   6  38
TORSDOF 10
ENDMDL
MODEL 7
REMARK VINA RESULT:      -8.2      4.696      8.456
REMARK  10 active torsions:
REMARK  status: ('A' for Active; 'I' for Inactive)
REMARK    1  A    between atoms: C_6  and  N_7 
REMARK    2  A    between atoms: C_8  and  S_9 
REMARK    3  A    between atoms: S_9  and  C_10 
REMARK    4  A    between atoms: C_10  and  C_11 
REMARK       I    between atoms: C_11  and  N_12 
REMARK    5  A    between atoms: N_12  and  C_13 
REMARK    6  A    between atoms: C_13  and  C_14 
REMARK    7  A    between atoms: C_14  and  C_15 
REMARK    8  A    between atoms: C_17  and  O_18 
REMARK    9  A    between atoms: C_20  and  O_21 
REMARK   10  A    between atoms: C_29  and  N_30 
ROOT
HETATM    1  N   UNL     1      42.616 -11.927   6.210  1.00  0.00    -0.276 N 
HETATM    2  C   UNL     1      41.413 -11.188   6.391  1.00  0.00     0.177 A 
HETATM    3  N   UNL     1      41.316 -10.030   7.002  1.00  0.00    -0.204 NA
HETATM    4  C   UNL     1      42.492  -9.541   7.450  1.00  0.00     0.162 A 
HETATM    5  C   UNL     1      43.743 -10.088   7.377  1.00  0.00     0.081 A 
HETATM    6  C   UNL     1      43.852 -11.370   6.748  1.00  0.00     0.124 A 
HETATM    7  N   UNL     1      42.660  -8.342   8.077  1.00  0.00    -0.260 N 
HETATM    8  H   UNL     1      41.951  -7.651   8.299  1.00  0.00     0.191 HD
HETATM    9  N   UNL     1      43.945  -8.096   8.410  1.00  0.00    -0.177 NA
HETATM   10  C   UNL     1      44.621  -9.170   7.972  1.00  0.00     0.068 A 
HETATM   11  C   UNL     1      46.089  -9.233   8.161  1.00  0.00     0.073 C 
ENDROOT
BRANCH   2  12
HETATM   12  S   UNL     1      39.881 -11.821   5.746  1.00  0.00    -0.082 SA
BRANCH  12  13
HETATM   13  C   UNL     1      39.159 -10.315   5.039  1.00  0.00     0.185 C 
BRANCH  13  14
HETATM   14  C   UNL     1      39.237 -10.313   3.520  1.00  0.00     0.227 C 
HETATM   15  N   UNL     1      40.375  -9.707   3.021  1.00  0.00    -0.360 N 
HETATM   16  H   UNL     1      41.016  -9.237   3.646  1.00  0.00     0.162 HD
HETATM   17  O   UNL     1      38.401 -10.851   2.798  1.00  0.00    -0.273 OA
BRANCH  15  18
HETATM   18  C   UNL     1      40.703  -9.731   1.607  1.00  0.00     0.127 C 
BRANCH  18  19
HETATM   19  C   UNL     1      41.701 -10.833   1.243  1.00  0.00     0.058 C 
BRANCH  19  20
HETATM   20  C   UNL     1      41.105 -11.796   0.244  1.00  0.00    -0.054 A 
HETATM   21  C   UNL     1      40.699 -13.077   0.650  1.00  0.00     0.046 A 
HETATM   22  C   UNL     1      40.189 -13.995  -0.277  1.00  0.00     0.102 A 
HETATM   23  C   UNL     1      40.083 -13.630  -1.634  1.00  0.00     0.101 A 
HETATM   24  C   UNL     1      40.485 -12.352  -2.035  1.00  0.00     0.040 A 
HETATM   25  C   UNL     1      40.993 -11.443  -1.104  1.00  0.00     0.010 A 
BRANCH  22  26
HETATM   26  O   UNL     1      39.779 -15.269   0.037  1.00  0.00    -0.353 OA
HETATM   27  C   UNL     1      39.973 -15.714   1.371  1.00  0.00     0.210 C 
ENDBRANCH  22  26
BRANCH  23  28
HETATM   28  O   UNL     1      39.581 -14.588  -2.480  1.00  0.00    -0.353 OA
HETATM   29  C   UNL     1      38.289 -14.374  -3.029  1.00  0.00     0.210 C 
ENDBRANCH  23  28
ENDBRANCH  19  20
ENDBRANCH  18  19
ENDBRANCH  15  18
ENDBRANCH  13  14
ENDBRANCH  12  13
ENDBRANCH   2  12
BRANCH   1  30
HETATM   30  C   UNL     1      42.642 -13.166   5.504  1.00  0.00     0.045 A 
HETATM   31  C   UNL     1      42.593 -14.389   6.183  1.00  0.00     0.054 A 
HETATM   32  C   UNL     1      42.713 -15.595   5.484  1.00  0.00     0.042 A 
HETATM   33  C   UNL     1      42.903 -15.604   4.094  1.00  0.00    -0.040 A 
HETATM   34 CL   UNL     1      42.643 -17.061   6.396  1.00  0.00    -0.084 Cl
HETATM   35  C   UNL     1      43.041 -16.884   3.317  1.00  0.00     0.050 C 
HETATM   36  C   UNL     1      42.947 -14.378   3.416  1.00  0.00     0.011 A 
HETATM   37  C   UNL     1      42.820 -13.173   4.112  1.00  0.00     0.031 A 
ENDBRANCH   1  30
BRANCH   6  38
HETATM   38  N   UNL     1      45.006 -12.008   6.704  1.00  0.00    -0.384 N 
HETATM   39  H   UNL     1      45.517 -12.131   5.841  1.00  0.00     0.157 HD
HETATM   40  H   UNL     1      45.422 -12.366   7.556  1.00  0.00     0.157 HD
ENDBRANCH   6  38
TORSDOF 10
ENDMDL
MODEL 8
REMARK VINA RESULT:      -8.1      2.700      4.347
REMARK  10 active torsions:
REMARK  status: ('A' for Active; 'I' for Inactive)
REMARK    1  A    between atoms: C_6  and  N_7 
REMARK    2  A    between atoms: C_8  and  S_9 
REMARK    3  A    between atoms: S_9  and  C_10 
REMARK    4  A    between atoms: C_10  and  C_11 
REMARK       I    between atoms: C_11  and  N_12 
REMARK    5  A    between atoms: N_12  and  C_13 
REMARK    6  A    between atoms: C_13  and  C_14 
REMARK    7  A    between atoms: C_14  and  C_15 
REMARK    8  A    between atoms: C_17  and  O_18 
REMARK    9  A    between atoms: C_20  and  O_21 
REMARK   10  A    between atoms: C_29  and  N_30 
ROOT
HETATM    1  N   UNL     1      40.203 -10.065  -0.385  1.00  0.00    -0.276 N 
HETATM    2  C   UNL     1      39.094 -10.462  -1.183  1.00  0.00     0.177 A 
HETATM    3  N   UNL     1      38.847 -10.049  -2.404  1.00  0.00    -0.204 NA
HETATM    4  C   UNL     1      39.772  -9.199  -2.897  1.00  0.00     0.162 A 
HETATM    5  C   UNL     1      40.897  -8.700  -2.301  1.00  0.00     0.081 A 
HETATM    6  C   UNL     1      41.151  -9.113  -0.954  1.00  0.00     0.124 A 
HETATM    7  N   UNL     1      39.764  -8.666  -4.152  1.00  0.00    -0.260 N 
HETATM    8  H   UNL     1      39.083  -8.818  -4.889  1.00  0.00     0.191 HD
HETATM    9  N   UNL     1      40.816  -7.853  -4.388  1.00  0.00    -0.177 NA
HETATM   10  C   UNL     1      41.524  -7.876  -3.247  1.00  0.00     0.068 A 
HETATM   11  C   UNL     1      42.778  -7.091  -3.153  1.00  0.00     0.073 C 
ENDROOT
BRANCH   2  12
HETATM   12  S   UNL     1      37.913 -11.627  -0.537  1.00  0.00    -0.082 SA
BRANCH  12  13
HETATM   13  C   UNL     1      37.975 -12.918  -1.810  1.00  0.00     0.185 C 
BRANCH  13  14
HETATM   14  C   UNL     1      38.952 -14.025  -1.441  1.00  0.00     0.227 C 
HETATM   15  N   UNL     1      39.415 -13.950  -0.141  1.00  0.00    -0.360 N 
HETATM   16  H   UNL     1      39.174 -13.157   0.440  1.00  0.00     0.162 HD
HETATM   17  O   UNL     1      39.257 -14.939  -2.202  1.00  0.00    -0.273 OA
BRANCH  15  18
HETATM   18  C   UNL     1      40.239 -14.992   0.444  1.00  0.00     0.127 C 
BRANCH  18  19
HETATM   19  C   UNL     1      39.829 -15.345   1.875  1.00  0.00     0.058 C 
BRANCH  19  20
HETATM   20  C   UNL     1      40.960 -16.027   2.610  1.00  0.00    -0.054 A 
HETATM   21  C   UNL     1      41.030 -15.972   4.010  1.00  0.00     0.046 A 
HETATM   22  C   UNL     1      42.099 -16.559   4.699  1.00  0.00     0.102 A 
HETATM   23  C   UNL     1      43.118 -17.213   3.977  1.00  0.00     0.101 A 
HETATM   24  C   UNL     1      43.044 -17.270   2.582  1.00  0.00     0.040 A 
HETATM   25  C   UNL     1      41.974 -16.680   1.904  1.00  0.00     0.010 A 
BRANCH  22  26
HETATM   26  O   UNL     1      42.246 -16.541   6.065  1.00  0.00    -0.353 OA
HETATM   27  C   UNL     1      41.232 -15.907   6.830  1.00  0.00     0.210 C 
ENDBRANCH  22  26
BRANCH  23  28
HETATM   28  O   UNL     1      44.135 -17.755   4.724  1.00  0.00    -0.353 OA
HETATM   29  C   UNL     1      44.374 -19.150   4.600  1.00  0.00     0.210 C 
ENDBRANCH  23  28
ENDBRANCH  19  20
ENDBRANCH  18  19
ENDBRANCH  15  18
ENDBRANCH  13  14
ENDBRANCH  12  13
ENDBRANCH   2  12
BRANCH   1  30
HETATM   30  C   UNL     1      40.418 -10.586   0.925  1.00  0.00     0.045 A 
HETATM   31  C   UNL     1      41.456 -11.487   1.186  1.00  0.00     0.054 A 
HETATM   32  C   UNL     1      41.597 -12.061   2.454  1.00  0.00     0.042 A 
HETATM   33  C   UNL     1      40.693 -11.758   3.484  1.00  0.00    -0.040 A 
HETATM   34 CL   UNL     1      42.903 -13.165   2.695  1.00  0.00    -0.084 Cl
HETATM   35  C   UNL     1      40.816 -12.364   4.855  1.00  0.00     0.050 C 
HETATM   36  C   UNL     1      39.657 -10.852   3.221  1.00  0.00     0.011 A 
HETATM   37  C   UNL     1      39.519 -10.273   1.956  1.00  0.00     0.031 A 
ENDBRANCH   1  30
BRANCH   6  38
HETATM   38  N   UNL     1      42.169  -8.619  -0.273  1.00  0.00    -0.384 N 
HETATM   39  H   UNL     1      43.126  -8.778  -0.553  1.00  0.00     0.157 HD
HETATM   40  H   UNL     1      42.002  -8.037   0.538  1.00  0.00     0.157 HD
ENDBRANCH   6  38
TORSDOF 10
ENDMDL
MODEL 9
REMARK VINA RESULT:      -8.0      6.895     10.085
REMARK  10 active torsions:
REMARK  status: ('A' for Active; 'I' for Inactive)
REMARK    1  A    between atoms: C_6  and  N_7 
REMARK    2  A    between atoms: C_8  and  S_9 
REMARK    3  A    between atoms: S_9  and  C_10 
REMARK    4  A    between atoms: C_10  and  C_11 
REMARK       I    between atoms: C_11  and  N_12 
REMARK    5  A    between atoms: N_12  and  C_13 
REMARK    6  A    between atoms: C_13  and  C_14 
REMARK    7  A    between atoms: C_14  and  C_15 
REMARK    8  A    between atoms: C_17  and  O_18 
REMARK    9  A    between atoms: C_20  and  O_21 
REMARK   10  A    between atoms: C_29  and  N_30 
ROOT
HETATM    1  N   UNL     1      42.111  -9.241   9.524  1.00  0.00    -0.276 N 
HETATM    2  C   UNL     1      40.955  -8.799   8.822  1.00  0.00     0.177 A 
HETATM    3  N   UNL     1      39.816  -8.449   9.374  1.00  0.00    -0.204 NA
HETATM    4  C   UNL     1      39.814  -8.511  10.722  1.00  0.00     0.162 A 
HETATM    5  C   UNL     1      40.808  -8.905  11.574  1.00  0.00     0.081 A 
HETATM    6  C   UNL     1      42.039  -9.327  10.979  1.00  0.00     0.124 A 
HETATM    7  N   UNL     1      38.770  -8.160  11.526  1.00  0.00    -0.260 N 
HETATM    8  H   UNL     1      37.860  -7.809  11.246  1.00  0.00     0.191 HD
HETATM    9  N   UNL     1      39.041  -8.310  12.840  1.00  0.00    -0.177 NA
HETATM   10  C   UNL     1      40.304  -8.764  12.876  1.00  0.00     0.068 A 
HETATM   11  C   UNL     1      40.944  -9.031  14.185  1.00  0.00     0.073 C 
ENDROOT
BRANCH   2  12
HETATM   12  S   UNL     1      40.994  -8.670   7.047  1.00  0.00    -0.082 SA
BRANCH  12  13
HETATM   13  C   UNL     1      39.484  -9.573   6.606  1.00  0.00     0.185 C 
BRANCH  13  14
HETATM   14  C   UNL     1      39.750 -11.060   6.426  1.00  0.00     0.227 C 
HETATM   15  N   UNL     1      40.884 -11.338   5.686  1.00  0.00    -0.360 N 
HETATM   16  H   UNL     1      41.399 -10.588   5.244  1.00  0.00     0.162 HD
HETATM   17  O   UNL     1      39.061 -11.938   6.939  1.00  0.00    -0.273 OA
BRANCH  15  18
HETATM   18  C   UNL     1      41.386 -12.691   5.526  1.00  0.00     0.127 C 
BRANCH  18  19
HETATM   19  C   UNL     1      41.203 -13.232   4.106  1.00  0.00     0.058 C 
BRANCH  19  20
HETATM   20  C   UNL     1      41.885 -14.570   3.945  1.00  0.00    -0.054 A 
HETATM   21  C   UNL     1      42.783 -15.030   4.920  1.00  0.00     0.046 A 
HETATM   22  C   UNL     1      43.458 -16.247   4.758  1.00  0.00     0.102 A 
HETATM   23  C   UNL     1      43.234 -17.018   3.600  1.00  0.00     0.101 A 
HETATM   24  C   UNL     1      42.336 -16.560   2.631  1.00  0.00     0.040 A 
HETATM   25  C   UNL     1      41.669 -15.344   2.801  1.00  0.00     0.010 A 
BRANCH  22  26
HETATM   26  O   UNL     1      44.357 -16.762   5.660  1.00  0.00    -0.353 OA
HETATM   27  C   UNL     1      43.959 -16.834   7.021  1.00  0.00     0.210 C 
ENDBRANCH  22  26
BRANCH  23  28
HETATM   28  O   UNL     1      43.939 -18.194   3.512  1.00  0.00    -0.353 OA
HETATM   29  C   UNL     1      43.528 -19.139   2.534  1.00  0.00     0.210 C 
ENDBRANCH  23  28
ENDBRANCH  19  20
ENDBRANCH  18  19
ENDBRANCH  15  18
ENDBRANCH  13  14
ENDBRANCH  12  13
ENDBRANCH   2  12
BRANCH   1  30
HETATM   30  C   UNL     1      43.323  -9.574   8.850  1.00  0.00     0.045 A 
HETATM   31  C   UNL     1      43.460 -10.782   8.157  1.00  0.00     0.054 A 
HETATM   32  C   UNL     1      44.684 -11.135   7.580  1.00  0.00     0.042 A 
HETATM   33  C   UNL     1      45.803 -10.297   7.699  1.00  0.00    -0.040 A 
HETATM   34 CL   UNL     1      44.771 -12.643   6.742  1.00  0.00    -0.084 Cl
HETATM   35  C   UNL     1      47.133 -10.653   7.094  1.00  0.00     0.050 C 
HETATM   36  C   UNL     1      45.662  -9.085   8.390  1.00  0.00     0.011 A 
HETATM   37  C   UNL     1      44.437  -8.728   8.961  1.00  0.00     0.031 A 
ENDBRANCH   1  30
BRANCH   6  38
HETATM   38  N   UNL     1      43.025  -9.798  11.719  1.00  0.00    -0.384 N 
HETATM   39  H   UNL     1      43.047  -9.676  12.721  1.00  0.00     0.157 HD
HETATM   40  H   UNL     1      43.775 -10.327  11.289  1.00  0.00     0.157 HD
ENDBRANCH   6  38
TORSDOF 10
ENDMDL
MODEL 10
REMARK VINA RESULT:      -7.8      7.405     10.580
REMARK  10 active torsions:
REMARK  status: ('A' for Active; 'I' for Inactive)
REMARK    1  A    between atoms: C_6  and  N_7 
REMARK    2  A    between atoms: C_8  and  S_9 
REMARK    3  A    between atoms: S_9  and  C_10 
REMARK    4  A    between atoms: C_10  and  C_11 
REMARK       I    between atoms: C_11  and  N_12 
REMARK    5  A    between atoms: N_12  and  C_13 
REMARK    6  A    between atoms: C_13  and  C_14 
REMARK    7  A    between atoms: C_14  and  C_15 
REMARK    8  A    between atoms: C_17  and  O_18 
REMARK    9  A    between atoms: C_20  and  O_21 
REMARK   10  A    between atoms: C_29  and  N_30 
ROOT
HETATM    1  N   UNL     1      42.851 -13.953   4.384  1.00  0.00    -0.276 N 
HETATM    2  C   UNL     1      43.278 -12.743   5.000  1.00  0.00     0.177 A 
HETATM    3  N   UNL     1      43.147 -11.542   4.489  1.00  0.00    -0.204 NA
HETATM    4  C   UNL     1      42.525 -11.515   3.291  1.00  0.00     0.162 A 
HETATM    5  C   UNL     1      42.044 -12.552   2.541  1.00  0.00     0.081 A 
HETATM    6  C   UNL     1      42.220 -13.870   3.072  1.00  0.00     0.124 A 
HETATM    7  N   UNL     1      42.234 -10.390   2.579  1.00  0.00    -0.260 N 
HETATM    8  H   UNL     1      42.431  -9.426   2.828  1.00  0.00     0.191 HD
HETATM    9  N   UNL     1      41.597 -10.651   1.416  1.00  0.00    -0.177 NA
HETATM   10  C   UNL     1      41.471 -11.987   1.392  1.00  0.00     0.068 A 
HETATM   11  C   UNL     1      40.793 -12.633   0.243  1.00  0.00     0.073 C 
ENDROOT
BRANCH   2  12
HETATM   12  S   UNL     1      44.046 -12.792   6.605  1.00  0.00    -0.082 SA
BRANCH  12  13
HETATM   13  C   UNL     1      44.217 -11.021   6.955  1.00  0.00     0.185 C 
BRANCH  13  14
HETATM   14  C   UNL     1      44.589 -10.769   8.409  1.00  0.00     0.227 C 
HETATM   15  N   UNL     1      43.500 -10.551   9.233  1.00  0.00    -0.360 N 
HETATM   16  H   UNL     1      42.571 -10.478   8.840  1.00  0.00     0.162 HD
HETATM   17  O   UNL     1      45.741 -10.814   8.831  1.00  0.00    -0.273 OA
BRANCH  15  18
HETATM   18  C   UNL     1      43.637 -10.435  10.674  1.00  0.00     0.127 C 
BRANCH  18  19
HETATM   19  C   UNL     1      43.954  -9.010  11.132  1.00  0.00     0.058 C 
BRANCH  19  20
HETATM   20  C   UNL     1      42.983  -8.553  12.194  1.00  0.00    -0.054 A 
HETATM   21  C   UNL     1      42.464  -7.249  12.166  1.00  0.00     0.046 A 
HETATM   22  C   UNL     1      41.600  -6.799  13.172  1.00  0.00     0.102 A 
HETATM   23  C   UNL     1      41.247  -7.665  14.227  1.00  0.00     0.101 A 
HETATM   24  C   UNL     1      41.762  -8.965  14.251  1.00  0.00     0.040 A 
HETATM   25  C   UNL     1      42.625  -9.404  13.243  1.00  0.00     0.010 A 
BRANCH  22  26
HETATM   26  O   UNL     1      41.057  -5.538  13.223  1.00  0.00    -0.353 OA
HETATM   27  C   UNL     1      41.950  -4.439  13.320  1.00  0.00     0.210 C 
ENDBRANCH  22  26
BRANCH  23  28
HETATM   28  O   UNL     1      40.402  -7.147  15.178  1.00  0.00    -0.353 OA
HETATM   29  C   UNL     1      40.888  -7.045  16.508  1.00  0.00     0.210 C 
ENDBRANCH  23  28
ENDBRANCH  19  20
ENDBRANCH  18  19
ENDBRANCH  15  18
ENDBRANCH  13  14
ENDBRANCH  12  13
ENDBRANCH   2  12
BRANCH   1  30
HETATM   30  C   UNL     1      43.001 -15.220   5.022  1.00  0.00     0.045 A 
HETATM   31  C   UNL     1      43.777 -16.234   4.447  1.00  0.00     0.054 A 
HETATM   32  C   UNL     1      43.841 -17.501   5.037  1.00  0.00     0.042 A 
HETATM   33  C   UNL     1      43.116 -17.787   6.204  1.00  0.00    -0.040 A 
HETATM   34 CL   UNL     1      44.820 -18.697   4.266  1.00  0.00    -0.084 Cl
HETATM   35  C   UNL     1      43.160 -19.141   6.857  1.00  0.00     0.050 C 
HETATM   36  C   UNL     1      42.344 -16.769   6.780  1.00  0.00     0.011 A 
HETATM   37  C   UNL     1      42.285 -15.501   6.195  1.00  0.00     0.031 A 
ENDBRANCH   1  30
BRANCH   6  38
HETATM   38  N   UNL     1      41.859 -14.934   2.380  1.00  0.00    -0.384 N 
HETATM   39  H   UNL     1      41.681 -15.825   2.822  1.00  0.00     0.157 HD
HETATM   40  H   UNL     1      41.721 -14.866   1.378  1.00  0.00     0.157 HD
ENDBRANCH   6  38
TORSDOF 10
ENDMDL
