MODEL 1
REMARK VINA RESULT:      -9.1      0.000      0.000
REMARK  5 active torsions:
REMARK  status: ('A' for Active; 'I' for Inactive)
REMARK    1  A    between atoms: C_7  and  C_8 
REMARK    2  A    between atoms: C_8  and  C_9 
REMARK    3  A    between atoms: C_9  and  N_10 
REMARK       I    between atoms: N_10  and  C_11 
REMARK       I    between atoms: C_11  and  N_12 
REMARK    4  A    between atoms: N_12  and  C_13 
REMARK    5  A    between atoms: C_14  and  O_15 
ROOT
HETATM    1  C   UNL     1      41.450 -15.649   2.715  1.00  0.00     0.129 C 
ENDROOT
BRANCH   1   2
HETATM    2  C   UNL     1      42.930 -15.574   3.106  1.00  0.00     0.061 C 
BRANCH   2   3
HETATM    3  C   UNL     1      43.383 -16.727   3.957  1.00  0.00    -0.022 A 
HETATM    4  C   UNL     1      43.748 -16.671   5.295  1.00  0.00     0.013 A 
HETATM    5  C   UNL     1      43.810 -15.526   6.241  1.00  0.00     0.068 C 
HETATM    6  N   UNL     1      44.072 -17.944   5.695  1.00  0.00    -0.356 N 
HETATM    7  H   UNL     1      44.367 -18.213   6.625  1.00  0.00     0.166 HD
HETATM    8  C   UNL     1      43.929 -18.824   4.652  1.00  0.00     0.082 A 
HETATM    9  C   UNL     1      43.504 -18.093   3.544  1.00  0.00     0.005 A 
HETATM   10  C   UNL     1      44.140 -20.203   4.605  1.00  0.00     0.146 A 
HETATM   11  C   UNL     1      43.285 -18.786   2.335  1.00  0.00     0.056 A 
HETATM   12  C   UNL     1      43.496 -20.167   2.297  1.00  0.00     0.120 A 
HETATM   13  C   UNL     1      43.918 -20.878   3.410  1.00  0.00     0.086 A 
HETATM   14  F   UNL     1      43.286 -20.823   1.146  1.00  0.00    -0.206 F 
HETATM   15  F   UNL     1      44.548 -20.873   5.690  1.00  0.00    -0.204 F 
ENDBRANCH   2   3
ENDBRANCH   1   2
BRANCH   1  16
HETATM   16  N   UNL     1      40.719 -14.431   3.033  1.00  0.00    -0.343 N 
HETATM   17  C   UNL     1      40.161 -13.600   2.097  1.00  0.00     0.320 C 
HETATM   18  N   UNL     1      40.849 -13.522   0.916  1.00  0.00    -0.303 N 
HETATM   19  O   UNL     1      39.146 -12.980   2.395  1.00  0.00    -0.247 OA
HETATM   20  H   UNL     1      41.852 -13.579   0.986  1.00  0.00     0.171 HD
HETATM   21  H   UNL     1      40.089 -14.497   3.826  1.00  0.00     0.164 HD
BRANCH  18  22
HETATM   22  C   UNL     1      40.324 -12.967  -0.238  1.00  0.00     0.115 A 
HETATM   23  C   UNL     1      39.542 -13.538  -1.266  1.00  0.00     0.212 A 
HETATM   24  N   UNL     1      39.254 -12.677  -2.241  1.00  0.00    -0.145 NA
HETATM   25  N   UNL     1      39.843 -11.538  -1.832  1.00  0.00    -0.274 N 
HETATM   26  C   UNL     1      39.725 -10.359  -2.661  1.00  0.00     0.180 C 
HETATM   27  C   UNL     1      40.527 -11.659  -0.643  1.00  0.00     0.057 A 
HETATM   28  C   UNL     1      41.265 -10.546   0.004  1.00  0.00     0.072 C 
BRANCH  23  29
HETATM   29  O   UNL     1      39.231 -14.840  -1.426  1.00  0.00    -0.337 OA
HETATM   30  C   UNL     1      38.708 -15.116  -2.719  1.00  0.00     0.212 C 
ENDBRANCH  23  29
ENDBRANCH  18  22
ENDBRANCH   1  16
TORSDOF 5
ENDMDL
MODEL 2
REMARK VINA RESULT:      -9.0      1.067      2.166
REMARK  5 active torsions:
REMARK  status: ('A' for Active; 'I' for Inactive)
REMARK    1  A    between atoms: C_7  and  C_8 
REMARK    2  A    between atoms: C_8  and  C_9 
REMARK    3  A    between atoms: C_9  and  N_10 
REMARK       I    between atoms: N_10  and  C_11 
REMARK       I    between atoms: C_11  and  N_12 
REMARK    4  A    between atoms: N_12  and  C_13 
REMARK    5  A    between atoms: C_14  and  O_15 
ROOT
HETATM    1  C   UNL     1      41.373 -15.753   2.794  1.00  0.00     0.129 C 
ENDROOT
BRANCH   1   2
HETATM    2  C   UNL     1      42.866 -15.669   3.128  1.00  0.00     0.061 C 
BRANCH   2   3
HETATM    3  C   UNL     1      43.357 -16.819   3.962  1.00  0.00    -0.022 A 
HETATM    4  C   UNL     1      43.750 -16.765   5.293  1.00  0.00     0.013 A 
HETATM    5  C   UNL     1      43.814 -15.624   6.244  1.00  0.00     0.068 C 
HETATM    6  N   UNL     1      44.104 -18.034   5.678  1.00  0.00    -0.356 N 
HETATM    7  H   UNL     1      44.425 -18.303   6.599  1.00  0.00     0.166 HD
HETATM    8  C   UNL     1      43.953 -18.910   4.633  1.00  0.00     0.082 A 
HETATM    9  C   UNL     1      43.491 -18.181   3.539  1.00  0.00     0.005 A 
HETATM   10  C   UNL     1      44.186 -20.285   4.573  1.00  0.00     0.146 A 
HETATM   11  C   UNL     1      43.257 -18.870   2.331  1.00  0.00     0.056 A 
HETATM   12  C   UNL     1      43.491 -20.247   2.280  1.00  0.00     0.120 A 
HETATM   13  C   UNL     1      43.949 -20.957   3.380  1.00  0.00     0.086 A 
HETATM   14  F   UNL     1      43.266 -20.901   1.130  1.00  0.00    -0.206 F 
HETATM   15  F   UNL     1      44.629 -20.954   5.645  1.00  0.00    -0.204 F 
ENDBRANCH   2   3
ENDBRANCH   1   2
BRANCH   1  16
HETATM   16  N   UNL     1      40.636 -14.562   3.194  1.00  0.00    -0.343 N 
HETATM   17  C   UNL     1      40.298 -13.543   2.345  1.00  0.00     0.320 C 
HETATM   18  N   UNL     1      41.202 -13.305   1.345  1.00  0.00    -0.303 N 
HETATM   19  O   UNL     1      39.266 -12.916   2.562  1.00  0.00    -0.247 OA
HETATM   20  H   UNL     1      42.170 -13.442   1.585  1.00  0.00     0.171 HD
HETATM   21  H   UNL     1      39.864 -14.723   3.833  1.00  0.00     0.164 HD
BRANCH  18  22
HETATM   22  C   UNL     1      40.928 -12.519   0.239  1.00  0.00     0.115 A 
HETATM   23  C   UNL     1      41.279 -11.183  -0.056  1.00  0.00     0.212 A 
HETATM   24  N   UNL     1      40.796 -10.762  -1.225  1.00  0.00    -0.145 NA
HETATM   25  N   UNL     1      40.138 -11.840  -1.693  1.00  0.00    -0.274 N 
HETATM   26  C   UNL     1      39.483 -11.748  -2.978  1.00  0.00     0.180 C 
HETATM   27  C   UNL     1      40.161 -12.921  -0.841  1.00  0.00     0.057 A 
HETATM   28  C   UNL     1      39.500 -14.218  -1.131  1.00  0.00     0.072 C 
BRANCH  23  29
HETATM   29  O   UNL     1      41.873 -10.295   0.767  1.00  0.00    -0.337 OA
HETATM   30  C   UNL     1      40.949  -9.680   1.655  1.00  0.00     0.212 C 
ENDBRANCH  23  29
ENDBRANCH  18  22
ENDBRANCH   1  16
TORSDOF 5
ENDMDL
MODEL 3
REMARK VINA RESULT:      -8.7      3.655      5.733
REMARK  5 active torsions:
REMARK  status: ('A' for Active; 'I' for Inactive)
REMARK    1  A    between atoms: C_7  and  C_8 
REMARK    2  A    between atoms: C_8  and  C_9 
REMARK    3  A    between atoms: C_9  and  N_10 
REMARK       I    between atoms: N_10  and  C_11 
REMARK       I    between atoms: C_11  and  N_12 
REMARK    4  A    between atoms: N_12  and  C_13 
REMARK    5  A    between atoms: C_14  and  O_15 
ROOT
HETATM    1  C   UNL     1      42.135 -14.620   3.456  1.00  0.00     0.129 C 
ENDROOT
BRANCH   1   2
HETATM    2  C   UNL     1      43.208 -15.564   2.901  1.00  0.00     0.061 C 
BRANCH   2   3
HETATM    3  C   UNL     1      43.533 -16.706   3.822  1.00  0.00    -0.022 A 
HETATM    4  C   UNL     1      43.814 -16.618   5.179  1.00  0.00     0.013 A 
HETATM    5  C   UNL     1      43.884 -15.441   6.084  1.00  0.00     0.068 C 
HETATM    6  N   UNL     1      44.033 -17.890   5.646  1.00  0.00    -0.356 N 
HETATM    7  H   UNL     1      44.251 -18.139   6.602  1.00  0.00     0.166 HD
HETATM    8  C   UNL     1      43.904 -18.802   4.628  1.00  0.00     0.082 A 
HETATM    9  C   UNL     1      43.597 -18.093   3.468  1.00  0.00     0.005 A 
HETATM   10  C   UNL     1      44.034 -20.192   4.645  1.00  0.00     0.146 A 
HETATM   11  C   UNL     1      43.415 -18.819   2.273  1.00  0.00     0.056 A 
HETATM   12  C   UNL     1      43.544 -20.211   2.299  1.00  0.00     0.120 A 
HETATM   13  C   UNL     1      43.849 -20.900   3.464  1.00  0.00     0.086 A 
HETATM   14  F   UNL     1      43.369 -20.900   1.162  1.00  0.00    -0.206 F 
HETATM   15  F   UNL     1      44.329 -20.839   5.779  1.00  0.00    -0.204 F 
ENDBRANCH   2   3
ENDBRANCH   1   2
BRANCH   1  16
HETATM   16  N   UNL     1      42.278 -13.255   2.969  1.00  0.00    -0.343 N 
HETATM   17  C   UNL     1      42.514 -12.171   3.772  1.00  0.00     0.320 C 
HETATM   18  N   UNL     1      41.944 -12.242   5.015  1.00  0.00    -0.303 N 
HETATM   19  O   UNL     1      43.161 -11.233   3.316  1.00  0.00    -0.247 OA
HETATM   20  H   UNL     1      41.051 -12.703   5.064  1.00  0.00     0.171 HD
HETATM   21  H   UNL     1      42.818 -13.152   2.116  1.00  0.00     0.164 HD
BRANCH  18  22
HETATM   22  C   UNL     1      42.280 -11.396   6.058  1.00  0.00     0.115 A 
HETATM   23  C   UNL     1      43.479 -11.266   6.794  1.00  0.00     0.212 A 
HETATM   24  N   UNL     1      43.403 -10.348   7.756  1.00  0.00    -0.145 NA
HETATM   25  N   UNL     1      42.149  -9.873   7.632  1.00  0.00    -0.274 N 
HETATM   26  C   UNL     1      41.711  -8.828   8.530  1.00  0.00     0.180 C 
HETATM   27  C   UNL     1      41.415 -10.487   6.642  1.00  0.00     0.057 A 
HETATM   28  C   UNL     1      40.008 -10.144   6.322  1.00  0.00     0.072 C 
BRANCH  23  29
HETATM   29  O   UNL     1      44.566 -12.061   6.728  1.00  0.00    -0.337 OA
HETATM   30  C   UNL     1      45.755 -11.329   6.464  1.00  0.00     0.212 C 
ENDBRANCH  23  29
ENDBRANCH  18  22
ENDBRANCH   1  16
TORSDOF 5
ENDMDL
MODEL 4
REMARK VINA RESULT:      -8.6      3.469      5.427
REMARK  5 active torsions:
REMARK  status: ('A' for Active; 'I' for Inactive)
REMARK    1  A    between atoms: C_7  and  C_8 
REMARK    2  A    between atoms: C_8  and  C_9 
REMARK    3  A    between atoms: C_9  and  N_10 
REMARK       I    between atoms: N_10  and  C_11 
REMARK       I    between atoms: C_11  and  N_12 
REMARK    4  A    between atoms: N_12  and  C_13 
REMARK    5  A    between atoms: C_14  and  O_15 
ROOT
HETATM    1  C   UNL     1      41.711 -15.203   3.780  1.00  0.00     0.129 C 
ENDROOT
BRANCH   1   2
HETATM    2  C   UNL     1      43.184 -15.614   3.683  1.00  0.00     0.061 C 
BRANCH   2   3
HETATM    3  C   UNL     1      43.500 -16.887   4.416  1.00  0.00    -0.022 A 
HETATM    4  C   UNL     1      43.715 -17.022   5.781  1.00  0.00     0.013 A 
HETATM    5  C   UNL     1      43.711 -16.012   6.872  1.00  0.00     0.068 C 
HETATM    6  N   UNL     1      43.949 -18.350   6.040  1.00  0.00    -0.356 N 
HETATM    7  H   UNL     1      44.130 -18.750   6.952  1.00  0.00     0.166 HD
HETATM    8  C   UNL     1      43.892 -19.081   4.880  1.00  0.00     0.082 A 
HETATM    9  C   UNL     1      43.619 -18.194   3.840  1.00  0.00     0.005 A 
HETATM   10  C   UNL     1      44.060 -20.451   4.672  1.00  0.00     0.146 A 
HETATM   11  C   UNL     1      43.512 -18.714   2.533  1.00  0.00     0.056 A 
HETATM   12  C   UNL     1      43.679 -20.088   2.335  1.00  0.00     0.120 A 
HETATM   13  C   UNL     1      43.949 -20.955   3.382  1.00  0.00     0.086 A 
HETATM   14  F   UNL     1      43.575 -20.580   1.091  1.00  0.00    -0.206 F 
HETATM   15  F   UNL     1      44.321 -21.273   5.696  1.00  0.00    -0.204 F 
ENDBRANCH   2   3
ENDBRANCH   1   2
BRANCH   1  16
HETATM   16  N   UNL     1      41.444 -13.908   3.171  1.00  0.00    -0.343 N 
HETATM   17  C   UNL     1      41.689 -12.705   3.779  1.00  0.00     0.320 C 
HETATM   18  N   UNL     1      41.523 -12.705   5.138  1.00  0.00    -0.303 N 
HETATM   19  O   UNL     1      41.987 -11.744   3.077  1.00  0.00    -0.247 OA
HETATM   20  H   UNL     1      40.786 -13.292   5.492  1.00  0.00     0.171 HD
HETATM   21  H   UNL     1      41.689 -13.831   2.188  1.00  0.00     0.164 HD
BRANCH  18  22
HETATM   22  C   UNL     1      41.975 -11.688   5.961  1.00  0.00     0.115 A 
HETATM   23  C   UNL     1      41.338 -10.510   6.410  1.00  0.00     0.212 A 
HETATM   24  N   UNL     1      42.122  -9.753   7.177  1.00  0.00    -0.145 NA
HETATM   25  N   UNL     1      43.269 -10.456   7.234  1.00  0.00    -0.274 N 
HETATM   26  C   UNL     1      44.368  -9.927   8.010  1.00  0.00     0.180 C 
HETATM   27  C   UNL     1      43.249 -11.619   6.498  1.00  0.00     0.057 A 
HETATM   28  C   UNL     1      44.396 -12.555   6.397  1.00  0.00     0.072 C 
BRANCH  23  29
HETATM   29  O   UNL     1      40.144 -10.026   6.012  1.00  0.00    -0.337 OA
HETATM   30  C   UNL     1      39.074 -10.493   6.823  1.00  0.00     0.212 C 
ENDBRANCH  23  29
ENDBRANCH  18  22
ENDBRANCH   1  16
TORSDOF 5
ENDMDL
MODEL 5
REMARK VINA RESULT:      -8.6      2.143      2.922
REMARK  5 active torsions:
REMARK  status: ('A' for Active; 'I' for Inactive)
REMARK    1  A    between atoms: C_7  and  C_8 
REMARK    2  A    between atoms: C_8  and  C_9 
REMARK    3  A    between atoms: C_9  and  N_10 
REMARK       I    between atoms: N_10  and  C_11 
REMARK       I    between atoms: C_11  and  N_12 
REMARK    4  A    between atoms: N_12  and  C_13 
REMARK    5  A    between atoms: C_14  and  O_15 
ROOT
HETATM    1  C   UNL     1      41.539 -15.797   1.913  1.00  0.00     0.129 C 
ENDROOT
BRANCH   1   2
HETATM    2  C   UNL     1      42.915 -15.569   2.547  1.00  0.00     0.061 C 
BRANCH   2   3
HETATM    3  C   UNL     1      43.303 -16.636   3.532  1.00  0.00    -0.022 A 
HETATM    4  C   UNL     1      43.564 -16.456   4.884  1.00  0.00     0.013 A 
HETATM    5  C   UNL     1      43.550 -15.230   5.723  1.00  0.00     0.068 C 
HETATM    6  N   UNL     1      43.858 -17.685   5.422  1.00  0.00    -0.356 N 
HETATM    7  H   UNL     1      44.082 -17.866   6.392  1.00  0.00     0.166 HD
HETATM    8  C   UNL     1      43.798 -18.657   4.455  1.00  0.00     0.082 A 
HETATM    9  C   UNL     1      43.459 -18.033   3.255  1.00  0.00     0.005 A 
HETATM   10  C   UNL     1      44.016 -20.032   4.550  1.00  0.00     0.146 A 
HETATM   11  C   UNL     1      43.336 -18.834   2.101  1.00  0.00     0.056 A 
HETATM   12  C   UNL     1      43.553 -20.211   2.205  1.00  0.00     0.120 A 
HETATM   13  C   UNL     1      43.888 -20.814   3.408  1.00  0.00     0.086 A 
HETATM   14  F   UNL     1      43.433 -20.971   1.106  1.00  0.00    -0.206 F 
HETATM   15  F   UNL     1      44.340 -20.597   5.720  1.00  0.00    -0.204 F 
ENDBRANCH   2   3
ENDBRANCH   1   2
BRANCH   1  16
HETATM   16  N   UNL     1      41.310 -14.958   0.744  1.00  0.00    -0.343 N 
HETATM   17  C   UNL     1      40.673 -13.746   0.778  1.00  0.00     0.320 C 
HETATM   18  N   UNL     1      39.680 -13.646   1.715  1.00  0.00    -0.303 N 
HETATM   19  O   UNL     1      41.002 -12.888  -0.034  1.00  0.00    -0.247 OA
HETATM   20  H   UNL     1      39.149 -14.484   1.886  1.00  0.00     0.171 HD
HETATM   21  H   UNL     1      42.086 -14.900   0.093  1.00  0.00     0.164 HD
BRANCH  18  22
HETATM   22  C   UNL     1      39.108 -12.444   2.096  1.00  0.00     0.115 A 
HETATM   23  C   UNL     1      38.242 -11.572   1.400  1.00  0.00     0.212 A 
HETATM   24  N   UNL     1      37.929 -10.481   2.100  1.00  0.00    -0.145 NA
HETATM   25  N   UNL     1      38.588 -10.659   3.260  1.00  0.00    -0.274 N 
HETATM   26  C   UNL     1      38.466  -9.649   4.288  1.00  0.00     0.180 C 
HETATM   27  C   UNL     1      39.338 -11.812   3.305  1.00  0.00     0.057 A 
HETATM   28  C   UNL     1      40.158 -12.221   4.472  1.00  0.00     0.072 C 
BRANCH  23  29
HETATM   29  O   UNL     1      37.869 -11.652   0.107  1.00  0.00    -0.337 OA
HETATM   30  C   UNL     1      37.028 -10.575  -0.281  1.00  0.00     0.212 C 
ENDBRANCH  23  29
ENDBRANCH  18  22
ENDBRANCH   1  16
TORSDOF 5
ENDMDL
MODEL 6
REMARK VINA RESULT:      -8.2      4.349      6.608
REMARK  5 active torsions:
REMARK  status: ('A' for Active; 'I' for Inactive)
REMARK    1  A    between atoms: C_7  and  C_8 
REMARK    2  A    between atoms: C_8  and  C_9 
REMARK    3  A    between atoms: C_9  and  N_10 
REMARK       I    between atoms: N_10  and  C_11 
REMARK       I    between atoms: C_11  and  N_12 
REMARK    4  A    between atoms: N_12  and  C_13 
REMARK    5  A    between atoms: C_14  and  O_15 
ROOT
HETATM    1  C   UNL     1      41.941 -14.470   5.531  1.00  0.00     0.129 C 
ENDROOT
BRANCH   1   2
HETATM    2  C   UNL     1      43.353 -14.968   5.206  1.00  0.00     0.061 C 
BRANCH   2   3
HETATM    3  C   UNL     1      43.385 -16.014   4.127  1.00  0.00    -0.022 A 
HETATM    4  C   UNL     1      43.267 -15.795   2.762  1.00  0.00     0.013 A 
HETATM    5  C   UNL     1      43.075 -14.539   1.989  1.00  0.00     0.068 C 
HETATM    6  N   UNL     1      43.370 -17.010   2.131  1.00  0.00    -0.356 N 
HETATM    7  H   UNL     1      43.330 -17.162   1.131  1.00  0.00     0.166 HD
HETATM    8  C   UNL     1      43.551 -18.012   3.051  1.00  0.00     0.082 A 
HETATM    9  C   UNL     1      43.559 -17.424   4.314  1.00  0.00     0.005 A 
HETATM   10  C   UNL     1      43.709 -19.386   2.863  1.00  0.00     0.146 A 
HETATM   11  C   UNL     1      43.732 -18.260   5.437  1.00  0.00     0.056 A 
HETATM   12  C   UNL     1      43.891 -19.635   5.239  1.00  0.00     0.120 A 
HETATM   13  C   UNL     1      43.882 -20.202   3.975  1.00  0.00     0.086 A 
HETATM   14  F   UNL     1      44.058 -20.428   6.309  1.00  0.00    -0.206 F 
HETATM   15  F   UNL     1      43.697 -19.917   1.634  1.00  0.00    -0.204 F 
ENDBRANCH   2   3
ENDBRANCH   1   2
BRANCH   1  16
HETATM   16  N   UNL     1      41.593 -13.250   4.816  1.00  0.00    -0.343 N 
HETATM   17  C   UNL     1      41.976 -11.994   5.205  1.00  0.00     0.320 C 
HETATM   18  N   UNL     1      42.070 -11.816   6.559  1.00  0.00    -0.303 N 
HETATM   19  O   UNL     1      42.157 -11.142   4.341  1.00  0.00    -0.247 OA
HETATM   20  H   UNL     1      41.400 -12.319   7.117  1.00  0.00     0.171 HD
HETATM   21  H   UNL     1      41.648 -13.308   3.804  1.00  0.00     0.164 HD
BRANCH  18  22
HETATM   22  C   UNL     1      42.693 -10.727   7.144  1.00  0.00     0.115 A 
HETATM   23  C   UNL     1      44.040 -10.523   7.519  1.00  0.00     0.212 A 
HETATM   24  N   UNL     1      44.248  -9.338   8.091  1.00  0.00    -0.145 NA
HETATM   25  N   UNL     1      43.028  -8.768   8.073  1.00  0.00    -0.274 N 
HETATM   26  C   UNL     1      42.877  -7.437   8.618  1.00  0.00     0.180 C 
HETATM   27  C   UNL     1      42.045  -9.569   7.539  1.00  0.00     0.057 A 
HETATM   28  C   UNL     1      40.622  -9.166   7.421  1.00  0.00     0.072 C 
BRANCH  23  29
HETATM   29  O   UNL     1      45.035 -11.432   7.511  1.00  0.00    -0.337 OA
HETATM   30  C   UNL     1      45.731 -11.461   6.272  1.00  0.00     0.212 C 
ENDBRANCH  23  29
ENDBRANCH  18  22
ENDBRANCH   1  16
TORSDOF 5
ENDMDL
MODEL 7
REMARK VINA RESULT:      -8.2      5.464      8.016
REMARK  5 active torsions:
REMARK  status: ('A' for Active; 'I' for Inactive)
REMARK    1  A    between atoms: C_7  and  C_8 
REMARK    2  A    between atoms: C_8  and  C_9 
REMARK    3  A    between atoms: C_9  and  N_10 
REMARK       I    between atoms: N_10  and  C_11 
REMARK       I    between atoms: C_11  and  N_12 
REMARK    4  A    between atoms: N_12  and  C_13 
REMARK    5  A    between atoms: C_14  and  O_15 
ROOT
HETATM    1  C   UNL     1      43.151 -13.771   6.882  1.00  0.00     0.129 C 
ENDROOT
BRANCH   1   2
HETATM    2  C   UNL     1      42.113 -14.297   5.885  1.00  0.00     0.061 C 
BRANCH   2   3
HETATM    3  C   UNL     1      42.681 -15.270   4.890  1.00  0.00    -0.022 A 
HETATM    4  C   UNL     1      42.976 -15.011   3.558  1.00  0.00     0.013 A 
HETATM    5  C   UNL     1      42.824 -13.773   2.750  1.00  0.00     0.068 C 
HETATM    6  N   UNL     1      43.495 -16.159   3.012  1.00  0.00    -0.356 N 
HETATM    7  H   UNL     1      43.810 -16.268   2.057  1.00  0.00     0.166 HD
HETATM    8  C   UNL     1      43.543 -17.157   3.953  1.00  0.00     0.082 A 
HETATM    9  C   UNL     1      43.034 -16.636   5.141  1.00  0.00     0.005 A 
HETATM   10  C   UNL     1      43.997 -18.472   3.845  1.00  0.00     0.146 A 
HETATM   11  C   UNL     1      42.979 -17.481   6.269  1.00  0.00     0.056 A 
HETATM   12  C   UNL     1      43.437 -18.797   6.152  1.00  0.00     0.120 A 
HETATM   13  C   UNL     1      43.942 -19.297   4.962  1.00  0.00     0.086 A 
HETATM   14  F   UNL     1      43.385 -19.598   7.226  1.00  0.00    -0.206 F 
HETATM   15  F   UNL     1      44.480 -18.939   2.686  1.00  0.00    -0.204 F 
ENDBRANCH   2   3
ENDBRANCH   1   2
BRANCH   1  16
HETATM   16  N   UNL     1      44.000 -12.731   6.318  1.00  0.00    -0.343 N 
HETATM   17  C   UNL     1      44.259 -11.532   6.927  1.00  0.00     0.320 C 
HETATM   18  N   UNL     1      43.227 -11.036   7.678  1.00  0.00    -0.303 N 
HETATM   19  O   UNL     1      45.343 -10.994   6.727  1.00  0.00    -0.247 OA
HETATM   20  H   UNL     1      42.300 -11.219   7.328  1.00  0.00     0.171 HD
HETATM   21  H   UNL     1      44.851 -13.059   5.873  1.00  0.00     0.164 HD
BRANCH  18  22
HETATM   22  C   UNL     1      43.370  -9.996   8.580  1.00  0.00     0.115 A 
HETATM   23  C   UNL     1      43.899  -9.974   9.890  1.00  0.00     0.212 A 
HETATM   24  N   UNL     1      43.835  -8.771  10.458  1.00  0.00    -0.145 NA
HETATM   25  N   UNL     1      43.272  -8.007   9.502  1.00  0.00    -0.274 N 
HETATM   26  C   UNL     1      43.054  -6.604   9.775  1.00  0.00     0.180 C 
HETATM   27  C   UNL     1      42.945  -8.698   8.357  1.00  0.00     0.057 A 
HETATM   28  C   UNL     1      42.306  -8.076   7.171  1.00  0.00     0.072 C 
BRANCH  23  29
HETATM   29  O   UNL     1      44.277 -11.033  10.634  1.00  0.00    -0.337 OA
HETATM   30  C   UNL     1      43.588 -11.095  11.875  1.00  0.00     0.212 C 
ENDBRANCH  23  29
ENDBRANCH  18  22
ENDBRANCH   1  16
TORSDOF 5
ENDMDL
MODEL 8
REMARK VINA RESULT:      -8.2      2.018      3.383
REMARK  5 active torsions:
REMARK  status: ('A' for Active; 'I' for Inactive)
REMARK    1  A    between atoms: C_7  and  C_8 
REMARK    2  A    between atoms: C_8  and  C_9 
REMARK    3  A    between atoms: C_9  and  N_10 
REMARK       I    between atoms: N_10  and  C_11 
REMARK       I    between atoms: C_11  and  N_12 
REMARK    4  A    between atoms: N_12  and  C_13 
REMARK    5  A    between atoms: C_14  and  O_15 
ROOT
HETATM    1  C   UNL     1      40.206 -14.845   0.716  1.00  0.00     0.129 C 
ENDROOT
BRANCH   1   2
HETATM    2  C   UNL     1      40.043 -15.971   1.743  1.00  0.00     0.061 C 
BRANCH   2   3
HETATM    3  C   UNL     1      41.097 -15.960   2.813  1.00  0.00    -0.022 A 
HETATM    4  C   UNL     1      41.228 -15.028   3.834  1.00  0.00     0.013 A 
HETATM    5  C   UNL     1      40.422 -13.823   4.161  1.00  0.00     0.068 C 
HETATM    6  N   UNL     1      42.303 -15.396   4.604  1.00  0.00    -0.356 N 
HETATM    7  H   UNL     1      42.635 -14.909   5.427  1.00  0.00     0.166 HD
HETATM    8  C   UNL     1      42.876 -16.541   4.109  1.00  0.00     0.082 A 
HETATM    9  C   UNL     1      42.149 -16.919   2.982  1.00  0.00     0.005 A 
HETATM   10  C   UNL     1      43.975 -17.268   4.571  1.00  0.00     0.146 A 
HETATM   11  C   UNL     1      42.550 -18.081   2.290  1.00  0.00     0.056 A 
HETATM   12  C   UNL     1      43.650 -18.804   2.760  1.00  0.00     0.120 A 
HETATM   13  C   UNL     1      44.361 -18.413   3.885  1.00  0.00     0.086 A 
HETATM   14  F   UNL     1      44.029 -19.909   2.101  1.00  0.00    -0.206 F 
HETATM   15  F   UNL     1      44.650 -16.875   5.659  1.00  0.00    -0.204 F 
ENDBRANCH   2   3
ENDBRANCH   1   2
BRANCH   1  16
HETATM   16  N   UNL     1      39.480 -15.100  -0.521  1.00  0.00    -0.343 N 
HETATM   17  C   UNL     1      39.309 -14.176  -1.518  1.00  0.00     0.320 C 
HETATM   18  N   UNL     1      39.201 -12.881  -1.088  1.00  0.00    -0.303 N 
HETATM   19  O   UNL     1      39.225 -14.572  -2.676  1.00  0.00    -0.247 OA
HETATM   20  H   UNL     1      38.730 -12.747  -0.208  1.00  0.00     0.171 HD
HETATM   21  H   UNL     1      39.647 -16.007  -0.944  1.00  0.00     0.164 HD
BRANCH  18  22
HETATM   22  C   UNL     1      39.296 -11.787  -1.930  1.00  0.00     0.115 A 
HETATM   23  C   UNL     1      40.389 -10.944  -2.231  1.00  0.00     0.212 A 
HETATM   24  N   UNL     1      40.074  -9.964  -3.077  1.00  0.00    -0.145 NA
HETATM   25  N   UNL     1      38.771 -10.185  -3.335  1.00  0.00    -0.274 N 
HETATM   26  C   UNL     1      38.085  -9.298  -4.247  1.00  0.00     0.180 C 
HETATM   27  C   UNL     1      38.241 -11.255  -2.650  1.00  0.00     0.057 A 
HETATM   28  C   UNL     1      36.826 -11.689  -2.760  1.00  0.00     0.072 C 
BRANCH  23  29
HETATM   29  O   UNL     1      41.600 -10.936  -1.639  1.00  0.00    -0.337 OA
HETATM   30  C   UNL     1      41.745  -9.865  -0.716  1.00  0.00     0.212 C 
ENDBRANCH  23  29
ENDBRANCH  18  22
ENDBRANCH   1  16
TORSDOF 5
ENDMDL
MODEL 9
REMARK VINA RESULT:      -8.1      2.123      3.146
REMARK  5 active torsions:
REMARK  status: ('A' for Active; 'I' for Inactive)
REMARK    1  A    between atoms: C_7  and  C_8 
REMARK    2  A    between atoms: C_8  and  C_9 
REMARK    3  A    between atoms: C_9  and  N_10 
REMARK       I    between atoms: N_10  and  C_11 
REMARK       I    between atoms: C_11  and  N_12 
REMARK    4  A    between atoms: N_12  and  C_13 
REMARK    5  A    between atoms: C_14  and  O_15 
ROOT
HETATM    1  C   UNL     1      40.177 -14.830   0.708  1.00  0.00     0.129 C 
ENDROOT
BRANCH   1   2
HETATM    2  C   UNL     1      39.923 -15.823   1.847  1.00  0.00     0.061 C 
BRANCH   2   3
HETATM    3  C   UNL     1      41.024 -15.854   2.869  1.00  0.00    -0.022 A 
HETATM    4  C   UNL     1      41.221 -14.944   3.899  1.00  0.00     0.013 A 
HETATM    5  C   UNL     1      40.459 -13.727   4.282  1.00  0.00     0.068 C 
HETATM    6  N   UNL     1      42.322 -15.349   4.613  1.00  0.00    -0.356 N 
HETATM    7  H   UNL     1      42.701 -14.884   5.428  1.00  0.00     0.166 HD
HETATM    8  C   UNL     1      42.846 -16.497   4.073  1.00  0.00     0.082 A 
HETATM    9  C   UNL     1      42.060 -16.839   2.973  1.00  0.00     0.005 A 
HETATM   10  C   UNL     1      43.948 -17.256   4.472  1.00  0.00     0.146 A 
HETATM   11  C   UNL     1      42.404 -17.996   2.244  1.00  0.00     0.056 A 
HETATM   12  C   UNL     1      43.508 -18.751   2.652  1.00  0.00     0.120 A 
HETATM   13  C   UNL     1      44.277 -18.396   3.750  1.00  0.00     0.086 A 
HETATM   14  F   UNL     1      43.831 -19.852   1.958  1.00  0.00    -0.206 F 
HETATM   15  F   UNL     1      44.680 -16.897   5.534  1.00  0.00    -0.204 F 
ENDBRANCH   2   3
ENDBRANCH   1   2
BRANCH   1  16
HETATM   16  N   UNL     1      39.437 -15.158  -0.503  1.00  0.00    -0.343 N 
HETATM   17  C   UNL     1      39.170 -14.267  -1.509  1.00  0.00     0.320 C 
HETATM   18  N   UNL     1      38.982 -12.976  -1.096  1.00  0.00    -0.303 N 
HETATM   19  O   UNL     1      39.083 -14.688  -2.657  1.00  0.00    -0.247 OA
HETATM   20  H   UNL     1      38.527 -12.860  -0.205  1.00  0.00     0.171 HD
HETATM   21  H   UNL     1      39.657 -16.059  -0.916  1.00  0.00     0.164 HD
BRANCH  18  22
HETATM   22  C   UNL     1      38.974 -11.892  -1.958  1.00  0.00     0.115 A 
HETATM   23  C   UNL     1      37.901 -11.143  -2.491  1.00  0.00     0.212 A 
HETATM   24  N   UNL     1      38.300 -10.181  -3.323  1.00  0.00    -0.145 NA
HETATM   25  N   UNL     1      39.641 -10.303  -3.315  1.00  0.00    -0.274 N 
HETATM   26  C   UNL     1      40.424  -9.390  -4.118  1.00  0.00     0.180 C 
HETATM   27  C   UNL     1      40.103 -11.335  -2.531  1.00  0.00     0.057 A 
HETATM   28  C   UNL     1      41.539 -11.674  -2.371  1.00  0.00     0.072 C 
BRANCH  23  29
HETATM   29  O   UNL     1      36.584 -11.411  -2.379  1.00  0.00    -0.337 OA
HETATM   30  C   UNL     1      35.819 -10.796  -3.406  1.00  0.00     0.212 C 
ENDBRANCH  23  29
ENDBRANCH  18  22
ENDBRANCH   1  16
TORSDOF 5
ENDMDL
MODEL 10
REMARK VINA RESULT:      -7.9      4.344      7.087
REMARK  5 active torsions:
REMARK  status: ('A' for Active; 'I' for Inactive)
REMARK    1  A    between atoms: C_7  and  C_8 
REMARK    2  A    between atoms: C_8  and  C_9 
REMARK    3  A    between atoms: C_9  and  N_10 
REMARK       I    between atoms: N_10  and  C_11 
REMARK       I    between atoms: C_11  and  N_12 
REMARK    4  A    between atoms: N_12  and  C_13 
REMARK    5  A    between atoms: C_14  and  O_15 
ROOT
HETATM    1  C   UNL     1      41.382 -13.154   3.783  1.00  0.00     0.129 C 
ENDROOT
BRANCH   1   2
HETATM    2  C   UNL     1      42.814 -13.621   3.496  1.00  0.00     0.061 C 
BRANCH   2   3
HETATM    3  C   UNL     1      43.043 -15.072   3.812  1.00  0.00    -0.022 A 
HETATM    4  C   UNL     1      43.225 -16.098   2.895  1.00  0.00     0.013 A 
HETATM    5  C   UNL     1      43.239 -16.085   1.409  1.00  0.00     0.068 C 
HETATM    6  N   UNL     1      43.425 -17.260   3.599  1.00  0.00    -0.356 N 
HETATM    7  H   UNL     1      43.594 -18.173   3.195  1.00  0.00     0.166 HD
HETATM    8  C   UNL     1      43.376 -17.016   4.949  1.00  0.00     0.082 A 
HETATM    9  C   UNL     1      43.132 -15.654   5.119  1.00  0.00     0.005 A 
HETATM   10  C   UNL     1      43.531 -17.890   6.025  1.00  0.00     0.146 A 
HETATM   11  C   UNL     1      43.038 -15.155   6.434  1.00  0.00     0.056 A 
HETATM   12  C   UNL     1      43.195 -16.037   7.507  1.00  0.00     0.120 A 
HETATM   13  C   UNL     1      43.439 -17.389   7.318  1.00  0.00     0.086 A 
HETATM   14  F   UNL     1      43.107 -15.559   8.757  1.00  0.00    -0.206 F 
HETATM   15  F   UNL     1      43.765 -19.193   5.824  1.00  0.00    -0.204 F 
ENDBRANCH   2   3
ENDBRANCH   1   2
BRANCH   1  16
HETATM   16  N   UNL     1      41.231 -11.708   3.693  1.00  0.00    -0.343 N 
HETATM   17  C   UNL     1      41.768 -10.820   4.587  1.00  0.00     0.320 C 
HETATM   18  N   UNL     1      41.837 -11.275   5.876  1.00  0.00    -0.303 N 
HETATM   19  O   UNL     1      42.095  -9.709   4.184  1.00  0.00    -0.247 OA
HETATM   20  H   UNL     1      41.084 -11.875   6.173  1.00  0.00     0.171 HD
HETATM   21  H   UNL     1      41.315 -11.320   2.759  1.00  0.00     0.164 HD
BRANCH  18  22
HETATM   22  C   UNL     1      42.581 -10.655   6.865  1.00  0.00     0.115 A 
HETATM   23  C   UNL     1      42.254  -9.596   7.741  1.00  0.00     0.212 A 
HETATM   24  N   UNL     1      43.262  -9.253   8.543  1.00  0.00    -0.145 NA
HETATM   25  N   UNL     1      44.242 -10.107   8.190  1.00  0.00    -0.274 N 
HETATM   26  C   UNL     1      45.511 -10.028   8.878  1.00  0.00     0.180 C 
HETATM   27  C   UNL     1      43.898 -10.958   7.164  1.00  0.00     0.057 A 
HETATM   28  C   UNL     1      44.811 -11.980   6.595  1.00  0.00     0.072 C 
BRANCH  23  29
HETATM   29  O   UNL     1      41.144  -8.832   7.719  1.00  0.00    -0.337 OA
HETATM   30  C   UNL     1      40.164  -9.275   8.647  1.00  0.00     0.212 C 
ENDBRANCH  23  29
ENDBRANCH  18  22
ENDBRANCH   1  16
TORSDOF 5
ENDMDL
