MODEL 1
REMARK VINA RESULT:      -8.7      0.000      0.000
REMARK  6 active torsions:
REMARK  status: ('A' for Active; 'I' for Inactive)
REMARK    1  A    between atoms: C_5  and  C_6 
REMARK    2  A    between atoms: C_12  and  C_13 
REMARK       I    between atoms: C_13  and  N_14 
REMARK    3  A    between atoms: N_14  and  C_15 
REMARK    4  A    between atoms: C_18  and  C_19 
REMARK    5  A    between atoms: C_19  and  O_20 
REMARK    6  A    between atoms: C_25  and  C_26 
ROOT
HETATM    1  C   UNL     1      43.335 -14.661   2.758  1.00  0.00     0.118 C 
HETATM    2  N   UNL     1      43.183 -13.639   3.808  1.00  0.00    -0.365 N 
HETATM    3  C   UNL     1      41.938 -13.261   4.224  1.00  0.00     0.138 A 
HETATM    4  N   UNL     1      40.806 -13.689   3.565  1.00  0.00    -0.240 N 
HETATM    5  N   UNL     1      39.671 -13.143   4.026  1.00  0.00    -0.181 NA
HETATM    6  C   UNL     1      40.083 -12.404   5.058  1.00  0.00     0.160 A 
HETATM    7  C   UNL     1      41.490 -12.425   5.233  1.00  0.00     0.096 A 
HETATM    8  C   UNL     1      40.800 -14.467   2.340  1.00  0.00     0.221 C 
HETATM    9  C   UNL     1      42.209 -14.504   1.722  1.00  0.00     0.066 C 
HETATM   10  H   UNL     1      43.888 -12.905   3.719  1.00  0.00     0.161 HD
ENDROOT
BRANCH   7  11
HETATM   11  C   UNL     1      42.221 -11.679   6.249  1.00  0.00     0.261 C 
HETATM   12  N   UNL     1      41.642 -10.472   6.595  1.00  0.00    -0.323 N 
HETATM   13  H   UNL     1      40.854 -10.191   6.025  1.00  0.00     0.169 HD
HETATM   14  O   UNL     1      43.244 -12.147   6.736  1.00  0.00    -0.267 OA
BRANCH  12  15
HETATM   15  C   UNL     1      41.981  -9.638   7.680  1.00  0.00     0.035 A 
HETATM   16  C   UNL     1      43.253  -9.103   7.883  1.00  0.00     0.030 A 
HETATM   17  C   UNL     1      43.534  -8.338   9.021  1.00  0.00     0.012 A 
HETATM   18  C   UNL     1      42.549  -8.100   9.987  1.00  0.00    -0.030 A 
HETATM   19  C   UNL     1      41.269  -8.632   9.778  1.00  0.00     0.012 A 
HETATM   20  C   UNL     1      40.985  -9.379   8.628  1.00  0.00     0.030 A 
BRANCH  18  21
HETATM   21  C   UNL     1      42.898  -7.332  11.244  1.00  0.00     0.147 C 
HETATM   22  C   UNL     1      43.351  -8.258  12.365  1.00  0.00     0.044 C 
BRANCH  21  23
HETATM   23  O   UNL     1      41.781  -6.571  11.698  1.00  0.00    -0.391 OA
HETATM   24  H   UNL     1      41.140  -6.554  10.966  1.00  0.00     0.210 HD
ENDBRANCH  21  23
ENDBRANCH  18  21
ENDBRANCH  12  15
ENDBRANCH   7  11
BRANCH   1  25
HETATM   25  C   UNL     1      43.491 -16.071   3.304  1.00  0.00    -0.035 A 
HETATM   26  C   UNL     1      43.548 -17.209   2.486  1.00  0.00     0.010 A 
HETATM   27  C   UNL     1      43.757 -18.482   3.031  1.00  0.00     0.007 A 
HETATM   28  C   UNL     1      43.899 -18.651   4.410  1.00  0.00    -0.062 A 
HETATM   29  C   UNL     1      44.156 -20.005   5.001  1.00  0.00     0.048 C 
HETATM   30  C   UNL     1      43.793 -17.532   5.240  1.00  0.00     0.007 A 
HETATM   31  C   UNL     1      43.589 -16.262   4.695  1.00  0.00     0.010 A 
ENDBRANCH   1  25
BRANCH   8  32
HETATM   32  C   UNL     1      40.174 -15.824   2.575  1.00  0.00     0.409 C 
HETATM   33  F   UNL     1      40.405 -16.335   3.796  1.00  0.00    -0.169 F 
HETATM   34  F   UNL     1      38.832 -15.796   2.396  1.00  0.00    -0.169 F 
HETATM   35  F   UNL     1      40.652 -16.717   1.668  1.00  0.00    -0.169 F 
ENDBRANCH   8  32
TORSDOF 6
ENDMDL
MODEL 2
REMARK VINA RESULT:      -8.3     17.243     19.197
REMARK  6 active torsions:
REMARK  status: ('A' for Active; 'I' for Inactive)
REMARK    1  A    between atoms: C_5  and  C_6 
REMARK    2  A    between atoms: C_12  and  C_13 
REMARK       I    between atoms: C_13  and  N_14 
REMARK    3  A    between atoms: N_14  and  C_15 
REMARK    4  A    between atoms: C_18  and  C_19 
REMARK    5  A    between atoms: C_19  and  O_20 
REMARK    6  A    between atoms: C_25  and  C_26 
ROOT
HETATM    1  C   UNL     1      46.927 -28.245   2.197  1.00  0.00     0.118 C 
HETATM    2  N   UNL     1      45.531 -28.679   2.007  1.00  0.00    -0.365 N 
HETATM    3  C   UNL     1      45.188 -29.430   0.919  1.00  0.00     0.138 A 
HETATM    4  N   UNL     1      46.082 -29.654  -0.104  1.00  0.00    -0.240 N 
HETATM    5  N   UNL     1      45.558 -30.314  -1.148  1.00  0.00    -0.181 NA
HETATM    6  C   UNL     1      44.315 -30.586  -0.746  1.00  0.00     0.160 A 
HETATM    7  C   UNL     1      44.013 -30.054   0.533  1.00  0.00     0.096 A 
HETATM    8  C   UNL     1      47.400 -29.057  -0.202  1.00  0.00     0.221 C 
HETATM    9  C   UNL     1      47.555 -27.926   0.830  1.00  0.00     0.066 C 
HETATM   10  H   UNL     1      44.873 -27.956   2.303  1.00  0.00     0.161 HD
ENDROOT
BRANCH   7  11
HETATM   11  C   UNL     1      42.722 -30.158   1.202  1.00  0.00     0.261 C 
HETATM   12  N   UNL     1      42.531 -31.342   1.889  1.00  0.00    -0.323 N 
HETATM   13  H   UNL     1      43.249 -32.043   1.752  1.00  0.00     0.169 HD
HETATM   14  O   UNL     1      41.925 -29.227   1.144  1.00  0.00    -0.267 OA
BRANCH  12  15
HETATM   15  C   UNL     1      41.499 -31.648   2.800  1.00  0.00     0.035 A 
HETATM   16  C   UNL     1      41.339 -31.020   4.034  1.00  0.00     0.030 A 
HETATM   17  C   UNL     1      40.330 -31.425   4.917  1.00  0.00     0.012 A 
HETATM   18  C   UNL     1      39.465 -32.474   4.587  1.00  0.00    -0.030 A 
HETATM   19  C   UNL     1      39.623 -33.099   3.342  1.00  0.00     0.012 A 
HETATM   20  C   UNL     1      40.619 -32.679   2.451  1.00  0.00     0.030 A 
BRANCH  18  21
HETATM   21  C   UNL     1      38.431 -32.941   5.588  1.00  0.00     0.147 C 
HETATM   22  C   UNL     1      38.579 -34.422   5.905  1.00  0.00     0.044 C 
BRANCH  21  23
HETATM   23  O   UNL     1      37.112 -32.704   5.101  1.00  0.00    -0.391 OA
HETATM   24  H   UNL     1      36.543 -33.387   5.497  1.00  0.00     0.210 HD
ENDBRANCH  21  23
ENDBRANCH  18  21
ENDBRANCH  12  15
ENDBRANCH   7  11
BRANCH   1  25
HETATM   25  C   UNL     1      47.744 -29.197   3.055  1.00  0.00    -0.035 A 
HETATM   26  C   UNL     1      47.248 -30.420   3.530  1.00  0.00     0.010 A 
HETATM   27  C   UNL     1      48.060 -31.294   4.264  1.00  0.00     0.007 A 
HETATM   28  C   UNL     1      49.384 -30.959   4.555  1.00  0.00    -0.062 A 
HETATM   29  C   UNL     1      50.271 -31.902   5.312  1.00  0.00     0.048 C 
HETATM   30  C   UNL     1      49.874 -29.721   4.133  1.00  0.00     0.007 A 
HETATM   31  C   UNL     1      49.065 -28.852   3.396  1.00  0.00     0.010 A 
ENDBRANCH   1  25
BRANCH   8  32
HETATM   32  C   UNL     1      48.473 -30.123  -0.140  1.00  0.00     0.409 C 
HETATM   33  F   UNL     1      49.631 -29.710   0.402  1.00  0.00    -0.169 F 
HETATM   34  F   UNL     1      48.064 -31.207   0.559  1.00  0.00    -0.169 F 
HETATM   35  F   UNL     1      48.752 -30.571  -1.394  1.00  0.00    -0.169 F 
ENDBRANCH   8  32
TORSDOF 6
ENDMDL
MODEL 3
REMARK VINA RESULT:      -8.3      4.519      8.168
REMARK  6 active torsions:
REMARK  status: ('A' for Active; 'I' for Inactive)
REMARK    1  A    between atoms: C_5  and  C_6 
REMARK    2  A    between atoms: C_12  and  C_13 
REMARK       I    between atoms: C_13  and  N_14 
REMARK    3  A    between atoms: N_14  and  C_15 
REMARK    4  A    between atoms: C_18  and  C_19 
REMARK    5  A    between atoms: C_19  and  O_20 
REMARK    6  A    between atoms: C_25  and  C_26 
ROOT
HETATM    1  C   UNL     1      41.197 -11.397   0.066  1.00  0.00     0.118 C 
HETATM    2  N   UNL     1      41.608 -12.133   1.275  1.00  0.00    -0.365 N 
HETATM    3  C   UNL     1      40.843 -12.077   2.405  1.00  0.00     0.138 A 
HETATM    4  N   UNL     1      39.778 -11.210   2.504  1.00  0.00    -0.240 N 
HETATM    5  N   UNL     1      39.199 -11.197   3.714  1.00  0.00    -0.181 NA
HETATM    6  C   UNL     1      39.867 -12.138   4.383  1.00  0.00     0.160 A 
HETATM    7  C   UNL     1      40.915 -12.723   3.629  1.00  0.00     0.096 A 
HETATM    8  C   UNL     1      39.419 -10.217   1.509  1.00  0.00     0.221 C 
HETATM    9  C   UNL     1      40.546 -10.065   0.472  1.00  0.00     0.066 C 
HETATM   10  H   UNL     1      42.622 -12.114   1.395  1.00  0.00     0.161 HD
ENDROOT
BRANCH   7  11
HETATM   11  C   UNL     1      41.834 -13.742   4.118  1.00  0.00     0.261 C 
HETATM   12  N   UNL     1      41.471 -15.037   3.796  1.00  0.00    -0.323 N 
HETATM   13  H   UNL     1      40.559 -15.137   3.368  1.00  0.00     0.169 HD
HETATM   14  O   UNL     1      42.841 -13.414   4.735  1.00  0.00    -0.267 OA
BRANCH  12  15
HETATM   15  C   UNL     1      42.249 -16.204   3.933  1.00  0.00     0.035 A 
HETATM   16  C   UNL     1      42.734 -16.947   2.856  1.00  0.00     0.030 A 
HETATM   17  C   UNL     1      43.443 -18.135   3.069  1.00  0.00     0.012 A 
HETATM   18  C   UNL     1      43.674 -18.612   4.364  1.00  0.00    -0.030 A 
HETATM   19  C   UNL     1      43.192 -17.861   5.445  1.00  0.00     0.012 A 
HETATM   20  C   UNL     1      42.502 -16.661   5.231  1.00  0.00     0.030 A 
BRANCH  18  21
HETATM   21  C   UNL     1      44.378 -19.937   4.565  1.00  0.00     0.147 C 
HETATM   22  C   UNL     1      43.938 -20.973   3.540  1.00  0.00     0.044 C 
BRANCH  21  23
HETATM   23  O   UNL     1      44.132 -20.448   5.872  1.00  0.00    -0.391 OA
HETATM   24  H   UNL     1      43.254 -20.868   5.846  1.00  0.00     0.210 HD
ENDBRANCH  21  23
ENDBRANCH  18  21
ENDBRANCH  12  15
ENDBRANCH   7  11
BRANCH   1  25
HETATM   25  C   UNL     1      40.367 -12.231  -0.896  1.00  0.00    -0.035 A 
HETATM   26  C   UNL     1      39.899 -11.745  -2.126  1.00  0.00     0.010 A 
HETATM   27  C   UNL     1      39.192 -12.571  -3.008  1.00  0.00     0.007 A 
HETATM   28  C   UNL     1      38.923 -13.901  -2.677  1.00  0.00    -0.062 A 
HETATM   29  C   UNL     1      38.195 -14.803  -3.629  1.00  0.00     0.048 C 
HETATM   30  C   UNL     1      39.339 -14.382  -1.434  1.00  0.00     0.007 A 
HETATM   31  C   UNL     1      40.048 -13.558  -0.555  1.00  0.00     0.010 A 
ENDBRANCH   1  25
BRANCH   8  32
HETATM   32  C   UNL     1      38.056 -10.517   0.925  1.00  0.00     0.409 C 
HETATM   33  F   UNL     1      37.031  -9.974   1.604  1.00  0.00    -0.169 F 
HETATM   34  F   UNL     1      37.956 -10.099  -0.359  1.00  0.00    -0.169 F 
HETATM   35  F   UNL     1      37.851 -11.861   0.895  1.00  0.00    -0.169 F 
ENDBRANCH   8  32
TORSDOF 6
ENDMDL
MODEL 4
REMARK VINA RESULT:      -8.3      5.597      9.105
REMARK  6 active torsions:
REMARK  status: ('A' for Active; 'I' for Inactive)
REMARK    1  A    between atoms: C_5  and  C_6 
REMARK    2  A    between atoms: C_12  and  C_13 
REMARK       I    between atoms: C_13  and  N_14 
REMARK    3  A    between atoms: N_14  and  C_15 
REMARK    4  A    between atoms: C_18  and  C_19 
REMARK    5  A    between atoms: C_19  and  O_20 
REMARK    6  A    between atoms: C_25  and  C_26 
ROOT
HETATM    1  C   UNL     1      40.388 -14.232   3.399  1.00  0.00     0.118 C 
HETATM    2  N   UNL     1      40.031 -13.623   2.106  1.00  0.00    -0.365 N 
HETATM    3  C   UNL     1      40.702 -12.521   1.657  1.00  0.00     0.138 A 
HETATM    4  N   UNL     1      41.598 -11.854   2.463  1.00  0.00    -0.240 N 
HETATM    5  N   UNL     1      42.087 -10.731   1.917  1.00  0.00    -0.181 NA
HETATM    6  C   UNL     1      41.547 -10.723   0.697  1.00  0.00     0.160 A 
HETATM    7  C   UNL     1      40.663 -11.808   0.471  1.00  0.00     0.096 A 
HETATM    8  C   UNL     1      41.845 -12.158   3.860  1.00  0.00     0.221 C 
HETATM    9  C   UNL     1      40.777 -13.127   4.396  1.00  0.00     0.066 C 
HETATM   10  H   UNL     1      39.023 -13.654   1.945  1.00  0.00     0.161 HD
ENDROOT
BRANCH   7  11
HETATM   11  C   UNL     1      39.900 -12.028  -0.751  1.00  0.00     0.261 C 
HETATM   12  N   UNL     1      38.533 -11.895  -0.600  1.00  0.00    -0.323 N 
HETATM   13  H   UNL     1      38.211 -11.780   0.353  1.00  0.00     0.169 HD
HETATM   14  O   UNL     1      40.483 -12.282  -1.800  1.00  0.00    -0.267 OA
BRANCH  12  15
HETATM   15  C   UNL     1      37.560 -11.832  -1.618  1.00  0.00     0.035 A 
HETATM   16  C   UNL     1      36.822 -10.687  -1.921  1.00  0.00     0.030 A 
HETATM   17  C   UNL     1      35.823 -10.718  -2.900  1.00  0.00     0.012 A 
HETATM   18  C   UNL     1      35.533 -11.899  -3.593  1.00  0.00    -0.030 A 
HETATM   19  C   UNL     1      36.280 -13.047  -3.294  1.00  0.00     0.012 A 
HETATM   20  C   UNL     1      37.294 -13.008  -2.328  1.00  0.00     0.030 A 
BRANCH  18  21
HETATM   21  C   UNL     1      34.399 -11.925  -4.596  1.00  0.00     0.147 C 
HETATM   22  C   UNL     1      34.397 -10.686  -5.481  1.00  0.00     0.044 C 
BRANCH  21  23
HETATM   23  O   UNL     1      33.140 -12.020  -3.934  1.00  0.00    -0.391 OA
HETATM   24  H   UNL     1      32.868 -12.953  -3.986  1.00  0.00     0.210 HD
ENDBRANCH  21  23
ENDBRANCH  18  21
ENDBRANCH  12  15
ENDBRANCH   7  11
BRANCH   1  25
HETATM   25  C   UNL     1      41.406 -15.354   3.279  1.00  0.00    -0.035 A 
HETATM   26  C   UNL     1      41.865 -16.095   4.379  1.00  0.00     0.010 A 
HETATM   27  C   UNL     1      42.756 -17.162   4.211  1.00  0.00     0.007 A 
HETATM   28  C   UNL     1      43.222 -17.506   2.940  1.00  0.00    -0.062 A 
HETATM   29  C   UNL     1      44.151 -18.668   2.746  1.00  0.00     0.048 C 
HETATM   30  C   UNL     1      42.814 -16.744   1.844  1.00  0.00     0.007 A 
HETATM   31  C   UNL     1      41.921 -15.681   2.012  1.00  0.00     0.010 A 
ENDBRANCH   1  25
BRANCH   8  32
HETATM   32  C   UNL     1      43.274 -12.616   4.059  1.00  0.00     0.409 C 
HETATM   33  F   UNL     1      43.445 -13.464   5.088  1.00  0.00    -0.169 F 
HETATM   34  F   UNL     1      43.767 -13.219   2.952  1.00  0.00    -0.169 F 
HETATM   35  F   UNL     1      44.077 -11.541   4.286  1.00  0.00    -0.169 F 
ENDBRANCH   8  32
TORSDOF 6
ENDMDL
MODEL 5
REMARK VINA RESULT:      -8.2      1.524      1.786
REMARK  6 active torsions:
REMARK  status: ('A' for Active; 'I' for Inactive)
REMARK    1  A    between atoms: C_5  and  C_6 
REMARK    2  A    between atoms: C_12  and  C_13 
REMARK       I    between atoms: C_13  and  N_14 
REMARK    3  A    between atoms: N_14  and  C_15 
REMARK    4  A    between atoms: C_18  and  C_19 
REMARK    5  A    between atoms: C_19  and  O_20 
REMARK    6  A    between atoms: C_25  and  C_26 
ROOT
HETATM    1  C   UNL     1      43.410 -14.684   3.340  1.00  0.00     0.118 C 
HETATM    2  N   UNL     1      42.862 -13.590   4.161  1.00  0.00    -0.365 N 
HETATM    3  C   UNL     1      41.538 -13.266   4.078  1.00  0.00     0.138 A 
HETATM    4  N   UNL     1      40.725 -13.826   3.118  1.00  0.00    -0.240 N 
HETATM    5  N   UNL     1      39.482 -13.323   3.098  1.00  0.00    -0.181 NA
HETATM    6  C   UNL     1      39.479 -12.472   4.126  1.00  0.00     0.160 A 
HETATM    7  C   UNL     1      40.735 -12.380   4.778  1.00  0.00     0.096 A 
HETATM    8  C   UNL     1      41.177 -14.704   2.054  1.00  0.00     0.221 C 
HETATM    9  C   UNL     1      42.714 -14.695   1.969  1.00  0.00     0.066 C 
HETATM   10  H   UNL     1      43.528 -12.819   4.245  1.00  0.00     0.161 HD
ENDROOT
BRANCH   7  11
HETATM   11  C   UNL     1      41.036 -11.500   5.900  1.00  0.00     0.261 C 
HETATM   12  N   UNL     1      39.967 -10.733   6.324  1.00  0.00    -0.323 N 
HETATM   13  H   UNL     1      39.142 -10.779   5.739  1.00  0.00     0.169 HD
HETATM   14  O   UNL     1      42.156 -11.505   6.399  1.00  0.00    -0.267 OA
BRANCH  12  15
HETATM   15  C   UNL     1      39.878  -9.962   7.501  1.00  0.00     0.035 A 
HETATM   16  C   UNL     1      40.582  -8.776   7.709  1.00  0.00     0.030 A 
HETATM   17  C   UNL     1      40.497  -8.099   8.931  1.00  0.00     0.012 A 
HETATM   18  C   UNL     1      39.712  -8.599   9.976  1.00  0.00    -0.030 A 
HETATM   19  C   UNL     1      38.999  -9.787   9.763  1.00  0.00     0.012 A 
HETATM   20  C   UNL     1      39.069 -10.452   8.532  1.00  0.00     0.030 A 
BRANCH  18  21
HETATM   21  C   UNL     1      39.694  -7.888  11.312  1.00  0.00     0.147 C 
HETATM   22  C   UNL     1      40.698  -8.489  12.286  1.00  0.00     0.044 C 
BRANCH  21  23
HETATM   23  O   UNL     1      38.395  -7.942  11.898  1.00  0.00    -0.391 OA
HETATM   24  H   UNL     1      37.805  -7.437  11.311  1.00  0.00     0.210 HD
ENDBRANCH  21  23
ENDBRANCH  18  21
ENDBRANCH  12  15
ENDBRANCH   7  11
BRANCH   1  25
HETATM   25  C   UNL     1      43.415 -16.028   4.051  1.00  0.00    -0.035 A 
HETATM   26  C   UNL     1      43.831 -17.219   3.437  1.00  0.00     0.010 A 
HETATM   27  C   UNL     1      43.878 -18.422   4.151  1.00  0.00     0.007 A 
HETATM   28  C   UNL     1      43.496 -18.468   5.494  1.00  0.00    -0.062 A 
HETATM   29  C   UNL     1      43.575 -19.745   6.277  1.00  0.00     0.048 C 
HETATM   30  C   UNL     1      43.031 -17.300   6.102  1.00  0.00     0.007 A 
HETATM   31  C   UNL     1      42.988 -16.099   5.390  1.00  0.00     0.010 A 
ENDBRANCH   1  25
BRANCH   8  32
HETATM   32  C   UNL     1      40.557 -16.077   2.198  1.00  0.00     0.409 C 
HETATM   33  F   UNL     1      41.352 -17.086   1.803  1.00  0.00    -0.169 F 
HETATM   34  F   UNL     1      40.189 -16.330   3.476  1.00  0.00    -0.169 F 
HETATM   35  F   UNL     1      39.417 -16.149   1.461  1.00  0.00    -0.169 F 
ENDBRANCH   8  32
TORSDOF 6
ENDMDL
MODEL 6
REMARK VINA RESULT:      -8.2      1.922      2.952
REMARK  6 active torsions:
REMARK  status: ('A' for Active; 'I' for Inactive)
REMARK    1  A    between atoms: C_5  and  C_6 
REMARK    2  A    between atoms: C_12  and  C_13 
REMARK       I    between atoms: C_13  and  N_14 
REMARK    3  A    between atoms: N_14  and  C_15 
REMARK    4  A    between atoms: C_18  and  C_19 
REMARK    5  A    between atoms: C_19  and  O_20 
REMARK    6  A    between atoms: C_25  and  C_26 
ROOT
HETATM    1  C   UNL     1      42.984 -11.783   3.090  1.00  0.00     0.118 C 
HETATM    2  N   UNL     1      42.926 -11.123   4.406  1.00  0.00    -0.365 N 
HETATM    3  C   UNL     1      41.718 -10.838   4.978  1.00  0.00     0.138 A 
HETATM    4  N   UNL     1      40.542 -10.998   4.279  1.00  0.00    -0.240 N 
HETATM    5  N   UNL     1      39.456 -10.570   4.940  1.00  0.00    -0.181 NA
HETATM    6  C   UNL     1      39.944 -10.198   6.125  1.00  0.00     0.160 A 
HETATM    7  C   UNL     1      41.353 -10.329   6.214  1.00  0.00     0.096 A 
HETATM    8  C   UNL     1      40.451 -11.365   2.879  1.00  0.00     0.221 C 
HETATM    9  C   UNL     1      41.833 -11.272   2.208  1.00  0.00     0.066 C 
HETATM   10  H   UNL     1      43.667 -10.427   4.507  1.00  0.00     0.161 HD
ENDROOT
BRANCH   7  11
HETATM   11  C   UNL     1      42.159  -9.958   7.370  1.00  0.00     0.261 C 
HETATM   12  N   UNL     1      41.486  -9.209   8.316  1.00  0.00    -0.323 N 
HETATM   13  H   UNL     1      40.558  -8.904   8.047  1.00  0.00     0.169 HD
HETATM   14  O   UNL     1      43.324 -10.332   7.450  1.00  0.00    -0.267 OA
BRANCH  12  15
HETATM   15  C   UNL     1      41.915  -8.887   9.620  1.00  0.00     0.035 A 
HETATM   16  C   UNL     1      41.709  -9.704  10.731  1.00  0.00     0.030 A 
HETATM   17  C   UNL     1      42.103  -9.287  12.008  1.00  0.00     0.012 A 
HETATM   18  C   UNL     1      42.705  -8.039  12.202  1.00  0.00    -0.030 A 
HETATM   19  C   UNL     1      42.919  -7.222  11.083  1.00  0.00     0.012 A 
HETATM   20  C   UNL     1      42.543  -7.650   9.803  1.00  0.00     0.030 A 
BRANCH  18  21
HETATM   21  C   UNL     1      43.055  -7.581  13.602  1.00  0.00     0.147 C 
HETATM   22  C   UNL     1      42.189  -8.261  14.653  1.00  0.00     0.044 C 
BRANCH  21  23
HETATM   23  O   UNL     1      42.905  -6.169  13.725  1.00  0.00    -0.391 OA
HETATM   24  H   UNL     1      42.731  -5.829  12.830  1.00  0.00     0.210 HD
ENDBRANCH  21  23
ENDBRANCH  18  21
ENDBRANCH  12  15
ENDBRANCH   7  11
BRANCH   1  25
HETATM   25  C   UNL     1      43.082 -13.297   3.177  1.00  0.00    -0.035 A 
HETATM   26  C   UNL     1      42.953 -14.006   4.382  1.00  0.00     0.010 A 
HETATM   27  C   UNL     1      42.987 -15.406   4.403  1.00  0.00     0.007 A 
HETATM   28  C   UNL     1      43.166 -16.132   3.224  1.00  0.00    -0.062 A 
HETATM   29  C   UNL     1      43.171 -17.632   3.232  1.00  0.00     0.048 C 
HETATM   30  C   UNL     1      43.347 -15.437   2.026  1.00  0.00     0.007 A 
HETATM   31  C   UNL     1      43.309 -14.040   2.004  1.00  0.00     0.010 A 
ENDBRANCH   1  25
BRANCH   8  32
HETATM   32  C   UNL     1      39.759 -12.703   2.724  1.00  0.00     0.409 C 
HETATM   33  F   UNL     1      40.206 -13.439   1.693  1.00  0.00    -0.169 F 
HETATM   34  F   UNL     1      39.875 -13.460   3.840  1.00  0.00    -0.169 F 
HETATM   35  F   UNL     1      38.425 -12.515   2.538  1.00  0.00    -0.169 F 
ENDBRANCH   8  32
TORSDOF 6
ENDMDL
MODEL 7
REMARK VINA RESULT:      -8.1      5.336      9.211
REMARK  6 active torsions:
REMARK  status: ('A' for Active; 'I' for Inactive)
REMARK    1  A    between atoms: C_5  and  C_6 
REMARK    2  A    between atoms: C_12  and  C_13 
REMARK       I    between atoms: C_13  and  N_14 
REMARK    3  A    between atoms: N_14  and  C_15 
REMARK    4  A    between atoms: C_18  and  C_19 
REMARK    5  A    between atoms: C_19  and  O_20 
REMARK    6  A    between atoms: C_25  and  C_26 
ROOT
HETATM    1  C   UNL     1      41.032 -11.637  -1.726  1.00  0.00     0.118 C 
HETATM    2  N   UNL     1      41.258 -12.576  -0.613  1.00  0.00    -0.365 N 
HETATM    3  C   UNL     1      41.341 -12.112   0.670  1.00  0.00     0.138 A 
HETATM    4  N   UNL     1      41.388 -10.762   0.938  1.00  0.00    -0.240 N 
HETATM    5  N   UNL     1      41.580 -10.473   2.234  1.00  0.00    -0.181 NA
HETATM    6  C   UNL     1      41.579 -11.672   2.819  1.00  0.00     0.160 A 
HETATM    7  C   UNL     1      41.443 -12.742   1.899  1.00  0.00     0.096 A 
HETATM    8  C   UNL     1      41.464  -9.716  -0.065  1.00  0.00     0.221 C 
HETATM    9  C   UNL     1      41.774 -10.320  -1.446  1.00  0.00     0.066 C 
HETATM   10  H   UNL     1      41.899 -13.325  -0.881  1.00  0.00     0.161 HD
ENDROOT
BRANCH   7  11
HETATM   11  C   UNL     1      41.454 -14.157   2.249  1.00  0.00     0.261 C 
HETATM   12  N   UNL     1      42.710 -14.669   2.510  1.00  0.00    -0.323 N 
HETATM   13  H   UNL     1      43.482 -14.044   2.314  1.00  0.00     0.169 HD
HETATM   14  O   UNL     1      40.399 -14.779   2.314  1.00  0.00    -0.267 OA
BRANCH  12  15
HETATM   15  C   UNL     1      43.026 -15.921   3.076  1.00  0.00     0.035 A 
HETATM   16  C   UNL     1      43.272 -16.122   4.434  1.00  0.00     0.030 A 
HETATM   17  C   UNL     1      43.647 -17.382   4.914  1.00  0.00     0.012 A 
HETATM   18  C   UNL     1      43.793 -18.468   4.045  1.00  0.00    -0.030 A 
HETATM   19  C   UNL     1      43.537 -18.267   2.681  1.00  0.00     0.012 A 
HETATM   20  C   UNL     1      43.141 -17.010   2.205  1.00  0.00     0.030 A 
BRANCH  18  21
HETATM   21  C   UNL     1      44.270 -19.801   4.578  1.00  0.00     0.147 C 
HETATM   22  C   UNL     1      43.886 -20.950   3.655  1.00  0.00     0.044 C 
BRANCH  21  23
HETATM   23  O   UNL     1      43.731 -20.051   5.874  1.00  0.00    -0.391 OA
HETATM   24  H   UNL     1      43.356 -19.209   6.186  1.00  0.00     0.210 HD
ENDBRANCH  21  23
ENDBRANCH  18  21
ENDBRANCH  12  15
ENDBRANCH   7  11
BRANCH   1  25
HETATM   25  C   UNL     1      39.565 -11.466  -2.084  1.00  0.00    -0.035 A 
HETATM   26  C   UNL     1      38.536 -12.203  -1.477  1.00  0.00     0.010 A 
HETATM   27  C   UNL     1      37.193 -11.965  -1.793  1.00  0.00     0.007 A 
HETATM   28  C   UNL     1      36.845 -10.995  -2.736  1.00  0.00    -0.062 A 
HETATM   29  C   UNL     1      35.408 -10.710  -3.058  1.00  0.00     0.048 C 
HETATM   30  C   UNL     1      37.862 -10.291  -3.384  1.00  0.00     0.007 A 
HETATM   31  C   UNL     1      39.202 -10.526  -3.066  1.00  0.00     0.010 A 
ENDBRANCH   1  25
BRANCH   8  32
HETATM   32  C   UNL     1      40.229  -8.842  -0.017  1.00  0.00     0.409 C 
HETATM   33  F   UNL     1      39.098  -9.501   0.287  1.00  0.00    -0.169 F 
HETATM   34  F   UNL     1      40.362  -7.834   0.877  1.00  0.00    -0.169 F 
HETATM   35  F   UNL     1      40.037  -8.247  -1.224  1.00  0.00    -0.169 F 
ENDBRANCH   8  32
TORSDOF 6
ENDMDL
MODEL 8
REMARK VINA RESULT:      -8.1      4.610      9.805
REMARK  6 active torsions:
REMARK  status: ('A' for Active; 'I' for Inactive)
REMARK    1  A    between atoms: C_5  and  C_6 
REMARK    2  A    between atoms: C_12  and  C_13 
REMARK       I    between atoms: C_13  and  N_14 
REMARK    3  A    between atoms: N_14  and  C_15 
REMARK    4  A    between atoms: C_18  and  C_19 
REMARK    5  A    between atoms: C_19  and  O_20 
REMARK    6  A    between atoms: C_25  and  C_26 
ROOT
HETATM    1  C   UNL     1      43.091  -7.875   8.419  1.00  0.00     0.118 C 
HETATM    2  N   UNL     1      42.772  -8.787   7.306  1.00  0.00    -0.365 N 
HETATM    3  C   UNL     1      43.335 -10.030   7.255  1.00  0.00     0.138 A 
HETATM    4  N   UNL     1      44.332 -10.398   8.131  1.00  0.00    -0.240 N 
HETATM    5  N   UNL     1      44.857 -11.607   7.879  1.00  0.00    -0.181 NA
HETATM    6  C   UNL     1      44.120 -12.055   6.861  1.00  0.00     0.160 A 
HETATM    7  C   UNL     1      43.156 -11.116   6.414  1.00  0.00     0.096 A 
HETATM    8  C   UNL     1      44.957  -9.516   9.099  1.00  0.00     0.221 C 
HETATM    9  C   UNL     1      44.564  -8.054   8.824  1.00  0.00     0.066 C 
HETATM   10  H   UNL     1      42.678  -8.280   6.425  1.00  0.00     0.161 HD
ENDROOT
BRANCH   7  11
HETATM   11  C   UNL     1      42.246 -11.316   5.294  1.00  0.00     0.261 C 
HETATM   12  N   UNL     1      42.852 -11.270   4.052  1.00  0.00    -0.323 N 
HETATM   13  H   UNL     1      43.824 -10.986   4.056  1.00  0.00     0.169 HD
HETATM   14  O   UNL     1      41.056 -11.529   5.502  1.00  0.00    -0.267 OA
BRANCH  12  15
HETATM   15  C   UNL     1      42.293 -11.636   2.811  1.00  0.00     0.035 A 
HETATM   16  C   UNL     1      41.783 -10.724   1.888  1.00  0.00     0.030 A 
HETATM   17  C   UNL     1      41.181 -11.165   0.704  1.00  0.00     0.012 A 
HETATM   18  C   UNL     1      41.068 -12.531   0.422  1.00  0.00    -0.030 A 
HETATM   19  C   UNL     1      41.588 -13.447   1.347  1.00  0.00     0.012 A 
HETATM   20  C   UNL     1      42.210 -13.002   2.521  1.00  0.00     0.030 A 
BRANCH  18  21
HETATM   21  C   UNL     1      40.347 -12.985  -0.829  1.00  0.00     0.147 C 
HETATM   22  C   UNL     1      39.832 -14.412  -0.700  1.00  0.00     0.044 C 
BRANCH  21  23
HETATM   23  O   UNL     1      41.206 -12.907  -1.965  1.00  0.00    -0.391 OA
HETATM   24  H   UNL     1      41.339 -13.819  -2.276  1.00  0.00     0.210 HD
ENDBRANCH  21  23
ENDBRANCH  18  21
ENDBRANCH  12  15
ENDBRANCH   7  11
BRANCH   1  25
HETATM   25  C   UNL     1      42.109  -7.966   9.575  1.00  0.00    -0.035 A 
HETATM   26  C   UNL     1      41.072  -8.911   9.630  1.00  0.00     0.010 A 
HETATM   27  C   UNL     1      40.231  -8.997  10.745  1.00  0.00     0.007 A 
HETATM   28  C   UNL     1      40.394  -8.132  11.829  1.00  0.00    -0.062 A 
HETATM   29  C   UNL     1      39.519  -8.238  13.042  1.00  0.00     0.048 C 
HETATM   30  C   UNL     1      41.388  -7.153  11.765  1.00  0.00     0.007 A 
HETATM   31  C   UNL     1      42.231  -7.069  10.653  1.00  0.00     0.010 A 
ENDBRANCH   1  25
BRANCH   8  32
HETATM   32  C   UNL     1      44.681  -9.993  10.509  1.00  0.00     0.409 C 
HETATM   33  F   UNL     1      44.565  -9.006  11.413  1.00  0.00    -0.169 F 
HETATM   34  F   UNL     1      43.551 -10.736  10.575  1.00  0.00    -0.169 F 
HETATM   35  F   UNL     1      45.687 -10.807  10.927  1.00  0.00    -0.169 F 
ENDBRANCH   8  32
TORSDOF 6
ENDMDL
MODEL 9
REMARK VINA RESULT:      -8.0     17.338     19.380
REMARK  6 active torsions:
REMARK  status: ('A' for Active; 'I' for Inactive)
REMARK    1  A    between atoms: C_5  and  C_6 
REMARK    2  A    between atoms: C_12  and  C_13 
REMARK       I    between atoms: C_13  and  N_14 
REMARK    3  A    between atoms: N_14  and  C_15 
REMARK    4  A    between atoms: C_18  and  C_19 
REMARK    5  A    between atoms: C_19  and  O_20 
REMARK    6  A    between atoms: C_25  and  C_26 
ROOT
HETATM    1  C   UNL     1      46.912 -31.581  -0.707  1.00  0.00     0.118 C 
HETATM    2  N   UNL     1      46.086 -31.660   0.511  1.00  0.00    -0.365 N 
HETATM    3  C   UNL     1      45.894 -30.549   1.284  1.00  0.00     0.138 A 
HETATM    4  N   UNL     1      46.594 -29.387   1.048  1.00  0.00    -0.240 N 
HETATM    5  N   UNL     1      46.375 -28.428   1.960  1.00  0.00    -0.181 NA
HETATM    6  C   UNL     1      45.450 -28.967   2.756  1.00  0.00     0.160 A 
HETATM    7  C   UNL     1      45.110 -30.296   2.397  1.00  0.00     0.096 A 
HETATM    8  C   UNL     1      47.653 -29.238   0.068  1.00  0.00     0.221 C 
HETATM    9  C   UNL     1      48.084 -30.614  -0.470  1.00  0.00     0.066 C 
HETATM   10  H   UNL     1      46.221 -32.549   0.996  1.00  0.00     0.161 HD
ENDROOT
BRANCH   7  11
HETATM   11  C   UNL     1      44.165 -31.143   3.113  1.00  0.00     0.261 C 
HETATM   12  N   UNL     1      42.971 -30.522   3.429  1.00  0.00    -0.323 N 
HETATM   13  H   UNL     1      42.935 -29.528   3.238  1.00  0.00     0.169 HD
HETATM   14  O   UNL     1      44.453 -32.309   3.361  1.00  0.00    -0.267 OA
BRANCH  12  15
HETATM   15  C   UNL     1      41.793 -31.125   3.915  1.00  0.00     0.035 A 
HETATM   16  C   UNL     1      41.414 -31.124   5.257  1.00  0.00     0.030 A 
HETATM   17  C   UNL     1      40.265 -31.804   5.677  1.00  0.00     0.012 A 
HETATM   18  C   UNL     1      39.472 -32.507   4.763  1.00  0.00    -0.030 A 
HETATM   19  C   UNL     1      39.849 -32.500   3.412  1.00  0.00     0.012 A 
HETATM   20  C   UNL     1      40.989 -31.802   2.991  1.00  0.00     0.030 A 
BRANCH  18  21
HETATM   21  C   UNL     1      38.275 -33.293   5.252  1.00  0.00     0.147 C 
HETATM   22  C   UNL     1      37.091 -33.172   4.302  1.00  0.00     0.044 C 
BRANCH  21  23
HETATM   23  O   UNL     1      37.875 -32.853   6.547  1.00  0.00    -0.391 OA
HETATM   24  H   UNL     1      38.066 -31.899   6.587  1.00  0.00     0.210 HD
ENDBRANCH  21  23
ENDBRANCH  18  21
ENDBRANCH  12  15
ENDBRANCH   7  11
BRANCH   1  25
HETATM   25  C   UNL     1      46.108 -31.294  -1.964  1.00  0.00    -0.035 A 
HETATM   26  C   UNL     1      44.764 -30.890  -1.941  1.00  0.00     0.010 A 
HETATM   27  C   UNL     1      44.083 -30.577  -3.123  1.00  0.00     0.007 A 
HETATM   28  C   UNL     1      44.724 -30.673  -4.361  1.00  0.00    -0.062 A 
HETATM   29  C   UNL     1      44.013 -30.308  -5.630  1.00  0.00     0.048 C 
HETATM   30  C   UNL     1      46.045 -31.124  -4.401  1.00  0.00     0.007 A 
HETATM   31  C   UNL     1      46.726 -31.433  -3.221  1.00  0.00     0.010 A 
ENDBRANCH   1  25
BRANCH   8  32
HETATM   32  C   UNL     1      47.255 -28.237  -0.996  1.00  0.00     0.409 C 
HETATM   33  F   UNL     1      47.675 -28.550  -2.234  1.00  0.00    -0.169 F 
HETATM   34  F   UNL     1      45.912 -28.074  -1.055  1.00  0.00    -0.169 F 
HETATM   35  F   UNL     1      47.765 -27.014  -0.694  1.00  0.00    -0.169 F 
ENDBRANCH   8  32
TORSDOF 6
ENDMDL
MODEL 10
REMARK VINA RESULT:      -7.9      3.848      9.375
REMARK  6 active torsions:
REMARK  status: ('A' for Active; 'I' for Inactive)
REMARK    1  A    between atoms: C_5  and  C_6 
REMARK    2  A    between atoms: C_12  and  C_13 
REMARK       I    between atoms: C_13  and  N_14 
REMARK    3  A    between atoms: N_14  and  C_15 
REMARK    4  A    between atoms: C_18  and  C_19 
REMARK    5  A    between atoms: C_19  and  O_20 
REMARK    6  A    between atoms: C_25  and  C_26 
ROOT
HETATM    1  C   UNL     1      39.698  -9.290   8.473  1.00  0.00     0.118 C 
HETATM    2  N   UNL     1      40.067 -10.457   7.651  1.00  0.00    -0.365 N 
HETATM    3  C   UNL     1      40.822 -10.291   6.524  1.00  0.00     0.138 A 
HETATM    4  N   UNL     1      41.110  -9.036   6.037  1.00  0.00    -0.240 N 
HETATM    5  N   UNL     1      41.764  -9.046   4.866  1.00  0.00    -0.181 NA
HETATM    6  C   UNL     1      41.966 -10.345   4.638  1.00  0.00     0.160 A 
HETATM    7  C   UNL     1      41.395 -11.181   5.631  1.00  0.00     0.096 A 
HETATM    8  C   UNL     1      40.580  -7.795   6.569  1.00  0.00     0.221 C 
HETATM    9  C   UNL     1      39.437  -8.081   7.560  1.00  0.00     0.066 C 
HETATM   10  H   UNL     1      39.306 -11.138   7.608  1.00  0.00     0.161 HD
ENDROOT
BRANCH   7  11
HETATM   11  C   UNL     1      41.422 -12.638   5.618  1.00  0.00     0.261 C 
HETATM   12  N   UNL     1      42.467 -13.182   4.895  1.00  0.00    -0.323 N 
HETATM   13  H   UNL     1      43.017 -12.518   4.363  1.00  0.00     0.169 HD
HETATM   14  O   UNL     1      40.575 -13.272   6.239  1.00  0.00    -0.267 OA
BRANCH  12  15
HETATM   15  C   UNL     1      42.886 -14.527   4.873  1.00  0.00     0.035 A 
HETATM   16  C   UNL     1      43.562 -15.149   5.922  1.00  0.00     0.030 A 
HETATM   17  C   UNL     1      44.008 -16.471   5.801  1.00  0.00     0.012 A 
HETATM   18  C   UNL     1      43.796 -17.196   4.624  1.00  0.00    -0.030 A 
HETATM   19  C   UNL     1      43.109 -16.572   3.573  1.00  0.00     0.012 A 
HETATM   20  C   UNL     1      42.644 -15.257   3.703  1.00  0.00     0.030 A 
BRANCH  18  21
HETATM   21  C   UNL     1      44.352 -18.598   4.492  1.00  0.00     0.147 C 
HETATM   22  C   UNL     1      44.008 -19.218   3.144  1.00  0.00     0.044 C 
BRANCH  21  23
HETATM   23  O   UNL     1      43.853 -19.441   5.527  1.00  0.00    -0.391 OA
HETATM   24  H   UNL     1      43.601 -18.856   6.264  1.00  0.00     0.210 HD
ENDBRANCH  21  23
ENDBRANCH  18  21
ENDBRANCH  12  15
ENDBRANCH   7  11
BRANCH   1  25
HETATM   25  C   UNL     1      40.671  -9.020   9.609  1.00  0.00    -0.035 A 
HETATM   26  C   UNL     1      41.936  -9.621   9.695  1.00  0.00     0.010 A 
HETATM   27  C   UNL     1      42.824  -9.292  10.726  1.00  0.00     0.007 A 
HETATM   28  C   UNL     1      42.464  -8.364  11.706  1.00  0.00    -0.062 A 
HETATM   29  C   UNL     1      43.420  -7.981  12.796  1.00  0.00     0.048 C 
HETATM   30  C   UNL     1      41.189  -7.798  11.661  1.00  0.00     0.007 A 
HETATM   31  C   UNL     1      40.304  -8.123  10.629  1.00  0.00     0.010 A 
ENDBRANCH   1  25
BRANCH   8  32
HETATM   32  C   UNL     1      41.696  -6.933   7.120  1.00  0.00     0.409 C 
HETATM   33  F   UNL     1      42.186  -6.039   6.244  1.00  0.00    -0.169 F 
HETATM   34  F   UNL     1      41.306  -6.248   8.220  1.00  0.00    -0.169 F 
HETATM   35  F   UNL     1      42.733  -7.718   7.517  1.00  0.00    -0.169 F 
ENDBRANCH   8  32
TORSDOF 6
ENDMDL
