MODEL 1
REMARK VINA RESULT:      -9.8      0.000      0.000
REMARK  2 active torsions:
REMARK  status: ('A' for Active; 'I' for Inactive)
REMARK    1  A    between atoms: C_4  and  C_5 
REMARK       I    between atoms: N_12  and  C_13 
REMARK    2  A    between atoms: C_13  and  C_14 
ROOT
HETATM    1  C   UNL     1      43.810 -17.342   5.270  1.00  0.00     0.097 A 
HETATM    2  N   UNL     1      44.232 -17.586   6.527  1.00  0.00    -0.173 NA
HETATM    3  N   UNL     1      44.105 -16.418   7.173  1.00  0.00    -0.281 N 
HETATM    4  H   UNL     1      44.357 -16.380   8.155  1.00  0.00     0.189 HD
HETATM    5  C   UNL     1      43.607 -15.436   6.385  1.00  0.00     0.039 A 
HETATM    6  C   UNL     1      43.423 -15.977   5.134  1.00  0.00     0.015 A 
HETATM    7  C   UNL     1      42.873 -15.210   3.984  1.00  0.00     0.169 C 
HETATM    8  N   UNL     1      42.329 -13.905   4.432  1.00  0.00    -0.343 N 
HETATM    9  C   UNL     1      41.581 -13.083   3.581  1.00  0.00     0.254 C 
HETATM   10  O   UNL     1      41.363 -11.894   3.801  1.00  0.00    -0.267 OA
HETATM   11  C   UNL     1      43.055 -13.209   5.519  1.00  0.00     0.132 C 
HETATM   12  C   UNL     1      43.248 -14.061   6.789  1.00  0.00     0.079 C 
ENDROOT
BRANCH   9  13
HETATM   13  C   UNL     1      41.058 -13.629   2.311  1.00  0.00     0.035 A 
HETATM   14  C   UNL     1      41.179 -12.836   1.163  1.00  0.00     0.056 A 
HETATM   15  C   UNL     1      40.663 -13.337  -0.009  1.00  0.00     0.106 A 
HETATM   16  C   UNL     1      40.040 -14.563  -0.064  1.00  0.00     0.105 A 
HETATM   17  O   UNL     1      40.692 -12.714  -1.218  1.00  0.00    -0.323 OA
HETATM   18  O   UNL     1      39.603 -14.864  -1.316  1.00  0.00    -0.323 OA
HETATM   19  C   UNL     1      39.889 -15.355   1.056  1.00  0.00     0.041 A 
HETATM   20  C   UNL     1      39.993 -13.676  -2.036  1.00  0.00     0.352 A 
HETATM   21  C   UNL     1      40.395 -14.873   2.267  1.00  0.00     0.020 A 
ENDBRANCH   9  13
BRANCH   1  22
HETATM   22  C   UNL     1      43.748 -18.423   4.283  1.00  0.00    -0.005 A 
HETATM   23  C   UNL     1      44.028 -19.741   4.679  1.00  0.00     0.014 A 
HETATM   24  C   UNL     1      43.945 -20.797   3.768  1.00  0.00     0.001 A 
HETATM   25  C   UNL     1      43.583 -20.546   2.447  1.00  0.00     0.000 A 
HETATM   26  C   UNL     1      43.316 -19.242   2.035  1.00  0.00     0.001 A 
HETATM   27  C   UNL     1      43.402 -18.185   2.946  1.00  0.00     0.014 A 
ENDBRANCH   1  22
TORSDOF 2
ENDMDL
MODEL 2
REMARK VINA RESULT:      -9.2      3.537      6.481
REMARK  2 active torsions:
REMARK  status: ('A' for Active; 'I' for Inactive)
REMARK    1  A    between atoms: C_4  and  C_5 
REMARK       I    between atoms: N_12  and  C_13 
REMARK    2  A    between atoms: C_13  and  C_14 
ROOT
HETATM    1  C   UNL     1      40.871 -15.523   3.707  1.00  0.00     0.097 A 
HETATM    2  N   UNL     1      40.104 -16.004   2.709  1.00  0.00    -0.173 NA
HETATM    3  N   UNL     1      39.374 -14.959   2.291  1.00  0.00    -0.281 N 
HETATM    4  H   UNL     1      38.728 -15.100   1.521  1.00  0.00     0.189 HD
HETATM    5  C   UNL     1      39.650 -13.823   2.973  1.00  0.00     0.039 A 
HETATM    6  C   UNL     1      40.596 -14.140   3.920  1.00  0.00     0.015 A 
HETATM    7  C   UNL     1      41.171 -13.147   4.866  1.00  0.00     0.169 C 
HETATM    8  N   UNL     1      40.786 -11.767   4.481  1.00  0.00    -0.343 N 
HETATM    9  C   UNL     1      41.357 -10.643   5.088  1.00  0.00     0.254 C 
HETATM   10  O   UNL     1      40.875  -9.514   5.019  1.00  0.00    -0.267 OA
HETATM   11  C   UNL     1      39.425 -11.577   3.929  1.00  0.00     0.132 C 
HETATM   12  C   UNL     1      39.110 -12.472   2.716  1.00  0.00     0.079 C 
ENDROOT
BRANCH   9  13
HETATM   13  C   UNL     1      42.573 -10.795   5.914  1.00  0.00     0.035 A 
HETATM   14  C   UNL     1      42.523 -10.338   7.237  1.00  0.00     0.056 A 
HETATM   15  C   UNL     1      43.668 -10.455   7.990  1.00  0.00     0.106 A 
HETATM   16  C   UNL     1      44.827 -10.989   7.473  1.00  0.00     0.105 A 
HETATM   17  O   UNL     1      43.806 -10.072   9.288  1.00  0.00    -0.323 OA
HETATM   18  O   UNL     1      45.836 -11.010   8.384  1.00  0.00    -0.323 OA
HETATM   19  C   UNL     1      44.909 -11.427   6.167  1.00  0.00     0.041 A 
HETATM   20  C   UNL     1      45.191 -10.401   9.522  1.00  0.00     0.352 A 
HETATM   21  C   UNL     1      43.765 -11.316   5.370  1.00  0.00     0.020 A 
ENDBRANCH   9  13
BRANCH   1  22
HETATM   22  C   UNL     1      41.856 -16.382   4.369  1.00  0.00    -0.005 A 
HETATM   23  C   UNL     1      42.866 -16.993   3.608  1.00  0.00     0.014 A 
HETATM   24  C   UNL     1      43.838 -17.790   4.216  1.00  0.00     0.001 A 
HETATM   25  C   UNL     1      43.810 -17.989   5.595  1.00  0.00     0.000 A 
HETATM   26  C   UNL     1      42.806 -17.401   6.361  1.00  0.00     0.001 A 
HETATM   27  C   UNL     1      41.831 -16.606   5.752  1.00  0.00     0.014 A 
ENDBRANCH   1  22
TORSDOF 2
ENDMDL
MODEL 3
REMARK VINA RESULT:      -9.1      1.127      2.034
REMARK  2 active torsions:
REMARK  status: ('A' for Active; 'I' for Inactive)
REMARK    1  A    between atoms: C_4  and  C_5 
REMARK       I    between atoms: N_12  and  C_13 
REMARK    2  A    between atoms: C_13  and  C_14 
ROOT
HETATM    1  C   UNL     1      43.518 -18.026   5.650  1.00  0.00     0.097 A 
HETATM    2  N   UNL     1      43.700 -18.673   6.819  1.00  0.00    -0.173 NA
HETATM    3  N   UNL     1      43.580 -17.729   7.765  1.00  0.00    -0.281 N 
HETATM    4  H   UNL     1      43.668 -18.007   8.737  1.00  0.00     0.189 HD
HETATM    5  C   UNL     1      43.317 -16.504   7.251  1.00  0.00     0.039 A 
HETATM    6  C   UNL     1      43.293 -16.638   5.882  1.00  0.00     0.015 A 
HETATM    7  C   UNL     1      43.019 -15.507   4.955  1.00  0.00     0.169 C 
HETATM    8  N   UNL     1      42.535 -14.319   5.701  1.00  0.00    -0.343 N 
HETATM    9  C   UNL     1      42.022 -13.194   5.047  1.00  0.00     0.254 C 
HETATM   10  O   UNL     1      41.886 -12.097   5.585  1.00  0.00    -0.267 OA
HETATM   11  C   UNL     1      43.134 -14.070   7.032  1.00  0.00     0.132 C 
HETATM   12  C   UNL     1      43.030 -15.264   8.000  1.00  0.00     0.079 C 
ENDROOT
BRANCH   9  13
HETATM   13  C   UNL     1      41.667 -13.278   3.614  1.00  0.00     0.035 A 
HETATM   14  C   UNL     1      40.842 -14.335   3.209  1.00  0.00     0.056 A 
HETATM   15  C   UNL     1      40.541 -14.425   1.870  1.00  0.00     0.106 A 
HETATM   16  C   UNL     1      41.032 -13.524   0.953  1.00  0.00     0.105 A 
HETATM   17  O   UNL     1      39.757 -15.376   1.296  1.00  0.00    -0.323 OA
HETATM   18  O   UNL     1      40.614 -13.797  -0.312  1.00  0.00    -0.323 OA
HETATM   19  C   UNL     1      41.863 -12.486   1.322  1.00  0.00     0.041 A 
HETATM   20  C   UNL     1      39.831 -14.988  -0.092  1.00  0.00     0.352 A 
HETATM   21  C   UNL     1      42.196 -12.369   2.675  1.00  0.00     0.020 A 
ENDBRANCH   9  13
BRANCH   1  22
HETATM   22  C   UNL     1      43.518 -18.764   4.385  1.00  0.00    -0.005 A 
HETATM   23  C   UNL     1      43.177 -18.100   3.195  1.00  0.00     0.014 A 
HETATM   24  C   UNL     1      43.199 -18.769   1.969  1.00  0.00     0.001 A 
HETATM   25  C   UNL     1      43.561 -20.114   1.918  1.00  0.00     0.000 A 
HETATM   26  C   UNL     1      43.888 -20.790   3.092  1.00  0.00     0.001 A 
HETATM   27  C   UNL     1      43.862 -20.121   4.320  1.00  0.00     0.014 A 
ENDBRANCH   1  22
TORSDOF 2
ENDMDL
MODEL 4
REMARK VINA RESULT:      -9.0      1.101      1.633
REMARK  2 active torsions:
REMARK  status: ('A' for Active; 'I' for Inactive)
REMARK    1  A    between atoms: C_4  and  C_5 
REMARK       I    between atoms: N_12  and  C_13 
REMARK    2  A    between atoms: C_13  and  C_14 
ROOT
HETATM    1  C   UNL     1      43.372 -15.950   5.135  1.00  0.00     0.097 A 
HETATM    2  N   UNL     1      43.660 -16.034   6.449  1.00  0.00    -0.173 NA
HETATM    3  N   UNL     1      43.430 -14.807   6.938  1.00  0.00    -0.281 N 
HETATM    4  H   UNL     1      43.572 -14.650   7.931  1.00  0.00     0.189 HD
HETATM    5  C   UNL     1      42.993 -13.941   5.994  1.00  0.00     0.039 A 
HETATM    6  C   UNL     1      42.963 -14.625   4.801  1.00  0.00     0.015 A 
HETATM    7  C   UNL     1      42.522 -14.015   3.519  1.00  0.00     0.169 C 
HETATM    8  N   UNL     1      41.894 -12.691   3.753  1.00  0.00    -0.343 N 
HETATM    9  C   UNL     1      41.220 -12.001   2.738  1.00  0.00     0.254 C 
HETATM   10  O   UNL     1      40.946 -10.804   2.795  1.00  0.00    -0.267 OA
HETATM   11  C   UNL     1      42.477 -11.849   4.823  1.00  0.00     0.132 C 
HETATM   12  C   UNL     1      42.553 -12.545   6.196  1.00  0.00     0.079 C 
ENDROOT
BRANCH   9  13
HETATM   13  C   UNL     1      40.856 -12.706   1.492  1.00  0.00     0.035 A 
HETATM   14  C   UNL     1      41.061 -12.034   0.281  1.00  0.00     0.056 A 
HETATM   15  C   UNL     1      40.690 -12.685  -0.874  1.00  0.00     0.106 A 
HETATM   16  C   UNL     1      40.131 -13.942  -0.853  1.00  0.00     0.105 A 
HETATM   17  O   UNL     1      40.817 -12.194  -2.136  1.00  0.00    -0.323 OA
HETATM   18  O   UNL     1      39.839 -14.398  -2.100  1.00  0.00    -0.323 OA
HETATM   19  C   UNL     1      39.899 -14.617   0.328  1.00  0.00     0.041 A 
HETATM   20  C   UNL     1      40.249 -13.273  -2.906  1.00  0.00     0.352 A 
HETATM   21  C   UNL     1      40.256 -13.983   1.522  1.00  0.00     0.020 A 
ENDBRANCH   9  13
BRANCH   1  22
HETATM   22  C   UNL     1      43.449 -17.136   4.279  1.00  0.00    -0.005 A 
HETATM   23  C   UNL     1      42.753 -17.159   3.059  1.00  0.00     0.014 A 
HETATM   24  C   UNL     1      42.835 -18.262   2.207  1.00  0.00     0.001 A 
HETATM   25  C   UNL     1      43.613 -19.361   2.567  1.00  0.00     0.000 A 
HETATM   26  C   UNL     1      44.298 -19.359   3.780  1.00  0.00     0.001 A 
HETATM   27  C   UNL     1      44.214 -18.256   4.634  1.00  0.00     0.014 A 
ENDBRANCH   1  22
TORSDOF 2
ENDMDL
MODEL 5
REMARK VINA RESULT:      -8.8      2.773      5.992
REMARK  2 active torsions:
REMARK  status: ('A' for Active; 'I' for Inactive)
REMARK    1  A    between atoms: C_4  and  C_5 
REMARK       I    between atoms: N_12  and  C_13 
REMARK    2  A    between atoms: C_13  and  C_14 
ROOT
HETATM    1  C   UNL     1      41.529 -13.532   3.659  1.00  0.00     0.097 A 
HETATM    2  N   UNL     1      41.510 -12.191   3.790  1.00  0.00    -0.173 NA
HETATM    3  N   UNL     1      42.107 -11.944   4.966  1.00  0.00    -0.281 N 
HETATM    4  H   UNL     1      42.214 -10.979   5.259  1.00  0.00     0.189 HD
HETATM    5  C   UNL     1      42.521 -13.073   5.589  1.00  0.00     0.039 A 
HETATM    6  C   UNL     1      42.146 -14.132   4.795  1.00  0.00     0.015 A 
HETATM    7  C   UNL     1      42.437 -15.551   5.134  1.00  0.00     0.169 C 
HETATM    8  N   UNL     1      43.380 -15.638   6.275  1.00  0.00    -0.343 N 
HETATM    9  C   UNL     1      43.965 -16.849   6.662  1.00  0.00     0.254 C 
HETATM   10  O   UNL     1      44.508 -17.027   7.751  1.00  0.00    -0.267 OA
HETATM   11  C   UNL     1      43.238 -14.624   7.346  1.00  0.00     0.132 C 
HETATM   12  C   UNL     1      43.295 -13.169   6.843  1.00  0.00     0.079 C 
ENDROOT
BRANCH   9  13
HETATM   13  C   UNL     1      43.894 -18.017   5.759  1.00  0.00     0.035 A 
HETATM   14  C   UNL     1      43.981 -17.780   4.381  1.00  0.00     0.056 A 
HETATM   15  C   UNL     1      43.883 -18.868   3.545  1.00  0.00     0.106 A 
HETATM   16  C   UNL     1      43.698 -20.143   4.029  1.00  0.00     0.105 A 
HETATM   17  O   UNL     1      43.949 -18.833   2.187  1.00  0.00    -0.323 OA
HETATM   18  O   UNL     1      43.627 -21.068   3.035  1.00  0.00    -0.323 OA
HETATM   19  C   UNL     1      43.589 -20.401   5.380  1.00  0.00     0.041 A 
HETATM   20  C   UNL     1      43.757 -20.227   1.869  1.00  0.00     0.352 A 
HETATM   21  C   UNL     1      43.676 -19.317   6.260  1.00  0.00     0.020 A 
ENDBRANCH   9  13
BRANCH   1  22
HETATM   22  C   UNL     1      41.010 -14.168   2.445  1.00  0.00    -0.005 A 
HETATM   23  C   UNL     1      40.376 -15.418   2.534  1.00  0.00     0.014 A 
HETATM   24  C   UNL     1      39.842 -16.032   1.399  1.00  0.00     0.001 A 
HETATM   25  C   UNL     1      39.939 -15.405   0.159  1.00  0.00     0.000 A 
HETATM   26  C   UNL     1      40.578 -14.171   0.053  1.00  0.00     0.001 A 
HETATM   27  C   UNL     1      41.115 -13.557   1.188  1.00  0.00     0.014 A 
ENDBRANCH   1  22
TORSDOF 2
ENDMDL
MODEL 6
REMARK VINA RESULT:      -8.7      3.220      6.978
REMARK  2 active torsions:
REMARK  status: ('A' for Active; 'I' for Inactive)
REMARK    1  A    between atoms: C_4  and  C_5 
REMARK       I    between atoms: N_12  and  C_13 
REMARK    2  A    between atoms: C_13  and  C_14 
ROOT
HETATM    1  C   UNL     1      41.921 -10.664   5.062  1.00  0.00     0.097 A 
HETATM    2  N   UNL     1      41.252  -9.494   5.033  1.00  0.00    -0.173 NA
HETATM    3  N   UNL     1      40.198  -9.712   4.233  1.00  0.00    -0.281 N 
HETATM    4  H   UNL     1      39.542  -8.952   4.082  1.00  0.00     0.189 HD
HETATM    5  C   UNL     1      40.156 -10.979   3.757  1.00  0.00     0.039 A 
HETATM    6  C   UNL     1      41.265 -11.630   4.244  1.00  0.00     0.015 A 
HETATM    7  C   UNL     1      41.570 -13.057   3.953  1.00  0.00     0.169 C 
HETATM    8  N   UNL     1      40.414 -13.720   3.303  1.00  0.00    -0.343 N 
HETATM    9  C   UNL     1      40.370 -15.106   3.106  1.00  0.00     0.254 C 
HETATM   10  O   UNL     1      39.593 -15.659   2.331  1.00  0.00    -0.267 OA
HETATM   11  C   UNL     1      39.622 -12.912   2.347  1.00  0.00     0.132 C 
HETATM   12  C   UNL     1      39.092 -11.590   2.933  1.00  0.00     0.079 C 
ENDROOT
BRANCH   9  13
HETATM   13  C   UNL     1      41.335 -15.975   3.810  1.00  0.00     0.035 A 
HETATM   14  C   UNL     1      42.242 -16.705   3.031  1.00  0.00     0.056 A 
HETATM   15  C   UNL     1      43.117 -17.536   3.692  1.00  0.00     0.106 A 
HETATM   16  C   UNL     1      43.107 -17.661   5.062  1.00  0.00     0.105 A 
HETATM   17  O   UNL     1      44.066 -18.315   3.106  1.00  0.00    -0.323 OA
HETATM   18  O   UNL     1      44.051 -18.533   5.508  1.00  0.00    -0.323 OA
HETATM   19  C   UNL     1      42.211 -16.969   5.851  1.00  0.00     0.041 A 
HETATM   20  C   UNL     1      44.635 -18.966   4.261  1.00  0.00     0.352 A 
HETATM   21  C   UNL     1      41.301 -16.121   5.213  1.00  0.00     0.020 A 
ENDBRANCH   9  13
BRANCH   1  22
HETATM   22  C   UNL     1      43.112 -10.819   5.901  1.00  0.00    -0.005 A 
HETATM   23  C   UNL     1      43.063 -10.442   7.253  1.00  0.00     0.014 A 
HETATM   24  C   UNL     1      44.172 -10.608   8.085  1.00  0.00     0.001 A 
HETATM   25  C   UNL     1      45.348 -11.153   7.573  1.00  0.00     0.000 A 
HETATM   26  C   UNL     1      45.417 -11.519   6.230  1.00  0.00     0.001 A 
HETATM   27  C   UNL     1      44.307 -11.349   5.397  1.00  0.00     0.014 A 
ENDBRANCH   1  22
TORSDOF 2
ENDMDL
MODEL 7
REMARK VINA RESULT:      -8.4     14.178     15.960
REMARK  2 active torsions:
REMARK  status: ('A' for Active; 'I' for Inactive)
REMARK    1  A    between atoms: C_4  and  C_5 
REMARK       I    between atoms: N_12  and  C_13 
REMARK    2  A    between atoms: C_13  and  C_14 
ROOT
HETATM    1  C   UNL     1      49.228 -30.555   1.327  1.00  0.00     0.097 A 
HETATM    2  N   UNL     1      49.713 -30.952   2.520  1.00  0.00    -0.173 NA
HETATM    3  N   UNL     1      48.704 -30.778   3.386  1.00  0.00    -0.281 N 
HETATM    4  H   UNL     1      48.852 -31.034   4.357  1.00  0.00     0.189 HD
HETATM    5  C   UNL     1      47.585 -30.297   2.794  1.00  0.00     0.039 A 
HETATM    6  C   UNL     1      47.881 -30.110   1.464  1.00  0.00     0.015 A 
HETATM    7  C   UNL     1      46.897 -29.602   0.471  1.00  0.00     0.169 C 
HETATM    8  N   UNL     1      45.531 -29.576   1.048  1.00  0.00    -0.343 N 
HETATM    9  C   UNL     1      44.400 -29.328   0.262  1.00  0.00     0.254 C 
HETATM   10  O   UNL     1      43.305 -29.011   0.724  1.00  0.00    -0.267 OA
HETATM   11  C   UNL     1      45.410 -29.211   2.478  1.00  0.00     0.132 C 
HETATM   12  C   UNL     1      46.265 -30.079   3.421  1.00  0.00     0.079 C 
ENDROOT
BRANCH   9  13
HETATM   13  C   UNL     1      44.505 -29.385  -1.211  1.00  0.00     0.035 A 
HETATM   14  C   UNL     1      44.233 -30.608  -1.836  1.00  0.00     0.056 A 
HETATM   15  C   UNL     1      44.363 -30.661  -3.205  1.00  0.00     0.106 A 
HETATM   16  C   UNL     1      44.754 -29.566  -3.941  1.00  0.00     0.105 A 
HETATM   17  O   UNL     1      44.138 -31.755  -3.980  1.00  0.00    -0.323 OA
HETATM   18  O   UNL     1      44.821 -29.837  -5.272  1.00  0.00    -0.323 OA
HETATM   19  C   UNL     1      45.048 -28.356  -3.348  1.00  0.00     0.041 A 
HETATM   20  C   UNL     1      44.457 -31.233  -5.287  1.00  0.00     0.352 A 
HETATM   21  C   UNL     1      44.934 -28.267  -1.957  1.00  0.00     0.020 A 
ENDBRANCH   9  13
BRANCH   1  22
HETATM   22  C   UNL     1      50.047 -30.666   0.117  1.00  0.00    -0.005 A 
HETATM   23  C   UNL     1      51.204 -31.463   0.133  1.00  0.00     0.014 A 
HETATM   24  C   UNL     1      51.985 -31.614  -1.015  1.00  0.00     0.001 A 
HETATM   25  C   UNL     1      51.621 -30.966  -2.194  1.00  0.00     0.000 A 
HETATM   26  C   UNL     1      50.484 -30.161  -2.220  1.00  0.00     0.001 A 
HETATM   27  C   UNL     1      49.703 -30.007  -1.071  1.00  0.00     0.014 A 
ENDBRANCH   1  22
TORSDOF 2
ENDMDL
MODEL 8
REMARK VINA RESULT:      -8.3      1.609      2.710
REMARK  2 active torsions:
REMARK  status: ('A' for Active; 'I' for Inactive)
REMARK    1  A    between atoms: C_4  and  C_5 
REMARK       I    between atoms: N_12  and  C_13 
REMARK    2  A    between atoms: C_13  and  C_14 
ROOT
HETATM    1  C   UNL     1      43.120 -14.950   5.315  1.00  0.00     0.097 A 
HETATM    2  N   UNL     1      43.320 -15.118   6.637  1.00  0.00    -0.173 NA
HETATM    3  N   UNL     1      43.177 -13.896   7.172  1.00  0.00    -0.281 N 
HETATM    4  H   UNL     1      43.274 -13.796   8.177  1.00  0.00     0.189 HD
HETATM    5  C   UNL     1      42.881 -12.952   6.248  1.00  0.00     0.039 A 
HETATM    6  C   UNL     1      42.858 -13.580   5.024  1.00  0.00     0.015 A 
HETATM    7  C   UNL     1      42.553 -12.875   3.750  1.00  0.00     0.169 C 
HETATM    8  N   UNL     1      42.039 -11.509   4.012  1.00  0.00    -0.343 N 
HETATM    9  C   UNL     1      41.495 -10.715   2.996  1.00  0.00     0.254 C 
HETATM   10  O   UNL     1      41.331  -9.500   3.096  1.00  0.00    -0.267 OA
HETATM   11  C   UNL     1      42.633 -10.773   5.152  1.00  0.00     0.132 C 
HETATM   12  C   UNL     1      42.562 -11.531   6.492  1.00  0.00     0.079 C 
ENDROOT
BRANCH   9  13
HETATM   13  C   UNL     1      41.140 -11.328   1.699  1.00  0.00     0.035 A 
HETATM   14  C   UNL     1      40.557 -12.601   1.719  1.00  0.00     0.056 A 
HETATM   15  C   UNL     1      40.258 -13.178   0.506  1.00  0.00     0.106 A 
HETATM   16  C   UNL     1      40.525 -12.545  -0.686  1.00  0.00     0.105 A 
HETATM   17  O   UNL     1      39.689 -14.400   0.329  1.00  0.00    -0.323 OA
HETATM   18  O   UNL     1      40.152 -13.290  -1.761  1.00  0.00    -0.323 OA
HETATM   19  C   UNL     1      41.117 -11.299  -0.734  1.00  0.00     0.041 A 
HETATM   20  C   UNL     1      39.651 -14.477  -1.111  1.00  0.00     0.352 A 
HETATM   21  C   UNL     1      41.442 -10.686   0.480  1.00  0.00     0.020 A 
ENDBRANCH   9  13
BRANCH   1  22
HETATM   22  C   UNL     1      43.137 -16.101   4.409  1.00  0.00    -0.005 A 
HETATM   23  C   UNL     1      42.307 -16.104   3.276  1.00  0.00     0.014 A 
HETATM   24  C   UNL     1      42.326 -17.173   2.376  1.00  0.00     0.001 A 
HETATM   25  C   UNL     1      43.175 -18.255   2.601  1.00  0.00     0.000 A 
HETATM   26  C   UNL     1      43.994 -18.272   3.728  1.00  0.00     0.001 A 
HETATM   27  C   UNL     1      43.973 -17.204   4.630  1.00  0.00     0.014 A 
ENDBRANCH   1  22
TORSDOF 2
ENDMDL
MODEL 9
REMARK VINA RESULT:      -8.2      2.524      4.050
REMARK  2 active torsions:
REMARK  status: ('A' for Active; 'I' for Inactive)
REMARK    1  A    between atoms: C_4  and  C_5 
REMARK       I    between atoms: N_12  and  C_13 
REMARK    2  A    between atoms: C_13  and  C_14 
ROOT
HETATM    1  C   UNL     1      41.754 -13.665   4.145  1.00  0.00     0.097 A 
HETATM    2  N   UNL     1      41.735 -13.524   5.486  1.00  0.00    -0.173 NA
HETATM    3  N   UNL     1      41.416 -12.239   5.700  1.00  0.00    -0.281 N 
HETATM    4  H   UNL     1      41.331 -11.917   6.659  1.00  0.00     0.189 HD
HETATM    5  C   UNL     1      41.217 -11.551   4.551  1.00  0.00     0.039 A 
HETATM    6  C   UNL     1      41.450 -12.423   3.513  1.00  0.00     0.015 A 
HETATM    7  C   UNL     1      41.320 -12.043   2.081  1.00  0.00     0.169 C 
HETATM    8  N   UNL     1      40.674 -10.715   1.944  1.00  0.00    -0.343 N 
HETATM    9  C   UNL     1      40.257 -10.219   0.704  1.00  0.00     0.254 C 
HETATM   10  O   UNL     1      39.993  -9.036   0.498  1.00  0.00    -0.267 OA
HETATM   11  C   UNL     1      41.009  -9.695   2.964  1.00  0.00     0.132 C 
HETATM   12  C   UNL     1      40.762 -10.153   4.414  1.00  0.00     0.079 C 
ENDROOT
BRANCH   9  13
HETATM   13  C   UNL     1      40.176 -11.128  -0.458  1.00  0.00     0.035 A 
HETATM   14  C   UNL     1      39.040 -11.939  -0.571  1.00  0.00     0.056 A 
HETATM   15  C   UNL     1      38.984 -12.805  -1.639  1.00  0.00     0.106 A 
HETATM   16  C   UNL     1      40.002 -12.888  -2.561  1.00  0.00     0.105 A 
HETATM   17  O   UNL     1      37.964 -13.661  -1.913  1.00  0.00    -0.323 OA
HETATM   18  O   UNL     1      39.747 -13.806  -3.531  1.00  0.00    -0.323 OA
HETATM   19  C   UNL     1      41.141 -12.115  -2.461  1.00  0.00     0.041 A 
HETATM   20  C   UNL     1      38.467 -14.313  -3.098  1.00  0.00     0.352 A 
HETATM   21  C   UNL     1      41.235 -11.229  -1.384  1.00  0.00     0.020 A 
ENDBRANCH   9  13
BRANCH   1  22
HETATM   22  C   UNL     1      42.008 -14.973   3.538  1.00  0.00    -0.005 A 
HETATM   23  C   UNL     1      43.145 -15.705   3.917  1.00  0.00     0.014 A 
HETATM   24  C   UNL     1      43.396 -16.970   3.379  1.00  0.00     0.001 A 
HETATM   25  C   UNL     1      42.512 -17.518   2.452  1.00  0.00     0.000 A 
HETATM   26  C   UNL     1      41.387 -16.797   2.056  1.00  0.00     0.001 A 
HETATM   27  C   UNL     1      41.137 -15.530   2.592  1.00  0.00     0.014 A 
ENDBRANCH   1  22
TORSDOF 2
ENDMDL
MODEL 10
REMARK VINA RESULT:      -8.2     14.401     16.056
REMARK  2 active torsions:
REMARK  status: ('A' for Active; 'I' for Inactive)
REMARK    1  A    between atoms: C_4  and  C_5 
REMARK       I    between atoms: N_12  and  C_13 
REMARK    2  A    between atoms: C_13  and  C_14 
ROOT
HETATM    1  C   UNL     1      47.892 -29.521  -1.586  1.00  0.00     0.097 A 
HETATM    2  N   UNL     1      49.173 -29.641  -1.987  1.00  0.00    -0.173 NA
HETATM    3  N   UNL     1      49.879 -29.818  -0.860  1.00  0.00    -0.281 N 
HETATM    4  H   UNL     1      50.882 -29.947  -0.935  1.00  0.00     0.189 HD
HETATM    5  C   UNL     1      49.100 -29.828   0.248  1.00  0.00     0.039 A 
HETATM    6  C   UNL     1      47.807 -29.613  -0.166  1.00  0.00     0.015 A 
HETATM    7  C   UNL     1      46.647 -29.569   0.765  1.00  0.00     0.169 C 
HETATM    8  N   UNL     1      47.039 -30.033   2.118  1.00  0.00    -0.343 N 
HETATM    9  C   UNL     1      46.093 -30.274   3.121  1.00  0.00     0.254 C 
HETATM   10  O   UNL     1      46.375 -30.371   4.314  1.00  0.00    -0.267 OA
HETATM   11  C   UNL     1      48.394 -29.666   2.590  1.00  0.00     0.132 C 
HETATM   12  C   UNL     1      49.527 -30.095   1.637  1.00  0.00     0.079 C 
ENDROOT
BRANCH   9  13
HETATM   13  C   UNL     1      44.660 -30.363   2.769  1.00  0.00     0.035 A 
HETATM   14  C   UNL     1      44.135 -31.633   2.498  1.00  0.00     0.056 A 
HETATM   15  C   UNL     1      42.808 -31.705   2.141  1.00  0.00     0.106 A 
HETATM   16  C   UNL     1      42.020 -30.582   2.042  1.00  0.00     0.105 A 
HETATM   17  O   UNL     1      42.128 -32.845   1.847  1.00  0.00    -0.323 OA
HETATM   18  O   UNL     1      40.744 -30.877   1.675  1.00  0.00    -0.323 OA
HETATM   19  C   UNL     1      42.518 -29.318   2.284  1.00  0.00     0.041 A 
HETATM   20  C   UNL     1      40.827 -32.310   1.525  1.00  0.00     0.352 A 
HETATM   21  C   UNL     1      43.865 -29.206   2.642  1.00  0.00     0.020 A 
ENDBRANCH   9  13
BRANCH   1  22
HETATM   22  C   UNL     1      46.815 -29.377  -2.569  1.00  0.00    -0.005 A 
HETATM   23  C   UNL     1      46.452 -30.474  -3.366  1.00  0.00     0.014 A 
HETATM   24  C   UNL     1      45.408 -30.376  -4.288  1.00  0.00     0.001 A 
HETATM   25  C   UNL     1      44.715 -29.175  -4.427  1.00  0.00     0.000 A 
HETATM   26  C   UNL     1      45.073 -28.073  -3.654  1.00  0.00     0.001 A 
HETATM   27  C   UNL     1      46.120 -28.170  -2.733  1.00  0.00     0.014 A 
ENDBRANCH   1  22
TORSDOF 2
ENDMDL
