MODEL 1
REMARK VINA RESULT:      -9.0      0.000      0.000
REMARK  7 active torsions:
REMARK  status: ('A' for Active; 'I' for Inactive)
REMARK    1  A    between atoms: O_2  and  C_3 
REMARK    2  A    between atoms: C_6  and  C_7 
REMARK    3  A    between atoms: C_11  and  C_12 
REMARK       I    between atoms: C_12  and  N_13 
REMARK    4  A    between atoms: N_13  and  N_14 
REMARK       I    between atoms: N_14  and  C_15 
REMARK    5  A    between atoms: C_15  and  C_16 
REMARK    6  A    between atoms: C_16  and  C_17 
REMARK    7  A    between atoms: C_17  and  C_18 
ROOT
HETATM    1  C   UNL     1      42.500 -11.535   5.884  1.00  0.00     0.288 C 
HETATM    2  N   UNL     1      42.812 -11.687   7.218  1.00  0.00    -0.262 N 
HETATM    3  O   UNL     1      42.093 -10.466   5.431  1.00  0.00    -0.264 OA
HETATM    4  H   UNL     1      43.107 -12.563   7.641  1.00  0.00     0.190 HD
ENDROOT
BRANCH   1   5
HETATM    5  C   UNL     1      42.696 -12.699   5.068  1.00  0.00     0.121 A 
HETATM    6  N   UNL     1      42.817 -12.617   3.709  1.00  0.00    -0.272 N 
HETATM    7  N   UNL     1      43.007 -13.796   3.102  1.00  0.00    -0.174 NA
HETATM    8  H   UNL     1      42.776 -11.774   3.143  1.00  0.00     0.189 HD
HETATM    9  C   UNL     1      43.050 -14.691   4.101  1.00  0.00     0.089 A 
HETATM   10  C   UNL     1      42.834 -14.043   5.351  1.00  0.00     0.071 A 
BRANCH   9  11
HETATM   11  C   UNL     1      43.288 -16.115   3.858  1.00  0.00    -0.005 A 
HETATM   12  C   UNL     1      42.912 -16.713   2.649  1.00  0.00     0.016 A 
HETATM   13  C   UNL     1      43.157 -18.072   2.423  1.00  0.00     0.037 A 
HETATM   14  C   UNL     1      43.787 -18.853   3.392  1.00  0.00     0.068 A 
HETATM   15  C   UNL     1      44.146 -18.273   4.607  1.00  0.00     0.037 A 
HETATM   16  C   UNL     1      43.896 -16.913   4.837  1.00  0.00     0.016 A 
BRANCH  14  17
HETATM   17  O   UNL     1      43.980 -20.159   3.038  1.00  0.00    -0.356 OA
HETATM   18  C   UNL     1      43.604 -20.520   1.715  1.00  0.00     0.210 C 
ENDBRANCH  14  17
ENDBRANCH   9  11
ENDBRANCH   1   5
BRANCH   2  19
HETATM   19  N   UNL     1      42.725 -10.578   8.065  1.00  0.00    -0.267 N 
HETATM   20  C   UNL     1      43.765 -10.344   8.935  1.00  0.00     0.236 C 
HETATM   21  O   UNL     1      44.714 -11.119   9.048  1.00  0.00    -0.272 OA
HETATM   22  H   UNL     1      41.993  -9.903   7.848  1.00  0.00     0.190 HD
BRANCH  20  23
HETATM   23  C   UNL     1      43.705  -9.022   9.672  1.00  0.00     0.109 C 
BRANCH  23  24
HETATM   24  C   UNL     1      44.276  -9.093  11.088  1.00  0.00     0.048 C 
BRANCH  24  25
HETATM   25  C   UNL     1      43.270  -8.972  12.213  1.00  0.00    -0.055 A 
HETATM   26  C   UNL     1      42.201  -9.881  12.255  1.00  0.00     0.049 A 
HETATM   27  C   UNL     1      41.229  -9.779  13.246  1.00  0.00     0.116 A 
HETATM   28  F   UNL     1      40.217 -10.657  13.268  1.00  0.00    -0.206 F 
HETATM   29  C   UNL     1      41.286  -8.777  14.204  1.00  0.00     0.042 A 
HETATM   30  C   UNL     1      42.331  -7.859  14.169  1.00  0.00     0.003 A 
HETATM   31  C   UNL     1      43.314  -7.952  13.176  1.00  0.00     0.007 A 
ENDBRANCH  24  25
ENDBRANCH  23  24
ENDBRANCH  20  23
ENDBRANCH   2  19
TORSDOF 7
ENDMDL
MODEL 2
REMARK VINA RESULT:      -8.9      3.551     11.446
REMARK  7 active torsions:
REMARK  status: ('A' for Active; 'I' for Inactive)
REMARK    1  A    between atoms: O_2  and  C_3 
REMARK    2  A    between atoms: C_6  and  C_7 
REMARK    3  A    between atoms: C_11  and  C_12 
REMARK       I    between atoms: C_12  and  N_13 
REMARK    4  A    between atoms: N_13  and  N_14 
REMARK       I    between atoms: N_14  and  C_15 
REMARK    5  A    between atoms: C_15  and  C_16 
REMARK    6  A    between atoms: C_16  and  C_17 
REMARK    7  A    between atoms: C_17  and  C_18 
ROOT
HETATM    1  C   UNL     1      44.412 -11.238   7.777  1.00  0.00     0.288 C 
HETATM    2  N   UNL     1      43.596 -12.344   7.668  1.00  0.00    -0.262 N 
HETATM    3  O   UNL     1      45.330 -11.029   6.985  1.00  0.00    -0.264 OA
HETATM    4  H   UNL     1      42.858 -12.578   8.326  1.00  0.00     0.190 HD
ENDROOT
BRANCH   1   5
HETATM    5  C   UNL     1      44.107 -10.351   8.863  1.00  0.00     0.121 A 
HETATM    6  N   UNL     1      44.267  -8.997   8.757  1.00  0.00    -0.272 N 
HETATM    7  N   UNL     1      43.924  -8.316   9.859  1.00  0.00    -0.174 NA
HETATM    8  H   UNL     1      44.609  -8.485   7.949  1.00  0.00     0.189 HD
HETATM    9  C   UNL     1      43.486  -9.251  10.715  1.00  0.00     0.089 A 
HETATM   10  C   UNL     1      43.608 -10.546  10.135  1.00  0.00     0.071 A 
BRANCH   9  11
HETATM   11  C   UNL     1      42.971  -8.908  12.043  1.00  0.00    -0.005 A 
HETATM   12  C   UNL     1      41.948  -9.657  12.636  1.00  0.00     0.016 A 
HETATM   13  C   UNL     1      41.473  -9.326  13.909  1.00  0.00     0.037 A 
HETATM   14  C   UNL     1      42.015  -8.252  14.615  1.00  0.00     0.068 A 
HETATM   15  C   UNL     1      43.018  -7.486  14.025  1.00  0.00     0.037 A 
HETATM   16  C   UNL     1      43.492  -7.812  12.746  1.00  0.00     0.016 A 
BRANCH  14  17
HETATM   17  O   UNL     1      41.472  -8.047  15.853  1.00  0.00    -0.356 OA
HETATM   18  C   UNL     1      41.940  -6.912  16.571  1.00  0.00     0.210 C 
ENDBRANCH  14  17
ENDBRANCH   9  11
ENDBRANCH   1   5
BRANCH   2  19
HETATM   19  N   UNL     1      43.777 -13.216   6.590  1.00  0.00    -0.267 N 
HETATM   20  C   UNL     1      43.436 -14.538   6.762  1.00  0.00     0.236 C 
HETATM   21  O   UNL     1      43.064 -14.985   7.847  1.00  0.00    -0.272 OA
HETATM   22  H   UNL     1      43.961 -12.782   5.687  1.00  0.00     0.190 HD
BRANCH  20  23
HETATM   23  C   UNL     1      43.459 -15.380   5.504  1.00  0.00     0.109 C 
BRANCH  23  24
HETATM   24  C   UNL     1      43.749 -16.857   5.769  1.00  0.00     0.048 C 
BRANCH  24  25
HETATM   25  C   UNL     1      43.597 -17.784   4.583  1.00  0.00    -0.055 A 
HETATM   26  C   UNL     1      43.959 -19.132   4.735  1.00  0.00     0.049 A 
HETATM   27  C   UNL     1      43.878 -20.009   3.658  1.00  0.00     0.116 A 
HETATM   28  F   UNL     1      44.228 -21.292   3.825  1.00  0.00    -0.206 F 
HETATM   29  C   UNL     1      43.449 -19.575   2.411  1.00  0.00     0.042 A 
HETATM   30  C   UNL     1      43.099 -18.239   2.239  1.00  0.00     0.003 A 
HETATM   31  C   UNL     1      43.178 -17.347   3.316  1.00  0.00     0.007 A 
ENDBRANCH  24  25
ENDBRANCH  23  24
ENDBRANCH  20  23
ENDBRANCH   2  19
TORSDOF 7
ENDMDL
MODEL 3
REMARK VINA RESULT:      -8.7      3.856     11.398
REMARK  7 active torsions:
REMARK  status: ('A' for Active; 'I' for Inactive)
REMARK    1  A    between atoms: O_2  and  C_3 
REMARK    2  A    between atoms: C_6  and  C_7 
REMARK    3  A    between atoms: C_11  and  C_12 
REMARK       I    between atoms: C_12  and  N_13 
REMARK    4  A    between atoms: N_13  and  N_14 
REMARK       I    between atoms: N_14  and  C_15 
REMARK    5  A    between atoms: C_15  and  C_16 
REMARK    6  A    between atoms: C_16  and  C_17 
REMARK    7  A    between atoms: C_17  and  C_18 
ROOT
HETATM    1  C   UNL     1      44.378 -12.044   7.136  1.00  0.00     0.288 C 
HETATM    2  N   UNL     1      43.324 -12.931   7.205  1.00  0.00    -0.262 N 
HETATM    3  O   UNL     1      45.219 -12.106   6.240  1.00  0.00    -0.264 OA
HETATM    4  H   UNL     1      42.635 -12.944   7.952  1.00  0.00     0.190 HD
ENDROOT
BRANCH   1   5
HETATM    5  C   UNL     1      44.414 -11.046   8.167  1.00  0.00     0.121 A 
HETATM    6  N   UNL     1      45.591 -10.587   8.687  1.00  0.00    -0.272 N 
HETATM    7  N   UNL     1      45.445  -9.647   9.631  1.00  0.00    -0.174 NA
HETATM    8  H   UNL     1      46.528 -10.884   8.431  1.00  0.00     0.189 HD
HETATM    9  C   UNL     1      44.120  -9.451   9.714  1.00  0.00     0.089 A 
HETATM   10  C   UNL     1      43.436 -10.329   8.826  1.00  0.00     0.071 A 
BRANCH   9  11
HETATM   11  C   UNL     1      43.539  -8.454  10.616  1.00  0.00    -0.005 A 
HETATM   12  C   UNL     1      43.600  -8.617  12.006  1.00  0.00     0.016 A 
HETATM   13  C   UNL     1      43.051  -7.652  12.857  1.00  0.00     0.037 A 
HETATM   14  C   UNL     1      42.443  -6.508  12.341  1.00  0.00     0.068 A 
HETATM   15  C   UNL     1      42.358  -6.347  10.959  1.00  0.00     0.037 A 
HETATM   16  C   UNL     1      42.901  -7.315  10.104  1.00  0.00     0.016 A 
BRANCH  14  17
HETATM   17  O   UNL     1      41.964  -5.640  13.281  1.00  0.00    -0.356 OA
HETATM   18  C   UNL     1      42.216  -4.258  13.056  1.00  0.00     0.210 C 
ENDBRANCH  14  17
ENDBRANCH   9  11
ENDBRANCH   1   5
BRANCH   2  19
HETATM   19  N   UNL     1      43.173 -13.884   6.194  1.00  0.00    -0.267 N 
HETATM   20  C   UNL     1      42.823 -15.165   6.558  1.00  0.00     0.236 C 
HETATM   21  O   UNL     1      42.727 -15.510   7.734  1.00  0.00    -0.272 OA
HETATM   22  H   UNL     1      43.135 -13.526   5.241  1.00  0.00     0.190 HD
BRANCH  20  23
HETATM   23  C   UNL     1      42.474 -16.089   5.411  1.00  0.00     0.109 C 
BRANCH  23  24
HETATM   24  C   UNL     1      43.692 -16.538   4.603  1.00  0.00     0.048 C 
BRANCH  24  25
HETATM   25  C   UNL     1      43.824 -18.029   4.380  1.00  0.00    -0.055 A 
HETATM   26  C   UNL     1      43.742 -18.519   3.067  1.00  0.00     0.049 A 
HETATM   27  C   UNL     1      43.814 -19.886   2.819  1.00  0.00     0.116 A 
HETATM   28  F   UNL     1      43.735 -20.333   1.558  1.00  0.00    -0.206 F 
HETATM   29  C   UNL     1      43.957 -20.796   3.858  1.00  0.00     0.042 A 
HETATM   30  C   UNL     1      44.025 -20.328   5.167  1.00  0.00     0.003 A 
HETATM   31  C   UNL     1      43.953 -18.954   5.427  1.00  0.00     0.007 A 
ENDBRANCH  24  25
ENDBRANCH  23  24
ENDBRANCH  20  23
ENDBRANCH   2  19
TORSDOF 7
ENDMDL
MODEL 4
REMARK VINA RESULT:      -8.3      3.221     11.114
REMARK  7 active torsions:
REMARK  status: ('A' for Active; 'I' for Inactive)
REMARK    1  A    between atoms: O_2  and  C_3 
REMARK    2  A    between atoms: C_6  and  C_7 
REMARK    3  A    between atoms: C_11  and  C_12 
REMARK       I    between atoms: C_12  and  N_13 
REMARK    4  A    between atoms: N_13  and  N_14 
REMARK       I    between atoms: N_14  and  C_15 
REMARK    5  A    between atoms: C_15  and  C_16 
REMARK    6  A    between atoms: C_16  and  C_17 
REMARK    7  A    between atoms: C_17  and  C_18 
ROOT
HETATM    1  C   UNL     1      42.770 -10.004   7.677  1.00  0.00     0.288 C 
HETATM    2  N   UNL     1      43.025 -11.252   7.151  1.00  0.00    -0.262 N 
HETATM    3  O   UNL     1      42.473  -9.048   6.963  1.00  0.00    -0.264 OA
HETATM    4  H   UNL     1      43.318 -12.057   7.700  1.00  0.00     0.190 HD
ENDROOT
BRANCH   1   5
HETATM    5  C   UNL     1      42.860  -9.906   9.106  1.00  0.00     0.121 A 
HETATM    6  N   UNL     1      43.579 -10.802   9.848  1.00  0.00    -0.272 N 
HETATM    7  N   UNL     1      43.569 -10.557  11.165  1.00  0.00    -0.174 NA
HETATM    8  H   UNL     1      44.097 -11.604   9.501  1.00  0.00     0.189 HD
HETATM    9  C   UNL     1      42.846  -9.435  11.298  1.00  0.00     0.089 A 
HETATM   10  C   UNL     1      42.363  -9.008  10.028  1.00  0.00     0.071 A 
BRANCH   9  11
HETATM   11  C   UNL     1      42.630  -8.801  12.600  1.00  0.00    -0.005 A 
HETATM   12  C   UNL     1      41.641  -9.267  13.475  1.00  0.00     0.016 A 
HETATM   13  C   UNL     1      41.452  -8.661  14.721  1.00  0.00     0.037 A 
HETATM   14  C   UNL     1      42.250  -7.588  15.120  1.00  0.00     0.068 A 
HETATM   15  C   UNL     1      43.222  -7.102  14.248  1.00  0.00     0.037 A 
HETATM   16  C   UNL     1      43.409  -7.704  12.996  1.00  0.00     0.016 A 
BRANCH  14  17
HETATM   17  O   UNL     1      41.972  -7.100  16.366  1.00  0.00    -0.356 OA
HETATM   18  C   UNL     1      40.598  -7.018  16.723  1.00  0.00     0.210 C 
ENDBRANCH  14  17
ENDBRANCH   9  11
ENDBRANCH   1   5
BRANCH   2  19
HETATM   19  N   UNL     1      42.881 -11.450   5.774  1.00  0.00    -0.267 N 
HETATM   20  C   UNL     1      44.018 -11.466   4.999  1.00  0.00     0.236 C 
HETATM   21  O   UNL     1      45.132 -11.227   5.463  1.00  0.00    -0.272 OA
HETATM   22  H   UNL     1      41.966 -11.769   5.460  1.00  0.00     0.190 HD
BRANCH  20  23
HETATM   23  C   UNL     1      43.812 -11.889   3.560  1.00  0.00     0.109 C 
BRANCH  23  24
HETATM   24  C   UNL     1      42.562 -12.744   3.353  1.00  0.00     0.048 C 
BRANCH  24  25
HETATM   25  C   UNL     1      42.804 -14.208   3.060  1.00  0.00    -0.055 A 
HETATM   26  C   UNL     1      42.805 -15.115   4.132  1.00  0.00     0.049 A 
HETATM   27  C   UNL     1      43.067 -16.464   3.914  1.00  0.00     0.116 A 
HETATM   28  F   UNL     1      43.062 -17.312   4.952  1.00  0.00    -0.206 F 
HETATM   29  C   UNL     1      43.342 -16.943   2.641  1.00  0.00     0.042 A 
HETATM   30  C   UNL     1      43.359 -16.056   1.569  1.00  0.00     0.003 A 
HETATM   31  C   UNL     1      43.098 -14.696   1.778  1.00  0.00     0.007 A 
ENDBRANCH  24  25
ENDBRANCH  23  24
ENDBRANCH  20  23
ENDBRANCH   2  19
TORSDOF 7
ENDMDL
MODEL 5
REMARK VINA RESULT:      -8.2      7.819     11.583
REMARK  7 active torsions:
REMARK  status: ('A' for Active; 'I' for Inactive)
REMARK    1  A    between atoms: O_2  and  C_3 
REMARK    2  A    between atoms: C_6  and  C_7 
REMARK    3  A    between atoms: C_11  and  C_12 
REMARK       I    between atoms: C_12  and  N_13 
REMARK    4  A    between atoms: N_13  and  N_14 
REMARK       I    between atoms: N_14  and  C_15 
REMARK    5  A    between atoms: C_15  and  C_16 
REMARK    6  A    between atoms: C_16  and  C_17 
REMARK    7  A    between atoms: C_17  and  C_18 
ROOT
HETATM    1  C   UNL     1      40.585 -13.969  -0.213  1.00  0.00     0.288 C 
HETATM    2  N   UNL     1      41.477 -13.878   0.835  1.00  0.00    -0.262 N 
HETATM    3  O   UNL     1      39.723 -14.846  -0.255  1.00  0.00    -0.264 OA
HETATM    4  H   UNL     1      42.232 -13.199   0.886  1.00  0.00     0.190 HD
ENDROOT
BRANCH   1   5
HETATM    5  C   UNL     1      40.726 -12.969  -1.232  1.00  0.00     0.121 A 
HETATM    6  N   UNL     1      40.828 -13.296  -2.556  1.00  0.00    -0.272 N 
HETATM    7  N   UNL     1      40.941 -12.241  -3.375  1.00  0.00    -0.174 NA
HETATM    8  H   UNL     1      40.828 -14.230  -2.955  1.00  0.00     0.189 HD
HETATM    9  C   UNL     1      40.873 -11.173  -2.566  1.00  0.00     0.089 A 
HETATM   10  C   UNL     1      40.762 -11.590  -1.208  1.00  0.00     0.071 A 
BRANCH   9  11
HETATM   11  C   UNL     1      40.915  -9.804  -3.084  1.00  0.00    -0.005 A 
HETATM   12  C   UNL     1      41.648  -8.806  -2.429  1.00  0.00     0.016 A 
HETATM   13  C   UNL     1      41.691  -7.506  -2.940  1.00  0.00     0.037 A 
HETATM   14  C   UNL     1      41.013  -7.179  -4.115  1.00  0.00     0.068 A 
HETATM   15  C   UNL     1      40.263  -8.158  -4.763  1.00  0.00     0.037 A 
HETATM   16  C   UNL     1      40.214  -9.462  -4.249  1.00  0.00     0.016 A 
BRANCH  14  17
HETATM   17  O   UNL     1      41.151  -5.878  -4.513  1.00  0.00    -0.356 OA
HETATM   18  C   UNL     1      41.880  -5.023  -3.643  1.00  0.00     0.210 C 
ENDBRANCH  14  17
ENDBRANCH   9  11
ENDBRANCH   1   5
BRANCH   2  19
HETATM   19  N   UNL     1      41.357 -14.766   1.907  1.00  0.00    -0.267 N 
HETATM   20  C   UNL     1      42.488 -15.421   2.337  1.00  0.00     0.236 C 
HETATM   21  O   UNL     1      43.568 -15.315   1.757  1.00  0.00    -0.272 OA
HETATM   22  H   UNL     1      40.484 -14.723   2.431  1.00  0.00     0.190 HD
BRANCH  20  23
HETATM   23  C   UNL     1      42.332 -16.203   3.624  1.00  0.00     0.109 C 
BRANCH  23  24
HETATM   24  C   UNL     1      43.643 -16.807   4.128  1.00  0.00     0.048 C 
BRANCH  24  25
HETATM   25  C   UNL     1      43.784 -18.306   3.970  1.00  0.00    -0.055 A 
HETATM   26  C   UNL     1      43.598 -18.865   2.696  1.00  0.00     0.049 A 
HETATM   27  C   UNL     1      43.674 -20.243   2.513  1.00  0.00     0.116 A 
HETATM   28  F   UNL     1      43.494 -20.756   1.288  1.00  0.00    -0.206 F 
HETATM   29  C   UNL     1      43.925 -21.094   3.580  1.00  0.00     0.042 A 
HETATM   30  C   UNL     1      44.098 -20.557   4.852  1.00  0.00     0.003 A 
HETATM   31  C   UNL     1      44.022 -19.172   5.047  1.00  0.00     0.007 A 
ENDBRANCH  24  25
ENDBRANCH  23  24
ENDBRANCH  20  23
ENDBRANCH   2  19
TORSDOF 7
ENDMDL
MODEL 6
REMARK VINA RESULT:      -8.1      1.917      2.417
REMARK  7 active torsions:
REMARK  status: ('A' for Active; 'I' for Inactive)
REMARK    1  A    between atoms: O_2  and  C_3 
REMARK    2  A    between atoms: C_6  and  C_7 
REMARK    3  A    between atoms: C_11  and  C_12 
REMARK       I    between atoms: C_12  and  N_13 
REMARK    4  A    between atoms: N_13  and  N_14 
REMARK       I    between atoms: N_14  and  C_15 
REMARK    5  A    between atoms: C_15  and  C_16 
REMARK    6  A    between atoms: C_16  and  C_17 
REMARK    7  A    between atoms: C_17  and  C_18 
ROOT
HETATM    1  C   UNL     1      41.771 -11.310   5.516  1.00  0.00     0.288 C 
HETATM    2  N   UNL     1      41.107 -11.539   6.703  1.00  0.00    -0.262 N 
HETATM    3  O   UNL     1      42.075 -10.175   5.152  1.00  0.00    -0.264 OA
HETATM    4  H   UNL     1      40.797 -12.455   7.018  1.00  0.00     0.190 HD
ENDROOT
BRANCH   1   5
HETATM    5  C   UNL     1      42.088 -12.482   4.750  1.00  0.00     0.121 A 
HETATM    6  N   UNL     1      42.243 -12.437   3.393  1.00  0.00    -0.272 N 
HETATM    7  N   UNL     1      42.551 -13.617   2.836  1.00  0.00    -0.174 NA
HETATM    8  H   UNL     1      42.149 -11.622   2.794  1.00  0.00     0.189 HD
HETATM    9  C   UNL     1      42.639 -14.468   3.870  1.00  0.00     0.089 A 
HETATM   10  C   UNL     1      42.332 -13.798   5.088  1.00  0.00     0.071 A 
BRANCH   9  11
HETATM   11  C   UNL     1      43.005 -15.875   3.687  1.00  0.00    -0.005 A 
HETATM   12  C   UNL     1      42.680 -16.558   2.508  1.00  0.00     0.016 A 
HETATM   13  C   UNL     1      43.045 -17.897   2.341  1.00  0.00     0.037 A 
HETATM   14  C   UNL     1      43.748 -18.574   3.338  1.00  0.00     0.068 A 
HETATM   15  C   UNL     1      44.057 -17.911   4.524  1.00  0.00     0.037 A 
HETATM   16  C   UNL     1      43.686 -16.570   4.696  1.00  0.00     0.016 A 
BRANCH  14  17
HETATM   17  O   UNL     1      44.057 -19.872   3.040  1.00  0.00    -0.356 OA
HETATM   18  C   UNL     1      43.482 -20.405   1.853  1.00  0.00     0.210 C 
ENDBRANCH  14  17
ENDBRANCH   9  11
ENDBRANCH   1   5
BRANCH   2  19
HETATM   19  N   UNL     1      40.831 -10.458   7.545  1.00  0.00    -0.267 N 
HETATM   20  C   UNL     1      39.525 -10.252   7.928  1.00  0.00     0.236 C 
HETATM   21  O   UNL     1      38.598 -10.929   7.487  1.00  0.00    -0.272 OA
HETATM   22  H   UNL     1      41.636 -10.012   7.981  1.00  0.00     0.190 HD
BRANCH  20  23
HETATM   23  C   UNL     1      39.325  -9.199   8.997  1.00  0.00     0.109 C 
BRANCH  23  24
HETATM   24  C   UNL     1      40.629  -8.546   9.455  1.00  0.00     0.048 C 
BRANCH  24  25
HETATM   25  C   UNL     1      41.051  -8.839  10.879  1.00  0.00    -0.055 A 
HETATM   26  C   UNL     1      42.229  -8.250  11.363  1.00  0.00     0.049 A 
HETATM   27  C   UNL     1      42.678  -8.526  12.651  1.00  0.00     0.116 A 
HETATM   28  F   UNL     1      43.805  -7.952  13.093  1.00  0.00    -0.206 F 
HETATM   29  C   UNL     1      41.983  -9.395  13.480  1.00  0.00     0.042 A 
HETATM   30  C   UNL     1      40.820 -10.000  13.011  1.00  0.00     0.003 A 
HETATM   31  C   UNL     1      40.360  -9.729  11.716  1.00  0.00     0.007 A 
ENDBRANCH  24  25
ENDBRANCH  23  24
ENDBRANCH  20  23
ENDBRANCH   2  19
TORSDOF 7
ENDMDL
MODEL 7
REMARK VINA RESULT:      -7.8      7.793     11.769
REMARK  7 active torsions:
REMARK  status: ('A' for Active; 'I' for Inactive)
REMARK    1  A    between atoms: O_2  and  C_3 
REMARK    2  A    between atoms: C_6  and  C_7 
REMARK    3  A    between atoms: C_11  and  C_12 
REMARK       I    between atoms: C_12  and  N_13 
REMARK    4  A    between atoms: N_13  and  N_14 
REMARK       I    between atoms: N_14  and  C_15 
REMARK    5  A    between atoms: C_15  and  C_16 
REMARK    6  A    between atoms: C_16  and  C_17 
REMARK    7  A    between atoms: C_17  and  C_18 
ROOT
HETATM    1  C   UNL     1      40.218 -13.810  -0.493  1.00  0.00     0.288 C 
HETATM    2  N   UNL     1      41.350 -13.758   0.291  1.00  0.00    -0.262 N 
HETATM    3  O   UNL     1      39.549 -14.838  -0.599  1.00  0.00    -0.264 OA
HETATM    4  H   UNL     1      41.955 -12.945   0.370  1.00  0.00     0.190 HD
ENDROOT
BRANCH   1   5
HETATM    5  C   UNL     1      39.871 -12.587  -1.159  1.00  0.00     0.121 A 
HETATM    6  N   UNL     1      39.114 -11.624  -0.554  1.00  0.00    -0.272 N 
HETATM    7  N   UNL     1      38.895 -10.541  -1.312  1.00  0.00    -0.174 NA
HETATM    8  H   UNL     1      38.719 -11.657   0.381  1.00  0.00     0.189 HD
HETATM    9  C   UNL     1      39.564 -10.781  -2.450  1.00  0.00     0.089 A 
HETATM   10  C   UNL     1      40.171 -12.068  -2.402  1.00  0.00     0.071 A 
BRANCH   9  11
HETATM   11  C   UNL     1      39.613  -9.805  -3.541  1.00  0.00    -0.005 A 
HETATM   12  C   UNL     1      40.804  -9.145  -3.866  1.00  0.00     0.016 A 
HETATM   13  C   UNL     1      40.841  -8.224  -4.918  1.00  0.00     0.037 A 
HETATM   14  C   UNL     1      39.697  -7.953  -5.669  1.00  0.00     0.068 A 
HETATM   15  C   UNL     1      38.501  -8.588  -5.340  1.00  0.00     0.037 A 
HETATM   16  C   UNL     1      38.460  -9.507  -4.282  1.00  0.00     0.016 A 
BRANCH  14  17
HETATM   17  O   UNL     1      39.874  -7.047  -6.677  1.00  0.00    -0.356 OA
HETATM   18  C   UNL     1      41.128  -7.081  -7.348  1.00  0.00     0.210 C 
ENDBRANCH  14  17
ENDBRANCH   9  11
ENDBRANCH   1   5
BRANCH   2  19
HETATM   19  N   UNL     1      41.711 -14.885   1.036  1.00  0.00    -0.267 N 
HETATM   20  C   UNL     1      41.574 -14.829   2.405  1.00  0.00     0.236 C 
HETATM   21  O   UNL     1      41.231 -13.802   2.988  1.00  0.00    -0.272 OA
HETATM   22  H   UNL     1      41.863 -15.743   0.508  1.00  0.00     0.190 HD
BRANCH  20  23
HETATM   23  C   UNL     1      41.783 -16.142   3.129  1.00  0.00     0.109 C 
BRANCH  23  24
HETATM   24  C   UNL     1      43.225 -16.644   3.067  1.00  0.00     0.048 C 
BRANCH  24  25
HETATM   25  C   UNL     1      43.406 -18.144   3.142  1.00  0.00    -0.055 A 
HETATM   26  C   UNL     1      43.953 -18.696   4.311  1.00  0.00     0.049 A 
HETATM   27  C   UNL     1      44.178 -20.066   4.407  1.00  0.00     0.116 A 
HETATM   28  F   UNL     1      44.700 -20.571   5.532  1.00  0.00    -0.206 F 
HETATM   29  C   UNL     1      43.878 -20.915   3.351  1.00  0.00     0.042 A 
HETATM   30  C   UNL     1      43.348 -20.384   2.179  1.00  0.00     0.003 A 
HETATM   31  C   UNL     1      43.119 -19.006   2.072  1.00  0.00     0.007 A 
ENDBRANCH  24  25
ENDBRANCH  23  24
ENDBRANCH  20  23
ENDBRANCH   2  19
TORSDOF 7
ENDMDL
MODEL 8
REMARK VINA RESULT:      -7.8      6.995     10.662
REMARK  7 active torsions:
REMARK  status: ('A' for Active; 'I' for Inactive)
REMARK    1  A    between atoms: O_2  and  C_3 
REMARK    2  A    between atoms: C_6  and  C_7 
REMARK    3  A    between atoms: C_11  and  C_12 
REMARK       I    between atoms: C_12  and  N_13 
REMARK    4  A    between atoms: N_13  and  N_14 
REMARK       I    between atoms: N_14  and  C_15 
REMARK    5  A    between atoms: C_15  and  C_16 
REMARK    6  A    between atoms: C_16  and  C_17 
REMARK    7  A    between atoms: C_17  and  C_18 
ROOT
HETATM    1  C   UNL     1      40.236 -14.919   1.703  1.00  0.00     0.288 C 
HETATM    2  N   UNL     1      41.199 -14.644   2.650  1.00  0.00    -0.262 N 
HETATM    3  O   UNL     1      39.770 -16.049   1.562  1.00  0.00    -0.264 OA
HETATM    4  H   UNL     1      41.644 -13.737   2.768  1.00  0.00     0.190 HD
ENDROOT
BRANCH   1   5
HETATM    5  C   UNL     1      39.813 -13.801   0.909  1.00  0.00     0.121 A 
HETATM    6  N   UNL     1      38.994 -12.828   1.410  1.00  0.00    -0.272 N 
HETATM    7  N   UNL     1      38.707 -11.851   0.540  1.00  0.00    -0.174 NA
HETATM    8  H   UNL     1      38.599 -12.785   2.345  1.00  0.00     0.189 HD
HETATM    9  C   UNL     1      39.392 -12.169  -0.569  1.00  0.00     0.089 A 
HETATM   10  C   UNL     1      40.082 -13.401  -0.384  1.00  0.00     0.071 A 
BRANCH   9  11
HETATM   11  C   UNL     1      39.381 -11.316  -1.759  1.00  0.00    -0.005 A 
HETATM   12  C   UNL     1      38.175 -10.878  -2.322  1.00  0.00     0.016 A 
HETATM   13  C   UNL     1      38.177 -10.054  -3.452  1.00  0.00     0.037 A 
HETATM   14  C   UNL     1      39.378  -9.646  -4.034  1.00  0.00     0.068 A 
HETATM   15  C   UNL     1      40.582 -10.094  -3.495  1.00  0.00     0.037 A 
HETATM   16  C   UNL     1      40.582 -10.924  -2.366  1.00  0.00     0.016 A 
BRANCH  14  17
HETATM   17  O   UNL     1      39.239  -8.830  -5.122  1.00  0.00    -0.356 OA
HETATM   18  C   UNL     1      40.355  -8.012  -5.448  1.00  0.00     0.210 C 
ENDBRANCH  14  17
ENDBRANCH   9  11
ENDBRANCH   1   5
BRANCH   2  19
HETATM   19  N   UNL     1      41.608 -15.662   3.517  1.00  0.00    -0.267 N 
HETATM   20  C   UNL     1      42.547 -15.358   4.477  1.00  0.00     0.236 C 
HETATM   21  O   UNL     1      43.091 -14.256   4.536  1.00  0.00    -0.272 OA
HETATM   22  H   UNL     1      41.042 -16.509   3.514  1.00  0.00     0.190 HD
BRANCH  20  23
HETATM   23  C   UNL     1      42.790 -16.440   5.507  1.00  0.00     0.109 C 
BRANCH  23  24
HETATM   24  C   UNL     1      44.119 -17.170   5.315  1.00  0.00     0.048 C 
BRANCH  24  25
HETATM   25  C   UNL     1      44.025 -18.582   4.776  1.00  0.00    -0.055 A 
HETATM   26  C   UNL     1      43.938 -18.764   3.387  1.00  0.00     0.049 A 
HETATM   27  C   UNL     1      43.806 -20.041   2.851  1.00  0.00     0.116 A 
HETATM   28  F   UNL     1      43.725 -20.193   1.522  1.00  0.00    -0.206 F 
HETATM   29  C   UNL     1      43.746 -21.159   3.671  1.00  0.00     0.042 A 
HETATM   30  C   UNL     1      43.816 -20.996   5.051  1.00  0.00     0.003 A 
HETATM   31  C   UNL     1      43.949 -19.714   5.601  1.00  0.00     0.007 A 
ENDBRANCH  24  25
ENDBRANCH  23  24
ENDBRANCH  20  23
ENDBRANCH   2  19
TORSDOF 7
ENDMDL
MODEL 9
REMARK VINA RESULT:      -7.7      8.439     12.019
REMARK  7 active torsions:
REMARK  status: ('A' for Active; 'I' for Inactive)
REMARK    1  A    between atoms: O_2  and  C_3 
REMARK    2  A    between atoms: C_6  and  C_7 
REMARK    3  A    between atoms: C_11  and  C_12 
REMARK       I    between atoms: C_12  and  N_13 
REMARK    4  A    between atoms: N_13  and  N_14 
REMARK       I    between atoms: N_14  and  C_15 
REMARK    5  A    between atoms: C_15  and  C_16 
REMARK    6  A    between atoms: C_16  and  C_17 
REMARK    7  A    between atoms: C_17  and  C_18 
ROOT
HETATM    1  C   UNL     1      39.624 -13.962  -0.869  1.00  0.00     0.288 C 
HETATM    2  N   UNL     1      40.739 -13.437  -0.249  1.00  0.00    -0.262 N 
HETATM    3  O   UNL     1      39.417 -15.174  -0.912  1.00  0.00    -0.264 OA
HETATM    4  H   UNL     1      40.971 -12.448  -0.231  1.00  0.00     0.190 HD
ENDROOT
BRANCH   1   5
HETATM    5  C   UNL     1      38.727 -13.000  -1.442  1.00  0.00     0.121 A 
HETATM    6  N   UNL     1      38.933 -11.655  -1.318  1.00  0.00    -0.272 N 
HETATM    7  N   UNL     1      38.007 -10.899  -1.923  1.00  0.00    -0.174 NA
HETATM    8  H   UNL     1      39.695 -11.198  -0.826  1.00  0.00     0.189 HD
HETATM    9  C   UNL     1      37.175 -11.778  -2.503  1.00  0.00     0.089 A 
HETATM   10  C   UNL     1      37.580 -13.110  -2.203  1.00  0.00     0.071 A 
BRANCH   9  11
HETATM   11  C   UNL     1      36.033 -11.348  -3.313  1.00  0.00    -0.005 A 
HETATM   12  C   UNL     1      35.041 -12.257  -3.702  1.00  0.00     0.016 A 
HETATM   13  C   UNL     1      33.950 -11.831  -4.465  1.00  0.00     0.037 A 
HETATM   14  C   UNL     1      33.822 -10.495  -4.844  1.00  0.00     0.068 A 
HETATM   15  C   UNL     1      34.815  -9.587  -4.481  1.00  0.00     0.037 A 
HETATM   16  C   UNL     1      35.913 -10.012  -3.721  1.00  0.00     0.016 A 
BRANCH  14  17
HETATM   17  O   UNL     1      32.701 -10.210  -5.573  1.00  0.00    -0.356 OA
HETATM   18  C   UNL     1      32.498  -8.845  -5.917  1.00  0.00     0.210 C 
ENDBRANCH  14  17
ENDBRANCH   9  11
ENDBRANCH   1   5
BRANCH   2  19
HETATM   19  N   UNL     1      41.622 -14.302   0.403  1.00  0.00    -0.267 N 
HETATM   20  C   UNL     1      42.103 -13.929   1.637  1.00  0.00     0.236 C 
HETATM   21  O   UNL     1      41.849 -12.834   2.136  1.00  0.00    -0.272 OA
HETATM   22  H   UNL     1      41.699 -15.242   0.016  1.00  0.00     0.190 HD
BRANCH  20  23
HETATM   23  C   UNL     1      42.884 -14.995   2.376  1.00  0.00     0.109 C 
BRANCH  23  24
HETATM   24  C   UNL     1      42.361 -16.410   2.128  1.00  0.00     0.048 C 
BRANCH  24  25
HETATM   25  C   UNL     1      43.054 -17.514   2.895  1.00  0.00    -0.055 A 
HETATM   26  C   UNL     1      43.195 -18.770   2.282  1.00  0.00     0.049 A 
HETATM   27  C   UNL     1      43.787 -19.826   2.968  1.00  0.00     0.116 A 
HETATM   28  F   UNL     1      43.912 -21.016   2.364  1.00  0.00    -0.206 F 
HETATM   29  C   UNL     1      44.240 -19.670   4.270  1.00  0.00     0.042 A 
HETATM   30  C   UNL     1      44.096 -18.437   4.898  1.00  0.00     0.003 A 
HETATM   31  C   UNL     1      43.501 -17.367   4.217  1.00  0.00     0.007 A 
ENDBRANCH  24  25
ENDBRANCH  23  24
ENDBRANCH  20  23
ENDBRANCH   2  19
TORSDOF 7
ENDMDL
MODEL 10
REMARK VINA RESULT:      -7.7      7.687     11.577
REMARK  7 active torsions:
REMARK  status: ('A' for Active; 'I' for Inactive)
REMARK    1  A    between atoms: O_2  and  C_3 
REMARK    2  A    between atoms: C_6  and  C_7 
REMARK    3  A    between atoms: C_11  and  C_12 
REMARK       I    between atoms: C_12  and  N_13 
REMARK    4  A    between atoms: N_13  and  N_14 
REMARK       I    between atoms: N_14  and  C_15 
REMARK    5  A    between atoms: C_15  and  C_16 
REMARK    6  A    between atoms: C_16  and  C_17 
REMARK    7  A    between atoms: C_17  and  C_18 
ROOT
HETATM    1  C   UNL     1      40.134 -14.212   0.109  1.00  0.00     0.288 C 
HETATM    2  N   UNL     1      41.434 -13.802   0.315  1.00  0.00    -0.262 N 
HETATM    3  O   UNL     1      39.759 -15.347   0.397  1.00  0.00    -0.264 OA
HETATM    4  H   UNL     1      41.796 -12.890   0.049  1.00  0.00     0.190 HD
ENDROOT
BRANCH   1   5
HETATM    5  C   UNL     1      39.256 -13.223  -0.448  1.00  0.00     0.121 A 
HETATM    6  N   UNL     1      38.356 -12.540   0.322  1.00  0.00    -0.272 N 
HETATM    7  N   UNL     1      37.623 -11.645  -0.354  1.00  0.00    -0.174 NA
HETATM    8  H   UNL     1      38.200 -12.649   1.320  1.00  0.00     0.189 HD
HETATM    9  C   UNL     1      38.081 -11.711  -1.613  1.00  0.00     0.089 A 
HETATM   10  C   UNL     1      39.092 -12.708  -1.718  1.00  0.00     0.071 A 
BRANCH   9  11
HETATM   11  C   UNL     1      37.561 -10.845  -2.674  1.00  0.00    -0.005 A 
HETATM   12  C   UNL     1      38.412 -10.002  -3.399  1.00  0.00     0.016 A 
HETATM   13  C   UNL     1      37.906  -9.188  -4.418  1.00  0.00     0.037 A 
HETATM   14  C   UNL     1      36.548  -9.208  -4.737  1.00  0.00     0.068 A 
HETATM   15  C   UNL     1      35.689 -10.027  -4.007  1.00  0.00     0.037 A 
HETATM   16  C   UNL     1      36.193 -10.838  -2.982  1.00  0.00     0.016 A 
BRANCH  14  17
HETATM   17  O   UNL     1      36.189  -8.378  -5.762  1.00  0.00    -0.356 OA
HETATM   18  C   UNL     1      36.885  -8.548  -6.990  1.00  0.00     0.210 C 
ENDBRANCH  14  17
ENDBRANCH   9  11
ENDBRANCH   1   5
BRANCH   2  19
HETATM   19  N   UNL     1      42.333 -14.681   0.926  1.00  0.00    -0.267 N 
HETATM   20  C   UNL     1      42.673 -14.449   2.240  1.00  0.00     0.236 C 
HETATM   21  O   UNL     1      42.283 -13.458   2.854  1.00  0.00    -0.272 OA
HETATM   22  H   UNL     1      42.525 -15.548   0.427  1.00  0.00     0.190 HD
BRANCH  20  23
HETATM   23  C   UNL     1      43.481 -15.546   2.900  1.00  0.00     0.109 C 
BRANCH  23  24
HETATM   24  C   UNL     1      42.619 -16.588   3.613  1.00  0.00     0.048 C 
BRANCH  24  25
HETATM   25  C   UNL     1      43.027 -18.031   3.415  1.00  0.00    -0.055 A 
HETATM   26  C   UNL     1      43.714 -18.682   4.452  1.00  0.00     0.049 A 
HETATM   27  C   UNL     1      44.146 -19.995   4.296  1.00  0.00     0.116 A 
HETATM   28  F   UNL     1      44.799 -20.598   5.299  1.00  0.00    -0.206 F 
HETATM   29  C   UNL     1      43.921 -20.687   3.114  1.00  0.00     0.042 A 
HETATM   30  C   UNL     1      43.254 -20.053   2.070  1.00  0.00     0.003 A 
HETATM   31  C   UNL     1      42.815 -18.731   2.217  1.00  0.00     0.007 A 
ENDBRANCH  24  25
ENDBRANCH  23  24
ENDBRANCH  20  23
ENDBRANCH   2  19
TORSDOF 7
ENDMDL
