MODEL 1
REMARK VINA RESULT:      -7.8      0.000      0.000
REMARK  6 active torsions:
REMARK  status: ('A' for Active; 'I' for Inactive)
REMARK    1  A    between atoms: C_6  and  C_7 
REMARK    2  A    between atoms: C_10  and  C_11 
REMARK       I    between atoms: C_11  and  N_12 
REMARK    3  A    between atoms: N_12  and  C_13 
REMARK    4  A    between atoms: C_13  and  C_14 
REMARK    5  A    between atoms: C_17  and  C_18 
REMARK       I    between atoms: C_18  and  N_19 
REMARK    6  A    between atoms: N_19  and  C_20 
ROOT
HETATM    1  C   UNL     1      43.621 -17.490   5.328  1.00  0.00     0.256 C 
HETATM    2  N   UNL     1      42.342 -17.012   5.508  1.00  0.00    -0.353 N 
HETATM    3  O   UNL     1      44.596 -16.743   5.318  1.00  0.00    -0.268 OA
HETATM    4  H   UNL     1      41.572 -17.614   5.260  1.00  0.00     0.163 HD
ENDROOT
BRANCH   2   5
HETATM    5  C   UNL     1      42.101 -15.592   5.553  1.00  0.00     0.161 C 
BRANCH   5   6
HETATM    6  C   UNL     1      41.673 -15.059   4.212  1.00  0.00    -0.040 A 
HETATM    7  C   UNL     1      40.582 -15.638   3.545  1.00  0.00     0.010 A 
HETATM    8  C   UNL     1      40.146 -15.126   2.321  1.00  0.00     0.017 A 
HETATM    9  C   UNL     1      40.793 -14.025   1.751  1.00  0.00     0.032 A 
HETATM   10  C   UNL     1      41.911 -13.472   2.385  1.00  0.00     0.017 A 
HETATM   11  C   UNL     1      42.348 -13.989   3.610  1.00  0.00     0.010 A 
BRANCH   9  12
HETATM   12  C   UNL     1      40.264 -13.479   0.471  1.00  0.00     0.252 C 
HETATM   13  N   UNL     1      39.513 -14.357  -0.290  1.00  0.00    -0.352 N 
HETATM   14  H   UNL     1      39.470 -15.329  -0.015  1.00  0.00     0.163 HD
HETATM   15  O   UNL     1      40.538 -12.332   0.135  1.00  0.00    -0.268 OA
BRANCH  13  16
HETATM   16  C   UNL     1      39.032 -14.009  -1.591  1.00  0.00     0.084 A 
HETATM   17  C   UNL     1      39.936 -14.122  -2.788  1.00  0.00     0.027 A 
HETATM   18  C   UNL     1      38.786 -15.073  -2.626  1.00  0.00     0.027 A 
ENDBRANCH  13  16
ENDBRANCH   9  12
ENDBRANCH   5   6
ENDBRANCH   2   5
BRANCH   1  19
HETATM   19  C   UNL     1      43.745 -18.924   5.086  1.00  0.00     0.082 A 
HETATM   20  C   UNL     1      43.697 -19.935   6.094  1.00  0.00     0.068 A 
HETATM   21  C   UNL     1      43.510 -19.762   7.558  1.00  0.00     0.073 C 
HETATM   22  N   UNL     1      43.866 -21.161   5.587  1.00  0.00    -0.179 NA
HETATM   23  N   UNL     1      43.986 -20.954   4.274  1.00  0.00    -0.281 N 
HETATM   24  H   UNL     1      44.108 -21.766   3.678  1.00  0.00     0.189 HD
HETATM   25  C   UNL     1      43.897 -19.636   3.897  1.00  0.00     0.049 A 
BRANCH  25  26
HETATM   26  C   UNL     1      43.946 -19.241   2.447  1.00  0.00     0.030 C 
HETATM   27  C   UNL     1      43.643 -20.445   1.552  1.00  0.00     0.016 C 
HETATM   28  C   UNL     1      42.992 -18.085   2.128  1.00  0.00     0.016 C 
ENDBRANCH  25  26
ENDBRANCH   1  19
TORSDOF 6
ENDMDL
MODEL 2
REMARK VINA RESULT:      -7.6      3.851      6.372
REMARK  6 active torsions:
REMARK  status: ('A' for Active; 'I' for Inactive)
REMARK    1  A    between atoms: C_6  and  C_7 
REMARK    2  A    between atoms: C_10  and  C_11 
REMARK       I    between atoms: C_11  and  N_12 
REMARK    3  A    between atoms: N_12  and  C_13 
REMARK    4  A    between atoms: C_13  and  C_14 
REMARK    5  A    between atoms: C_17  and  C_18 
REMARK       I    between atoms: C_18  and  N_19 
REMARK    6  A    between atoms: N_19  and  C_20 
ROOT
HETATM    1  C   UNL     1      42.627 -16.812   3.282  1.00  0.00     0.256 C 
HETATM    2  N   UNL     1      43.470 -15.775   2.952  1.00  0.00    -0.353 N 
HETATM    3  O   UNL     1      41.423 -16.767   3.048  1.00  0.00    -0.268 OA
HETATM    4  H   UNL     1      44.382 -15.750   3.382  1.00  0.00     0.163 HD
ENDROOT
BRANCH   2   5
HETATM    5  C   UNL     1      42.931 -14.541   2.440  1.00  0.00     0.161 C 
BRANCH   5   6
HETATM    6  C   UNL     1      42.899 -13.469   3.498  1.00  0.00    -0.040 A 
HETATM    7  C   UNL     1      42.110 -13.642   4.645  1.00  0.00     0.010 A 
HETATM    8  C   UNL     1      42.105 -12.676   5.654  1.00  0.00     0.017 A 
HETATM    9  C   UNL     1      42.894 -11.528   5.531  1.00  0.00     0.032 A 
HETATM   10  C   UNL     1      43.647 -11.325   4.368  1.00  0.00     0.017 A 
HETATM   11  C   UNL     1      43.648 -12.292   3.358  1.00  0.00     0.010 A 
BRANCH   9  12
HETATM   12  C   UNL     1      42.898 -10.550   6.652  1.00  0.00     0.252 C 
HETATM   13  N   UNL     1      44.070 -10.482   7.385  1.00  0.00    -0.352 N 
HETATM   14  H   UNL     1      44.793 -11.167   7.213  1.00  0.00     0.163 HD
HETATM   15  O   UNL     1      41.890  -9.897   6.899  1.00  0.00    -0.268 OA
BRANCH  13  16
HETATM   16  C   UNL     1      44.184  -9.670   8.556  1.00  0.00     0.084 A 
HETATM   17  C   UNL     1      45.413  -9.752   9.418  1.00  0.00     0.027 A 
HETATM   18  C   UNL     1      45.153  -8.521   8.600  1.00  0.00     0.027 A 
ENDBRANCH  13  16
ENDBRANCH   9  12
ENDBRANCH   5   6
ENDBRANCH   2   5
BRANCH   1  19
HETATM   19  C   UNL     1      43.235 -17.939   3.984  1.00  0.00     0.082 A 
HETATM   20  C   UNL     1      43.590 -19.186   3.384  1.00  0.00     0.068 A 
HETATM   21  C   UNL     1      43.434 -19.598   1.965  1.00  0.00     0.073 C 
HETATM   22  N   UNL     1      44.104 -20.044   4.272  1.00  0.00    -0.179 NA
HETATM   23  N   UNL     1      44.115 -19.357   5.416  1.00  0.00    -0.281 N 
HETATM   24  H   UNL     1      44.488 -19.819   6.239  1.00  0.00     0.189 HD
HETATM   25  C   UNL     1      43.631 -18.076   5.313  1.00  0.00     0.049 A 
BRANCH  25  26
HETATM   26  C   UNL     1      43.637 -17.149   6.498  1.00  0.00     0.030 C 
HETATM   27  C   UNL     1      44.655 -16.025   6.295  1.00  0.00     0.016 C 
HETATM   28  C   UNL     1      42.249 -16.567   6.786  1.00  0.00     0.016 C 
ENDBRANCH  25  26
ENDBRANCH   1  19
TORSDOF 6
ENDMDL
MODEL 3
REMARK VINA RESULT:      -7.5      3.238      3.953
REMARK  6 active torsions:
REMARK  status: ('A' for Active; 'I' for Inactive)
REMARK    1  A    between atoms: C_6  and  C_7 
REMARK    2  A    between atoms: C_10  and  C_11 
REMARK       I    between atoms: C_11  and  N_12 
REMARK    3  A    between atoms: N_12  and  C_13 
REMARK    4  A    between atoms: C_13  and  C_14 
REMARK    5  A    between atoms: C_17  and  C_18 
REMARK       I    between atoms: C_18  and  N_19 
REMARK    6  A    between atoms: N_19  and  C_20 
ROOT
HETATM    1  C   UNL     1      43.847 -17.607   5.196  1.00  0.00     0.256 C 
HETATM    2  N   UNL     1      42.809 -17.542   6.097  1.00  0.00    -0.353 N 
HETATM    3  O   UNL     1      44.855 -16.917   5.318  1.00  0.00    -0.268 OA
HETATM    4  H   UNL     1      41.918 -17.928   5.824  1.00  0.00     0.163 HD
ENDROOT
BRANCH   2   5
HETATM    5  C   UNL     1      42.822 -16.552   7.144  1.00  0.00     0.161 C 
BRANCH   5   6
HETATM    6  C   UNL     1      42.208 -15.254   6.688  1.00  0.00    -0.040 A 
HETATM    7  C   UNL     1      40.827 -15.181   6.447  1.00  0.00     0.010 A 
HETATM    8  C   UNL     1      40.237 -13.974   6.066  1.00  0.00     0.017 A 
HETATM    9  C   UNL     1      41.021 -12.823   5.926  1.00  0.00     0.032 A 
HETATM   10  C   UNL     1      42.405 -12.899   6.118  1.00  0.00     0.017 A 
HETATM   11  C   UNL     1      42.994 -14.110   6.496  1.00  0.00     0.010 A 
BRANCH   9  12
HETATM   12  C   UNL     1      40.344 -11.547   5.569  1.00  0.00     0.252 C 
HETATM   13  N   UNL     1      39.474 -11.610   4.495  1.00  0.00    -0.352 N 
HETATM   14  H   UNL     1      39.440 -12.456   3.943  1.00  0.00     0.163 HD
HETATM   15  O   UNL     1      40.604 -10.522   6.189  1.00  0.00    -0.268 OA
BRANCH  13  16
HETATM   16  C   UNL     1      38.837 -10.443   3.968  1.00  0.00     0.084 A 
HETATM   17  C   UNL     1      39.517  -9.620   2.909  1.00  0.00     0.027 A 
HETATM   18  C   UNL     1      38.302 -10.430   2.562  1.00  0.00     0.027 A 
ENDBRANCH  13  16
ENDBRANCH   9  12
ENDBRANCH   5   6
ENDBRANCH   2   5
BRANCH   1  19
HETATM   19  C   UNL     1      43.653 -18.494   4.053  1.00  0.00     0.082 A 
HETATM   20  C   UNL     1      43.954 -19.890   4.036  1.00  0.00     0.068 A 
HETATM   21  C   UNL     1      44.502 -20.724   5.138  1.00  0.00     0.073 C 
HETATM   22  N   UNL     1      43.702 -20.446   2.846  1.00  0.00    -0.179 NA
HETATM   23  N   UNL     1      43.216 -19.440   2.116  1.00  0.00    -0.281 N 
HETATM   24  H   UNL     1      42.936 -19.643   1.163  1.00  0.00     0.189 HD
HETATM   25  C   UNL     1      43.134 -18.243   2.784  1.00  0.00     0.049 A 
BRANCH  25  26
HETATM   26  C   UNL     1      42.545 -17.027   2.123  1.00  0.00     0.030 C 
HETATM   27  C   UNL     1      41.393 -16.465   2.958  1.00  0.00     0.016 C 
HETATM   28  C   UNL     1      43.597 -15.941   1.866  1.00  0.00     0.016 C 
ENDBRANCH  25  26
ENDBRANCH   1  19
TORSDOF 6
ENDMDL
MODEL 4
REMARK VINA RESULT:      -7.5      4.330      7.998
REMARK  6 active torsions:
REMARK  status: ('A' for Active; 'I' for Inactive)
REMARK    1  A    between atoms: C_6  and  C_7 
REMARK    2  A    between atoms: C_10  and  C_11 
REMARK       I    between atoms: C_11  and  N_12 
REMARK    3  A    between atoms: N_12  and  C_13 
REMARK    4  A    between atoms: C_13  and  C_14 
REMARK    5  A    between atoms: C_17  and  C_18 
REMARK       I    between atoms: C_18  and  N_19 
REMARK    6  A    between atoms: N_19  and  C_20 
ROOT
HETATM    1  C   UNL     1      41.408 -10.912   6.020  1.00  0.00     0.256 C 
HETATM    2  N   UNL     1      40.894 -12.118   6.439  1.00  0.00    -0.353 N 
HETATM    3  O   UNL     1      41.213 -10.483   4.886  1.00  0.00    -0.268 OA
HETATM    4  H   UNL     1      41.283 -12.537   7.269  1.00  0.00     0.163 HD
ENDROOT
BRANCH   2   5
HETATM    5  C   UNL     1      40.217 -12.980   5.502  1.00  0.00     0.161 C 
BRANCH   5   6
HETATM    6  C   UNL     1      41.056 -14.179   5.147  1.00  0.00    -0.040 A 
HETATM    7  C   UNL     1      42.029 -14.079   4.142  1.00  0.00     0.010 A 
HETATM    8  C   UNL     1      42.844 -15.171   3.832  1.00  0.00     0.017 A 
HETATM    9  C   UNL     1      42.697 -16.375   4.528  1.00  0.00     0.032 A 
HETATM   10  C   UNL     1      41.696 -16.499   5.499  1.00  0.00     0.017 A 
HETATM   11  C   UNL     1      40.880 -15.405   5.805  1.00  0.00     0.010 A 
BRANCH   9  12
HETATM   12  C   UNL     1      43.620 -17.496   4.202  1.00  0.00     0.252 C 
HETATM   13  N   UNL     1      43.339 -18.184   3.035  1.00  0.00    -0.352 N 
HETATM   14  H   UNL     1      42.477 -17.984   2.546  1.00  0.00     0.163 HD
HETATM   15  O   UNL     1      44.532 -17.782   4.970  1.00  0.00    -0.268 OA
BRANCH  13  16
HETATM   16  C   UNL     1      44.070 -19.350   2.650  1.00  0.00     0.084 A 
HETATM   17  C   UNL     1      43.724 -20.691   3.236  1.00  0.00     0.027 A 
HETATM   18  C   UNL     1      43.430 -20.408   1.792  1.00  0.00     0.027 A 
ENDBRANCH  13  16
ENDBRANCH   9  12
ENDBRANCH   5   6
ENDBRANCH   2   5
BRANCH   1  19
HETATM   19  C   UNL     1      42.254 -10.205   6.976  1.00  0.00     0.082 A 
HETATM   20  C   UNL     1      41.791  -9.254   7.936  1.00  0.00     0.068 A 
HETATM   21  C   UNL     1      40.397  -8.795   8.173  1.00  0.00     0.073 C 
HETATM   22  N   UNL     1      42.790  -8.743   8.663  1.00  0.00    -0.179 NA
HETATM   23  N   UNL     1      43.874  -9.375   8.210  1.00  0.00    -0.281 N 
HETATM   24  H   UNL     1      44.765  -9.150   8.641  1.00  0.00     0.189 HD
HETATM   25  C   UNL     1      43.625 -10.286   7.213  1.00  0.00     0.049 A 
BRANCH  25  26
HETATM   26  C   UNL     1      44.732 -11.129   6.641  1.00  0.00     0.030 C 
HETATM   27  C   UNL     1      46.059 -10.815   7.334  1.00  0.00     0.016 C 
HETATM   28  C   UNL     1      44.425 -12.628   6.730  1.00  0.00     0.016 C 
ENDBRANCH  25  26
ENDBRANCH   1  19
TORSDOF 6
ENDMDL
MODEL 5
REMARK VINA RESULT:      -7.4      5.008      8.136
REMARK  6 active torsions:
REMARK  status: ('A' for Active; 'I' for Inactive)
REMARK    1  A    between atoms: C_6  and  C_7 
REMARK    2  A    between atoms: C_10  and  C_11 
REMARK       I    between atoms: C_11  and  N_12 
REMARK    3  A    between atoms: N_12  and  C_13 
REMARK    4  A    between atoms: C_13  and  C_14 
REMARK    5  A    between atoms: C_17  and  C_18 
REMARK       I    between atoms: C_18  and  N_19 
REMARK    6  A    between atoms: N_19  and  C_20 
ROOT
HETATM    1  C   UNL     1      42.504 -14.033   3.853  1.00  0.00     0.256 C 
HETATM    2  N   UNL     1      43.526 -13.139   3.628  1.00  0.00    -0.353 N 
HETATM    3  O   UNL     1      41.365 -13.661   4.121  1.00  0.00    -0.268 OA
HETATM    4  H   UNL     1      44.473 -13.483   3.662  1.00  0.00     0.163 HD
ENDROOT
BRANCH   2   5
HETATM    5  C   UNL     1      43.311 -11.729   3.836  1.00  0.00     0.161 C 
BRANCH   5   6
HETATM    6  C   UNL     1      43.660 -11.318   5.242  1.00  0.00    -0.040 A 
HETATM    7  C   UNL     1      42.685 -10.724   6.059  1.00  0.00     0.010 A 
HETATM    8  C   UNL     1      42.982 -10.378   7.379  1.00  0.00     0.017 A 
HETATM    9  C   UNL     1      44.256 -10.625   7.900  1.00  0.00     0.032 A 
HETATM   10  C   UNL     1      45.248 -11.173   7.078  1.00  0.00     0.017 A 
HETATM   11  C   UNL     1      44.949 -11.516   5.755  1.00  0.00     0.010 A 
BRANCH   9  12
HETATM   12  C   UNL     1      44.514 -10.288   9.326  1.00  0.00     0.252 C 
HETATM   13  N   UNL     1      43.549 -10.705  10.226  1.00  0.00    -0.352 N 
HETATM   14  H   UNL     1      42.684 -11.089   9.870  1.00  0.00     0.163 HD
HETATM   15  O   UNL     1      45.511  -9.643   9.632  1.00  0.00    -0.268 OA
BRANCH  13  16
HETATM   16  C   UNL     1      43.606 -10.358  11.611  1.00  0.00     0.084 A 
HETATM   17  C   UNL     1      43.321  -8.948  12.053  1.00  0.00     0.027 A 
HETATM   18  C   UNL     1      42.348 -10.045  12.376  1.00  0.00     0.027 A 
ENDBRANCH  13  16
ENDBRANCH   9  12
ENDBRANCH   5   6
ENDBRANCH   2   5
BRANCH   1  19
HETATM   19  C   UNL     1      42.866 -15.447   3.820  1.00  0.00     0.082 A 
HETATM   20  C   UNL     1      43.134 -16.199   2.635  1.00  0.00     0.068 A 
HETATM   21  C   UNL     1      43.114 -15.728   1.226  1.00  0.00     0.073 C 
HETATM   22  N   UNL     1      43.413 -17.479   2.903  1.00  0.00    -0.179 NA
HETATM   23  N   UNL     1      43.362 -17.549   4.235  1.00  0.00    -0.281 N 
HETATM   24  H   UNL     1      43.563 -18.444   4.668  1.00  0.00     0.189 HD
HETATM   25  C   UNL     1      43.064 -16.360   4.854  1.00  0.00     0.049 A 
BRANCH  25  26
HETATM   26  C   UNL     1      43.033 -16.256   6.355  1.00  0.00     0.030 C 
HETATM   27  C   UNL     1      43.958 -15.136   6.834  1.00  0.00     0.016 C 
HETATM   28  C   UNL     1      41.613 -16.041   6.891  1.00  0.00     0.016 C 
ENDBRANCH  25  26
ENDBRANCH   1  19
TORSDOF 6
ENDMDL
MODEL 6
REMARK VINA RESULT:      -7.4      5.004      7.616
REMARK  6 active torsions:
REMARK  status: ('A' for Active; 'I' for Inactive)
REMARK    1  A    between atoms: C_6  and  C_7 
REMARK    2  A    between atoms: C_10  and  C_11 
REMARK       I    between atoms: C_11  and  N_12 
REMARK    3  A    between atoms: N_12  and  C_13 
REMARK    4  A    between atoms: C_13  and  C_14 
REMARK    5  A    between atoms: C_17  and  C_18 
REMARK       I    between atoms: C_18  and  N_19 
REMARK    6  A    between atoms: N_19  and  C_20 
ROOT
HETATM    1  C   UNL     1      42.269 -14.972   4.770  1.00  0.00     0.256 C 
HETATM    2  N   UNL     1      43.147 -13.978   4.403  1.00  0.00    -0.353 N 
HETATM    3  O   UNL     1      41.080 -14.744   4.974  1.00  0.00    -0.268 OA
HETATM    4  H   UNL     1      44.135 -14.160   4.493  1.00  0.00     0.163 HD
ENDROOT
BRANCH   2   5
HETATM    5  C   UNL     1      42.714 -12.604   4.379  1.00  0.00     0.161 C 
BRANCH   5   6
HETATM    6  C   UNL     1      43.103 -11.878   5.641  1.00  0.00    -0.040 A 
HETATM    7  C   UNL     1      42.277 -10.863   6.146  1.00  0.00     0.010 A 
HETATM    8  C   UNL     1      42.603 -10.212   7.339  1.00  0.00     0.017 A 
HETATM    9  C   UNL     1      43.757 -10.572   8.042  1.00  0.00     0.032 A 
HETATM   10  C   UNL     1      44.612 -11.550   7.519  1.00  0.00     0.017 A 
HETATM   11  C   UNL     1      44.284 -12.198   6.323  1.00  0.00     0.010 A 
BRANCH   9  12
HETATM   12  C   UNL     1      44.040  -9.889   9.333  1.00  0.00     0.252 C 
HETATM   13  N   UNL     1      43.376 -10.394  10.437  1.00  0.00    -0.352 N 
HETATM   14  H   UNL     1      42.658 -11.092  10.298  1.00  0.00     0.163 HD
HETATM   15  O   UNL     1      44.789  -8.918   9.361  1.00  0.00    -0.268 OA
BRANCH  13  16
HETATM   16  C   UNL     1      43.464  -9.772  11.721  1.00  0.00     0.084 A 
HETATM   17  C   UNL     1      42.525  -8.656  12.089  1.00  0.00     0.027 A 
HETATM   18  C   UNL     1      42.393  -9.994  12.755  1.00  0.00     0.027 A 
ENDBRANCH  13  16
ENDBRANCH   9  12
ENDBRANCH   5   6
ENDBRANCH   2   5
BRANCH   1  19
HETATM   19  C   UNL     1      42.844 -16.299   4.967  1.00  0.00     0.082 A 
HETATM   20  C   UNL     1      43.331 -16.807   6.211  1.00  0.00     0.068 A 
HETATM   21  C   UNL     1      43.353 -16.128   7.533  1.00  0.00     0.073 C 
HETATM   22  N   UNL     1      43.828 -18.042   6.091  1.00  0.00    -0.179 NA
HETATM   23  N   UNL     1      43.637 -18.344   4.805  1.00  0.00    -0.281 N 
HETATM   24  H   UNL     1      43.930 -19.262   4.488  1.00  0.00     0.189 HD
HETATM   25  C   UNL     1      43.027 -17.354   4.074  1.00  0.00     0.049 A 
BRANCH  25  26
HETATM   26  C   UNL     1      42.681 -17.563   2.625  1.00  0.00     0.030 C 
HETATM   27  C   UNL     1      43.309 -16.468   1.760  1.00  0.00     0.016 C 
HETATM   28  C   UNL     1      43.102 -18.948   2.123  1.00  0.00     0.016 C 
ENDBRANCH  25  26
ENDBRANCH   1  19
TORSDOF 6
ENDMDL
MODEL 7
REMARK VINA RESULT:      -7.3      4.940      8.162
REMARK  6 active torsions:
REMARK  status: ('A' for Active; 'I' for Inactive)
REMARK    1  A    between atoms: C_6  and  C_7 
REMARK    2  A    between atoms: C_10  and  C_11 
REMARK       I    between atoms: C_11  and  N_12 
REMARK    3  A    between atoms: N_12  and  C_13 
REMARK    4  A    between atoms: C_13  and  C_14 
REMARK    5  A    between atoms: C_17  and  C_18 
REMARK       I    between atoms: C_18  and  N_19 
REMARK    6  A    between atoms: N_19  and  C_20 
ROOT
HETATM    1  C   UNL     1      42.804 -10.766   6.768  1.00  0.00     0.256 C 
HETATM    2  N   UNL     1      42.294 -12.042   6.836  1.00  0.00    -0.353 N 
HETATM    3  O   UNL     1      42.315  -9.911   6.035  1.00  0.00    -0.268 OA
HETATM    4  H   UNL     1      42.868 -12.761   7.248  1.00  0.00     0.163 HD
ENDROOT
BRANCH   2   5
HETATM    5  C   UNL     1      41.244 -12.450   5.937  1.00  0.00     0.161 C 
BRANCH   5   6
HETATM    6  C   UNL     1      41.678 -13.595   5.061  1.00  0.00    -0.040 A 
HETATM    7  C   UNL     1      42.557 -13.363   3.991  1.00  0.00     0.010 A 
HETATM    8  C   UNL     1      43.002 -14.422   3.197  1.00  0.00     0.017 A 
HETATM    9  C   UNL     1      42.578 -15.728   3.467  1.00  0.00     0.032 A 
HETATM   10  C   UNL     1      41.665 -15.962   4.501  1.00  0.00     0.017 A 
HETATM   11  C   UNL     1      41.217 -14.898   5.292  1.00  0.00     0.010 A 
BRANCH   9  12
HETATM   12  C   UNL     1      43.117 -16.833   2.628  1.00  0.00     0.252 C 
HETATM   13  N   UNL     1      43.306 -18.040   3.276  1.00  0.00    -0.352 N 
HETATM   14  H   UNL     1      43.197 -18.078   4.281  1.00  0.00     0.163 HD
HETATM   15  O   UNL     1      43.401 -16.627   1.453  1.00  0.00    -0.268 OA
BRANCH  13  16
HETATM   16  C   UNL     1      43.918 -19.158   2.629  1.00  0.00     0.084 A 
HETATM   17  C   UNL     1      43.803 -20.535   3.224  1.00  0.00     0.027 A 
HETATM   18  C   UNL     1      43.078 -20.206   1.952  1.00  0.00     0.027 A 
ENDBRANCH  13  16
ENDBRANCH   9  12
ENDBRANCH   5   6
ENDBRANCH   2   5
BRANCH   1  19
HETATM   19  C   UNL     1      43.998 -10.506   7.567  1.00  0.00     0.082 A 
HETATM   20  C   UNL     1      45.333 -10.832   7.179  1.00  0.00     0.068 A 
HETATM   21  C   UNL     1      45.790 -11.478   5.920  1.00  0.00     0.073 C 
HETATM   22  N   UNL     1      46.226 -10.504   8.118  1.00  0.00    -0.179 NA
HETATM   23  N   UNL     1      45.491  -9.945   9.081  1.00  0.00    -0.281 N 
HETATM   24  H   UNL     1      45.975  -9.599   9.902  1.00  0.00     0.189 HD
HETATM   25  C   UNL     1      44.146  -9.888   8.808  1.00  0.00     0.049 A 
BRANCH  25  26
HETATM   26  C   UNL     1      43.189  -9.227   9.762  1.00  0.00     0.030 C 
HETATM   27  C   UNL     1      43.809  -9.124  11.158  1.00  0.00     0.016 C 
HETATM   28  C   UNL     1      42.744  -7.845   9.273  1.00  0.00     0.016 C 
ENDBRANCH  25  26
ENDBRANCH   1  19
TORSDOF 6
ENDMDL
MODEL 8
REMARK VINA RESULT:      -7.2      2.005      2.753
REMARK  6 active torsions:
REMARK  status: ('A' for Active; 'I' for Inactive)
REMARK    1  A    between atoms: C_6  and  C_7 
REMARK    2  A    between atoms: C_10  and  C_11 
REMARK       I    between atoms: C_11  and  N_12 
REMARK    3  A    between atoms: N_12  and  C_13 
REMARK    4  A    between atoms: C_13  and  C_14 
REMARK    5  A    between atoms: C_17  and  C_18 
REMARK       I    between atoms: C_18  and  N_19 
REMARK    6  A    between atoms: N_19  and  C_20 
ROOT
HETATM    1  C   UNL     1      42.323 -14.778   5.330  1.00  0.00     0.256 C 
HETATM    2  N   UNL     1      40.954 -14.701   5.459  1.00  0.00    -0.353 N 
HETATM    3  O   UNL     1      43.017 -13.777   5.176  1.00  0.00    -0.268 OA
HETATM    4  H   UNL     1      40.417 -15.544   5.330  1.00  0.00     0.163 HD
ENDROOT
BRANCH   2   5
HETATM    5  C   UNL     1      40.282 -13.439   5.278  1.00  0.00     0.161 C 
BRANCH   5   6
HETATM    6  C   UNL     1      39.958 -13.186   3.829  1.00  0.00    -0.040 A 
HETATM    7  C   UNL     1      39.540 -11.911   3.419  1.00  0.00     0.010 A 
HETATM    8  C   UNL     1      39.279 -11.650   2.072  1.00  0.00     0.017 A 
HETATM    9  C   UNL     1      39.436 -12.662   1.118  1.00  0.00     0.032 A 
HETATM   10  C   UNL     1      39.805 -13.949   1.525  1.00  0.00     0.017 A 
HETATM   11  C   UNL     1      40.063 -14.208   2.876  1.00  0.00     0.010 A 
BRANCH   9  12
HETATM   12  C   UNL     1      39.196 -12.328  -0.312  1.00  0.00     0.252 C 
HETATM   13  N   UNL     1      38.581 -13.313  -1.063  1.00  0.00    -0.352 N 
HETATM   14  H   UNL     1      38.448 -14.228  -0.654  1.00  0.00     0.163 HD
HETATM   15  O   UNL     1      39.574 -11.251  -0.761  1.00  0.00    -0.268 OA
BRANCH  13  16
HETATM   16  C   UNL     1      38.386 -13.178  -2.473  1.00  0.00     0.084 A 
HETATM   17  C   UNL     1      38.249 -14.399  -3.340  1.00  0.00     0.027 A 
HETATM   18  C   UNL     1      37.060 -13.516  -3.099  1.00  0.00     0.027 A 
ENDBRANCH  13  16
ENDBRANCH   9  12
ENDBRANCH   5   6
ENDBRANCH   2   5
BRANCH   1  19
HETATM   19  C   UNL     1      42.894 -16.121   5.321  1.00  0.00     0.082 A 
HETATM   20  C   UNL     1      43.431 -16.794   6.462  1.00  0.00     0.068 A 
HETATM   21  C   UNL     1      43.517 -16.299   7.861  1.00  0.00     0.073 C 
HETATM   22  N   UNL     1      43.911 -18.003   6.155  1.00  0.00    -0.179 NA
HETATM   23  N   UNL     1      43.661 -18.128   4.850  1.00  0.00    -0.281 N 
HETATM   24  H   UNL     1      43.932 -18.996   4.400  1.00  0.00     0.189 HD
HETATM   25  C   UNL     1      43.028 -17.046   4.287  1.00  0.00     0.049 A 
BRANCH  25  26
HETATM   26  C   UNL     1      42.617 -17.057   2.841  1.00  0.00     0.030 C 
HETATM   27  C   UNL     1      43.309 -15.925   2.077  1.00  0.00     0.016 C 
HETATM   28  C   UNL     1      42.899 -18.405   2.168  1.00  0.00     0.016 C 
ENDBRANCH  25  26
ENDBRANCH   1  19
TORSDOF 6
ENDMDL
MODEL 9
REMARK VINA RESULT:      -7.1      3.706      7.772
REMARK  6 active torsions:
REMARK  status: ('A' for Active; 'I' for Inactive)
REMARK    1  A    between atoms: C_6  and  C_7 
REMARK    2  A    between atoms: C_10  and  C_11 
REMARK       I    between atoms: C_11  and  N_12 
REMARK    3  A    between atoms: N_12  and  C_13 
REMARK    4  A    between atoms: C_13  and  C_14 
REMARK    5  A    between atoms: C_17  and  C_18 
REMARK       I    between atoms: C_18  and  N_19 
REMARK    6  A    between atoms: N_19  and  C_20 
ROOT
HETATM    1  C   UNL     1      42.524 -11.196   4.301  1.00  0.00     0.256 C 
HETATM    2  N   UNL     1      41.514 -11.963   3.766  1.00  0.00    -0.353 N 
HETATM    3  O   UNL     1      43.526 -10.902   3.654  1.00  0.00    -0.268 OA
HETATM    4  H   UNL     1      40.850 -12.381   4.399  1.00  0.00     0.163 HD
ENDROOT
BRANCH   2   5
HETATM    5  C   UNL     1      41.671 -12.559   2.463  1.00  0.00     0.161 C 
BRANCH   5   6
HETATM    6  C   UNL     1      42.035 -14.017   2.561  1.00  0.00    -0.040 A 
HETATM    7  C   UNL     1      43.104 -14.523   1.806  1.00  0.00     0.010 A 
HETATM    8  C   UNL     1      43.481 -15.863   1.920  1.00  0.00     0.017 A 
HETATM    9  C   UNL     1      42.796 -16.713   2.795  1.00  0.00     0.032 A 
HETATM   10  C   UNL     1      41.698 -16.228   3.516  1.00  0.00     0.017 A 
HETATM   11  C   UNL     1      41.321 -14.886   3.397  1.00  0.00     0.010 A 
BRANCH   9  12
HETATM   12  C   UNL     1      43.263 -18.120   2.924  1.00  0.00     0.252 C 
HETATM   13  N   UNL     1      43.829 -18.455   4.140  1.00  0.00    -0.352 N 
HETATM   14  H   UNL     1      44.011 -17.722   4.813  1.00  0.00     0.163 HD
HETATM   15  O   UNL     1      43.170 -18.885   1.970  1.00  0.00    -0.268 OA
BRANCH  13  16
HETATM   16  C   UNL     1      44.420 -19.736   4.373  1.00  0.00     0.084 A 
HETATM   17  C   UNL     1      44.099 -20.503   5.626  1.00  0.00     0.027 A 
HETATM   18  C   UNL     1      43.590 -20.988   4.300  1.00  0.00     0.027 A 
ENDBRANCH  13  16
ENDBRANCH   9  12
ENDBRANCH   5   6
ENDBRANCH   2   5
BRANCH   1  19
HETATM   19  C   UNL     1      42.368 -10.808   5.699  1.00  0.00     0.082 A 
HETATM   20  C   UNL     1      41.373  -9.912   6.197  1.00  0.00     0.068 A 
HETATM   21  C   UNL     1      40.310  -9.207   5.434  1.00  0.00     0.073 C 
HETATM   22  N   UNL     1      41.484  -9.718   7.516  1.00  0.00    -0.179 NA
HETATM   23  N   UNL     1      42.506 -10.498   7.872  1.00  0.00    -0.281 N 
HETATM   24  H   UNL     1      42.761 -10.521   8.854  1.00  0.00     0.189 HD
HETATM   25  C   UNL     1      43.070 -11.203   6.837  1.00  0.00     0.049 A 
BRANCH  25  26
HETATM   26  C   UNL     1      44.189 -12.177   7.083  1.00  0.00     0.030 C 
HETATM   27  C   UNL     1      43.828 -13.560   6.537  1.00  0.00     0.016 C 
HETATM   28  C   UNL     1      45.517 -11.698   6.485  1.00  0.00     0.016 C 
ENDBRANCH  25  26
ENDBRANCH   1  19
TORSDOF 6
ENDMDL
MODEL 10
REMARK VINA RESULT:      -7.1     13.205     16.357
REMARK  6 active torsions:
REMARK  status: ('A' for Active; 'I' for Inactive)
REMARK    1  A    between atoms: C_6  and  C_7 
REMARK    2  A    between atoms: C_10  and  C_11 
REMARK       I    between atoms: C_11  and  N_12 
REMARK    3  A    between atoms: N_12  and  C_13 
REMARK    4  A    between atoms: C_13  and  C_14 
REMARK    5  A    between atoms: C_17  and  C_18 
REMARK       I    between atoms: C_18  and  N_19 
REMARK    6  A    between atoms: N_19  and  C_20 
ROOT
HETATM    1  C   UNL     1      44.173 -30.090  -4.629  1.00  0.00     0.256 C 
HETATM    2  N   UNL     1      45.339 -29.365  -4.523  1.00  0.00    -0.353 N 
HETATM    3  O   UNL     1      43.090 -29.630  -4.276  1.00  0.00    -0.268 OA
HETATM    4  H   UNL     1      46.213 -29.862  -4.585  1.00  0.00     0.163 HD
ENDROOT
BRANCH   2   5
HETATM    5  C   UNL     1      45.336 -28.084  -3.863  1.00  0.00     0.161 C 
BRANCH   5   6
HETATM    6  C   UNL     1      45.712 -28.209  -2.410  1.00  0.00    -0.040 A 
HETATM    7  C   UNL     1      47.046 -28.021  -2.015  1.00  0.00     0.010 A 
HETATM    8  C   UNL     1      47.402 -28.090  -0.666  1.00  0.00     0.017 A 
HETATM    9  C   UNL     1      46.427 -28.343   0.305  1.00  0.00     0.032 A 
HETATM   10  C   UNL     1      45.104 -28.580  -0.085  1.00  0.00     0.017 A 
HETATM   11  C   UNL     1      44.751 -28.514  -1.437  1.00  0.00     0.010 A 
BRANCH   9  12
HETATM   12  C   UNL     1      46.841 -28.358   1.734  1.00  0.00     0.252 C 
HETATM   13  N   UNL     1      48.188 -28.565   1.967  1.00  0.00    -0.352 N 
HETATM   14  H   UNL     1      48.785 -28.818   1.190  1.00  0.00     0.163 HD
HETATM   15  O   UNL     1      45.998 -28.232   2.617  1.00  0.00    -0.268 OA
BRANCH  13  16
HETATM   16  C   UNL     1      48.714 -28.713   3.288  1.00  0.00     0.084 A 
HETATM   17  C   UNL     1      48.576 -30.021   4.017  1.00  0.00     0.027 A 
HETATM   18  C   UNL     1      49.925 -29.569   3.540  1.00  0.00     0.027 A 
ENDBRANCH  13  16
ENDBRANCH   9  12
ENDBRANCH   5   6
ENDBRANCH   2   5
BRANCH   1  19
HETATM   19  C   UNL     1      44.307 -31.457  -5.122  1.00  0.00     0.082 A 
HETATM   20  C   UNL     1      44.176 -31.855  -6.488  1.00  0.00     0.068 A 
HETATM   21  C   UNL     1      43.893 -30.998  -7.669  1.00  0.00     0.073 C 
HETATM   22  N   UNL     1      44.320 -33.175  -6.645  1.00  0.00    -0.179 NA
HETATM   23  N   UNL     1      44.574 -33.621  -5.413  1.00  0.00    -0.281 N 
HETATM   24  H   UNL     1      44.738 -34.615  -5.297  1.00  0.00     0.189 HD
HETATM   25  C   UNL     1      44.607 -32.641  -4.451  1.00  0.00     0.049 A 
BRANCH  25  26
HETATM   26  C   UNL     1      44.946 -32.971  -3.023  1.00  0.00     0.030 C 
HETATM   27  C   UNL     1      46.251 -32.288  -2.609  1.00  0.00     0.016 C 
HETATM   28  C   UNL     1      43.817 -32.593  -2.057  1.00  0.00     0.016 C 
ENDBRANCH  25  26
ENDBRANCH   1  19
TORSDOF 6
ENDMDL
