MODEL 1
REMARK VINA RESULT:      -9.9      0.000      0.000
REMARK  5 active torsions:
REMARK  status: ('A' for Active; 'I' for Inactive)
REMARK    1  A    between atoms: C_3  and  O_4 
REMARK    2  A    between atoms: C_6  and  N_7 
REMARK       I    between atoms: N_7  and  C_8 
REMARK    3  A    between atoms: C_8  and  C_9 
REMARK    4  A    between atoms: C_12  and  C_13 
REMARK    5  A    between atoms: C_18  and  C_19 
ROOT
HETATM    1  C   UNL     1      40.323 -13.149   3.616  1.00  0.00     0.096 A 
HETATM    2  C   UNL     1      41.260 -14.029   4.126  1.00  0.00     0.138 A 
HETATM    3  N   UNL     1      41.467 -13.636   5.426  1.00  0.00    -0.240 N 
HETATM    4  C   UNL     1      42.398 -14.267   6.342  1.00  0.00     0.221 C 
HETATM    5  C   UNL     1      42.731 -15.684   5.846  1.00  0.00     0.066 C 
HETATM    6  C   UNL     1      43.052 -15.678   4.341  1.00  0.00     0.118 C 
HETATM    7  N   UNL     1      41.929 -15.092   3.596  1.00  0.00    -0.365 N 
HETATM    8  N   UNL     1      40.725 -12.587   5.807  1.00  0.00    -0.181 NA
HETATM    9  C   UNL     1      40.061 -12.265   4.693  1.00  0.00     0.160 A 
HETATM   10  H   UNL     1      42.103 -15.095   2.587  1.00  0.00     0.161 HD
ENDROOT
BRANCH   1  11
HETATM   11  C   UNL     1      39.710 -13.096   2.299  1.00  0.00     0.261 C 
HETATM   12  N   UNL     1      40.501 -13.642   1.305  1.00  0.00    -0.323 N 
HETATM   13  H   UNL     1      41.340 -14.109   1.630  1.00  0.00     0.169 HD
HETATM   14  O   UNL     1      38.580 -12.646   2.158  1.00  0.00    -0.267 OA
BRANCH  12  15
HETATM   15  C   UNL     1      40.218 -13.725  -0.072  1.00  0.00     0.037 A 
HETATM   16  C   UNL     1      39.487 -14.759  -0.658  1.00  0.00     0.066 A 
HETATM   17  C   UNL     1      39.250 -14.755  -2.032  1.00  0.00     0.067 A 
HETATM   18  C   UNL     1      39.736 -13.735  -2.843  1.00  0.00     0.036 A 
HETATM   19  C   UNL     1      40.464 -12.697  -2.265  1.00  0.00     0.005 A 
HETATM   20  C   UNL     1      40.698 -12.689  -0.886  1.00  0.00     0.029 A 
BRANCH  17  21
HETATM   21  O   UNL     1      38.523 -15.785  -2.554  1.00  0.00    -0.361 OA
HETATM   22  H   UNL     1      37.578 -15.575  -2.476  1.00  0.00     0.217 HD
ENDBRANCH  17  21
ENDBRANCH  12  15
ENDBRANCH   1  11
BRANCH   4  23
HETATM   23  C   UNL     1      43.637 -13.409   6.495  1.00  0.00     0.409 C 
HETATM   24  F   UNL     1      43.893 -12.657   5.403  1.00  0.00    -0.169 F 
HETATM   25  F   UNL     1      43.586 -12.587   7.563  1.00  0.00    -0.169 F 
HETATM   26  F   UNL     1      44.725 -14.206   6.676  1.00  0.00    -0.169 F 
ENDBRANCH   4  23
BRANCH   6  27
HETATM   27  C   UNL     1      43.330 -17.083   3.839  1.00  0.00    -0.035 A 
HETATM   28  C   UNL     1      42.831 -17.536   2.604  1.00  0.00     0.012 A 
HETATM   29  C   UNL     1      43.072 -18.844   2.177  1.00  0.00     0.043 A 
HETATM   30  C   UNL     1      43.807 -19.704   2.984  1.00  0.00     0.116 A 
HETATM   31  F   UNL     1      44.033 -20.959   2.576  1.00  0.00    -0.206 F 
HETATM   32  C   UNL     1      44.308 -19.282   4.208  1.00  0.00     0.043 A 
HETATM   33  C   UNL     1      44.070 -17.975   4.637  1.00  0.00     0.012 A 
ENDBRANCH   6  27
TORSDOF 5
ENDMDL
MODEL 2
REMARK VINA RESULT:      -9.9      3.908      7.181
REMARK  5 active torsions:
REMARK  status: ('A' for Active; 'I' for Inactive)
REMARK    1  A    between atoms: C_3  and  O_4 
REMARK    2  A    between atoms: C_6  and  N_7 
REMARK       I    between atoms: N_7  and  C_8 
REMARK    3  A    between atoms: C_8  and  C_9 
REMARK    4  A    between atoms: C_12  and  C_13 
REMARK    5  A    between atoms: C_18  and  C_19 
ROOT
HETATM    1  C   UNL     1      43.363 -12.348   4.692  1.00  0.00     0.096 A 
HETATM    2  C   UNL     1      43.090 -13.450   3.903  1.00  0.00     0.138 A 
HETATM    3  N   UNL     1      42.742 -12.947   2.672  1.00  0.00    -0.240 N 
HETATM    4  C   UNL     1      42.349 -13.751   1.531  1.00  0.00     0.221 C 
HETATM    5  C   UNL     1      42.842 -15.196   1.721  1.00  0.00     0.066 C 
HETATM    6  C   UNL     1      42.523 -15.702   3.138  1.00  0.00     0.118 C 
HETATM    7  N   UNL     1      43.106 -14.794   4.135  1.00  0.00    -0.365 N 
HETATM    8  N   UNL     1      42.789 -11.610   2.593  1.00  0.00    -0.181 NA
HETATM    9  C   UNL     1      43.125 -11.244   3.833  1.00  0.00     0.160 A 
HETATM   10  H   UNL     1      42.930 -15.117   5.090  1.00  0.00     0.161 HD
ENDROOT
BRANCH   1  11
HETATM   11  C   UNL     1      43.799 -12.275   6.077  1.00  0.00     0.261 C 
HETATM   12  N   UNL     1      43.817 -10.987   6.578  1.00  0.00    -0.323 N 
HETATM   13  H   UNL     1      43.419 -10.281   5.969  1.00  0.00     0.169 HD
HETATM   14  O   UNL     1      44.061 -13.297   6.698  1.00  0.00    -0.267 OA
BRANCH  12  15
HETATM   15  C   UNL     1      44.212 -10.569   7.864  1.00  0.00     0.037 A 
HETATM   16  C   UNL     1      43.538 -10.913   9.037  1.00  0.00     0.066 A 
HETATM   17  C   UNL     1      44.006 -10.457  10.269  1.00  0.00     0.067 A 
HETATM   18  C   UNL     1      45.138  -9.655  10.357  1.00  0.00     0.036 A 
HETATM   19  C   UNL     1      45.818  -9.312   9.191  1.00  0.00     0.005 A 
HETATM   20  C   UNL     1      45.361  -9.772   7.952  1.00  0.00     0.029 A 
BRANCH  17  21
HETATM   21  O   UNL     1      43.315 -10.828  11.386  1.00  0.00    -0.361 OA
HETATM   22  H   UNL     1      43.586 -10.260  12.127  1.00  0.00     0.217 HD
ENDBRANCH  17  21
ENDBRANCH  12  15
ENDBRANCH   1  11
BRANCH   4  23
HETATM   23  C   UNL     1      40.848 -13.681   1.339  1.00  0.00     0.409 C 
HETATM   24  F   UNL     1      40.337 -14.797   0.776  1.00  0.00    -0.169 F 
HETATM   25  F   UNL     1      40.175 -13.447   2.484  1.00  0.00    -0.169 F 
HETATM   26  F   UNL     1      40.543 -12.654   0.499  1.00  0.00    -0.169 F 
ENDBRANCH   4  23
BRANCH   6  27
HETATM   27  C   UNL     1      43.055 -17.109   3.346  1.00  0.00    -0.035 A 
HETATM   28  C   UNL     1      43.004 -18.074   2.323  1.00  0.00     0.012 A 
HETATM   29  C   UNL     1      43.469 -19.371   2.548  1.00  0.00     0.043 A 
HETATM   30  C   UNL     1      43.980 -19.711   3.794  1.00  0.00     0.116 A 
HETATM   31  F   UNL     1      44.420 -20.957   4.010  1.00  0.00    -0.206 F 
HETATM   32  C   UNL     1      44.038 -18.778   4.821  1.00  0.00     0.043 A 
HETATM   33  C   UNL     1      43.576 -17.479   4.599  1.00  0.00     0.012 A 
ENDBRANCH   6  27
TORSDOF 5
ENDMDL
MODEL 3
REMARK VINA RESULT:      -9.5      3.469      6.934
REMARK  5 active torsions:
REMARK  status: ('A' for Active; 'I' for Inactive)
REMARK    1  A    between atoms: C_3  and  O_4 
REMARK    2  A    between atoms: C_6  and  N_7 
REMARK       I    between atoms: N_7  and  C_8 
REMARK    3  A    between atoms: C_8  and  C_9 
REMARK    4  A    between atoms: C_12  and  C_13 
REMARK    5  A    between atoms: C_18  and  C_19 
ROOT
HETATM    1  C   UNL     1      42.141 -14.349   3.276  1.00  0.00     0.096 A 
HETATM    2  C   UNL     1      41.500 -13.568   2.332  1.00  0.00     0.138 A 
HETATM    3  N   UNL     1      41.966 -12.291   2.530  1.00  0.00    -0.240 N 
HETATM    4  C   UNL     1      41.542 -11.128   1.773  1.00  0.00     0.221 C 
HETATM    5  C   UNL     1      40.911 -11.579   0.444  1.00  0.00     0.066 C 
HETATM    6  C   UNL     1      39.914 -12.728   0.672  1.00  0.00     0.118 C 
HETATM    7  N   UNL     1      40.584 -13.840   1.359  1.00  0.00    -0.365 N 
HETATM    8  N   UNL     1      42.874 -12.184   3.511  1.00  0.00    -0.181 NA
HETATM    9  C   UNL     1      42.947 -13.428   3.992  1.00  0.00     0.160 A 
HETATM   10  H   UNL     1      39.951 -14.631   1.504  1.00  0.00     0.161 HD
ENDROOT
BRANCH   1  11
HETATM   11  C   UNL     1      42.053 -15.779   3.521  1.00  0.00     0.261 C 
HETATM   12  N   UNL     1      43.214 -16.460   3.206  1.00  0.00    -0.323 N 
HETATM   13  H   UNL     1      44.005 -15.875   2.962  1.00  0.00     0.169 HD
HETATM   14  O   UNL     1      41.040 -16.264   4.008  1.00  0.00    -0.267 OA
BRANCH  12  15
HETATM   15  C   UNL     1      43.452 -17.846   3.299  1.00  0.00     0.037 A 
HETATM   16  C   UNL     1      43.242 -18.745   2.253  1.00  0.00     0.066 A 
HETATM   17  C   UNL     1      43.511 -20.101   2.434  1.00  0.00     0.067 A 
HETATM   18  C   UNL     1      43.986 -20.585   3.649  1.00  0.00     0.036 A 
HETATM   19  C   UNL     1      44.202 -19.692   4.696  1.00  0.00     0.005 A 
HETATM   20  C   UNL     1      43.942 -18.329   4.520  1.00  0.00     0.029 A 
BRANCH  17  21
HETATM   21  O   UNL     1      43.296 -20.938   1.378  1.00  0.00    -0.361 OA
HETATM   22  H   UNL     1      43.665 -20.533   0.575  1.00  0.00     0.217 HD
ENDBRANCH  17  21
ENDBRANCH  12  15
ENDBRANCH   1  11
BRANCH   4  23
HETATM   23  C   UNL     1      40.592 -10.289   2.601  1.00  0.00     0.409 C 
HETATM   24  F   UNL     1      39.704  -9.603   1.848  1.00  0.00    -0.169 F 
HETATM   25  F   UNL     1      39.900 -11.006   3.509  1.00  0.00    -0.169 F 
HETATM   26  F   UNL     1      41.296  -9.360   3.303  1.00  0.00    -0.169 F 
ENDBRANCH   4  23
BRANCH   6  27
HETATM   27  C   UNL     1      39.329 -13.209  -0.644  1.00  0.00    -0.035 A 
HETATM   28  C   UNL     1      38.459 -12.404  -1.401  1.00  0.00     0.012 A 
HETATM   29  C   UNL     1      37.906 -12.880  -2.592  1.00  0.00     0.043 A 
HETATM   30  C   UNL     1      38.216 -14.163  -3.027  1.00  0.00     0.116 A 
HETATM   31  F   UNL     1      37.681 -14.620  -4.166  1.00  0.00    -0.206 F 
HETATM   32  C   UNL     1      39.069 -14.978  -2.296  1.00  0.00     0.043 A 
HETATM   33  C   UNL     1      39.625 -14.504  -1.106  1.00  0.00     0.012 A 
ENDBRANCH   6  27
TORSDOF 5
ENDMDL
MODEL 4
REMARK VINA RESULT:      -9.4      3.677      7.859
REMARK  5 active torsions:
REMARK  status: ('A' for Active; 'I' for Inactive)
REMARK    1  A    between atoms: C_3  and  O_4 
REMARK    2  A    between atoms: C_6  and  N_7 
REMARK       I    between atoms: N_7  and  C_8 
REMARK    3  A    between atoms: C_8  and  C_9 
REMARK    4  A    between atoms: C_12  and  C_13 
REMARK    5  A    between atoms: C_18  and  C_19 
ROOT
HETATM    1  C   UNL     1      43.110 -14.102   5.359  1.00  0.00     0.096 A 
HETATM    2  C   UNL     1      42.550 -14.603   4.198  1.00  0.00     0.138 A 
HETATM    3  N   UNL     1      42.363 -15.945   4.426  1.00  0.00    -0.240 N 
HETATM    4  C   UNL     1      41.818 -16.880   3.460  1.00  0.00     0.221 C 
HETATM    5  C   UNL     1      41.039 -16.112   2.379  1.00  0.00     0.066 C 
HETATM    6  C   UNL     1      41.847 -14.904   1.875  1.00  0.00     0.118 C 
HETATM    7  N   UNL     1      42.204 -14.036   3.006  1.00  0.00    -0.365 N 
HETATM    8  N   UNL     1      42.736 -16.351   5.648  1.00  0.00    -0.181 NA
HETATM    9  C   UNL     1      43.230 -15.238   6.199  1.00  0.00     0.160 A 
HETATM   10  H   UNL     1      42.723 -13.210   2.700  1.00  0.00     0.161 HD
ENDROOT
BRANCH   1  11
HETATM   11  C   UNL     1      43.500 -12.744   5.697  1.00  0.00     0.261 C 
HETATM   12  N   UNL     1      44.084 -12.637   6.945  1.00  0.00    -0.323 N 
HETATM   13  H   UNL     1      44.273 -13.518   7.410  1.00  0.00     0.169 HD
HETATM   14  O   UNL     1      43.346 -11.835   4.890  1.00  0.00    -0.267 OA
BRANCH  12  15
HETATM   15  C   UNL     1      44.547 -11.468   7.582  1.00  0.00     0.037 A 
HETATM   16  C   UNL     1      45.732 -10.813   7.246  1.00  0.00     0.066 A 
HETATM   17  C   UNL     1      46.108  -9.657   7.928  1.00  0.00     0.067 A 
HETATM   18  C   UNL     1      45.323  -9.138   8.952  1.00  0.00     0.036 A 
HETATM   19  C   UNL     1      44.136  -9.784   9.290  1.00  0.00     0.005 A 
HETATM   20  C   UNL     1      43.747 -10.939   8.605  1.00  0.00     0.029 A 
BRANCH  17  21
HETATM   21  O   UNL     1      47.272  -9.050   7.556  1.00  0.00    -0.361 OA
HETATM   22  H   UNL     1      47.523  -9.366   6.672  1.00  0.00     0.217 HD
ENDBRANCH  17  21
ENDBRANCH  12  15
ENDBRANCH   1  11
BRANCH   4  23
HETATM   23  C   UNL     1      42.928 -17.726   2.873  1.00  0.00     0.409 C 
HETATM   24  F   UNL     1      43.903 -16.988   2.297  1.00  0.00    -0.169 F 
HETATM   25  F   UNL     1      43.506 -18.547   3.773  1.00  0.00    -0.169 F 
HETATM   26  F   UNL     1      42.425 -18.525   1.894  1.00  0.00    -0.169 F 
ENDBRANCH   4  23
BRANCH   6  27
HETATM   27  C   UNL     1      41.059 -14.114   0.845  1.00  0.00    -0.035 A 
HETATM   28  C   UNL     1      41.158 -12.713   0.758  1.00  0.00     0.012 A 
HETATM   29  C   UNL     1      40.398 -12.004  -0.175  1.00  0.00     0.043 A 
HETATM   30  C   UNL     1      39.535 -12.691  -1.020  1.00  0.00     0.116 A 
HETATM   31  F   UNL     1      38.804 -12.010  -1.911  1.00  0.00    -0.206 F 
HETATM   32  C   UNL     1      39.418 -14.072  -0.952  1.00  0.00     0.043 A 
HETATM   33  C   UNL     1      40.177 -14.784  -0.021  1.00  0.00     0.012 A 
ENDBRANCH   6  27
TORSDOF 5
ENDMDL
MODEL 5
REMARK VINA RESULT:      -9.3      3.425      6.583
REMARK  5 active torsions:
REMARK  status: ('A' for Active; 'I' for Inactive)
REMARK    1  A    between atoms: C_3  and  O_4 
REMARK    2  A    between atoms: C_6  and  N_7 
REMARK       I    between atoms: N_7  and  C_8 
REMARK    3  A    between atoms: C_8  and  C_9 
REMARK    4  A    between atoms: C_12  and  C_13 
REMARK    5  A    between atoms: C_18  and  C_19 
ROOT
HETATM    1  C   UNL     1      42.756 -14.737   4.896  1.00  0.00     0.096 A 
HETATM    2  C   UNL     1      42.308 -13.803   3.980  1.00  0.00     0.138 A 
HETATM    3  N   UNL     1      42.722 -12.584   4.462  1.00  0.00    -0.240 N 
HETATM    4  C   UNL     1      42.449 -11.308   3.829  1.00  0.00     0.221 C 
HETATM    5  C   UNL     1      42.091 -11.531   2.349  1.00  0.00     0.066 C 
HETATM    6  C   UNL     1      41.073 -12.674   2.197  1.00  0.00     0.118 C 
HETATM    7  N   UNL     1      41.601 -13.897   2.817  1.00  0.00    -0.365 N 
HETATM    8  N   UNL     1      43.421 -12.655   5.604  1.00  0.00    -0.181 NA
HETATM    9  C   UNL     1      43.404 -13.960   5.889  1.00  0.00     0.160 A 
HETATM   10  H   UNL     1      40.955 -14.684   2.712  1.00  0.00     0.161 HD
ENDROOT
BRANCH   1  11
HETATM   11  C   UNL     1      42.628 -16.185   4.891  1.00  0.00     0.261 C 
HETATM   12  N   UNL     1      43.518 -16.811   4.038  1.00  0.00    -0.323 N 
HETATM   13  H   UNL     1      44.215 -16.204   3.621  1.00  0.00     0.169 HD
HETATM   14  O   UNL     1      41.826 -16.739   5.632  1.00  0.00    -0.267 OA
BRANCH  12  15
HETATM   15  C   UNL     1      43.639 -18.191   3.780  1.00  0.00     0.037 A 
HETATM   16  C   UNL     1      44.069 -19.126   4.722  1.00  0.00     0.066 A 
HETATM   17  C   UNL     1      44.152 -20.475   4.378  1.00  0.00     0.067 A 
HETATM   18  C   UNL     1      43.816 -20.914   3.103  1.00  0.00     0.036 A 
HETATM   19  C   UNL     1      43.381 -19.987   2.158  1.00  0.00     0.005 A 
HETATM   20  C   UNL     1      43.287 -18.634   2.498  1.00  0.00     0.029 A 
BRANCH  17  21
HETATM   21  O   UNL     1      44.571 -21.350   5.338  1.00  0.00    -0.361 OA
HETATM   22  H   UNL     1      44.059 -22.172   5.261  1.00  0.00     0.217 HD
ENDBRANCH  17  21
ENDBRANCH  12  15
ENDBRANCH   1  11
BRANCH   4  23
HETATM   23  C   UNL     1      41.352 -10.581   4.579  1.00  0.00     0.409 C 
HETATM   24  F   UNL     1      40.621  -9.770   3.784  1.00  0.00    -0.169 F 
HETATM   25  F   UNL     1      40.504 -11.412   5.218  1.00  0.00    -0.169 F 
HETATM   26  F   UNL     1      41.903  -9.786   5.535  1.00  0.00    -0.169 F 
ENDBRANCH   4  23
BRANCH   6  27
HETATM   27  C   UNL     1      40.758 -12.930   0.734  1.00  0.00    -0.035 A 
HETATM   28  C   UNL     1      41.020 -11.965  -0.255  1.00  0.00     0.012 A 
HETATM   29  C   UNL     1      40.690 -12.210  -1.591  1.00  0.00     0.043 A 
HETATM   30  C   UNL     1      40.094 -13.415  -1.940  1.00  0.00     0.116 A 
HETATM   31  F   UNL     1      39.774 -13.646  -3.219  1.00  0.00    -0.206 F 
HETATM   32  C   UNL     1      39.823 -14.382  -0.982  1.00  0.00     0.043 A 
HETATM   33  C   UNL     1      40.152 -14.142   0.354  1.00  0.00     0.012 A 
ENDBRANCH   6  27
TORSDOF 5
ENDMDL
MODEL 6
REMARK VINA RESULT:      -8.7      3.585      6.931
REMARK  5 active torsions:
REMARK  status: ('A' for Active; 'I' for Inactive)
REMARK    1  A    between atoms: C_3  and  O_4 
REMARK    2  A    between atoms: C_6  and  N_7 
REMARK       I    between atoms: N_7  and  C_8 
REMARK    3  A    between atoms: C_8  and  C_9 
REMARK    4  A    between atoms: C_12  and  C_13 
REMARK    5  A    between atoms: C_18  and  C_19 
ROOT
HETATM    1  C   UNL     1      41.897 -14.169   2.296  1.00  0.00     0.096 A 
HETATM    2  C   UNL     1      41.987 -13.020   3.061  1.00  0.00     0.138 A 
HETATM    3  N   UNL     1      40.885 -12.269   2.729  1.00  0.00    -0.240 N 
HETATM    4  C   UNL     1      40.582 -10.960   3.276  1.00  0.00     0.221 C 
HETATM    5  C   UNL     1      41.350 -10.758   4.593  1.00  0.00     0.066 C 
HETATM    6  C   UNL     1      42.821 -11.182   4.440  1.00  0.00     0.118 C 
HETATM    7  N   UNL     1      42.893 -12.575   3.977  1.00  0.00    -0.365 N 
HETATM    8  N   UNL     1      40.078 -12.846   1.828  1.00  0.00    -0.181 NA
HETATM    9  C   UNL     1      40.717 -13.982   1.534  1.00  0.00     0.160 A 
HETATM   10  H   UNL     1      43.861 -12.894   3.888  1.00  0.00     0.161 HD
ENDROOT
BRANCH   1  11
HETATM   11  C   UNL     1      42.773 -15.329   2.247  1.00  0.00     0.261 C 
HETATM   12  N   UNL     1      42.319 -16.389   3.008  1.00  0.00    -0.323 N 
HETATM   13  H   UNL     1      41.392 -16.273   3.402  1.00  0.00     0.169 HD
HETATM   14  O   UNL     1      43.773 -15.320   1.540  1.00  0.00    -0.267 OA
BRANCH  12  15
HETATM   15  C   UNL     1      42.939 -17.640   3.198  1.00  0.00     0.037 A 
HETATM   16  C   UNL     1      42.947 -18.659   2.244  1.00  0.00     0.066 A 
HETATM   17  C   UNL     1      43.592 -19.865   2.517  1.00  0.00     0.067 A 
HETATM   18  C   UNL     1      44.231 -20.080   3.733  1.00  0.00     0.036 A 
HETATM   19  C   UNL     1      44.230 -19.066   4.689  1.00  0.00     0.005 A 
HETATM   20  C   UNL     1      43.593 -17.851   4.419  1.00  0.00     0.029 A 
BRANCH  17  21
HETATM   21  O   UNL     1      43.578 -20.826   1.548  1.00  0.00    -0.361 OA
HETATM   22  H   UNL     1      43.031 -20.518   0.806  1.00  0.00     0.217 HD
ENDBRANCH  17  21
ENDBRANCH  12  15
ENDBRANCH   1  11
BRANCH   4  23
HETATM   23  C   UNL     1      40.901  -9.885   2.257  1.00  0.00     0.409 C 
HETATM   24  F   UNL     1      41.977 -10.185   1.498  1.00  0.00    -0.169 F 
HETATM   25  F   UNL     1      39.872  -9.613   1.430  1.00  0.00    -0.169 F 
HETATM   26  F   UNL     1      41.197  -8.722   2.898  1.00  0.00    -0.169 F 
ENDBRANCH   4  23
BRANCH   6  27
HETATM   27  C   UNL     1      43.569 -11.033   5.753  1.00  0.00    -0.035 A 
HETATM   28  C   UNL     1      42.970 -10.440   6.878  1.00  0.00     0.012 A 
HETATM   29  C   UNL     1      43.689 -10.283   8.066  1.00  0.00     0.043 A 
HETATM   30  C   UNL     1      45.009 -10.713   8.130  1.00  0.00     0.116 A 
HETATM   31  F   UNL     1      45.698 -10.557   9.267  1.00  0.00    -0.206 F 
HETATM   32  C   UNL     1      45.623 -11.298   7.032  1.00  0.00     0.043 A 
HETATM   33  C   UNL     1      44.907 -11.458   5.844  1.00  0.00     0.012 A 
ENDBRANCH   6  27
TORSDOF 5
ENDMDL
MODEL 7
REMARK VINA RESULT:      -8.7      2.390      5.150
REMARK  5 active torsions:
REMARK  status: ('A' for Active; 'I' for Inactive)
REMARK    1  A    between atoms: C_3  and  O_4 
REMARK    2  A    between atoms: C_6  and  N_7 
REMARK       I    between atoms: N_7  and  C_8 
REMARK    3  A    between atoms: C_8  and  C_9 
REMARK    4  A    between atoms: C_12  and  C_13 
REMARK    5  A    between atoms: C_18  and  C_19 
ROOT
HETATM    1  C   UNL     1      42.043 -14.944   2.198  1.00  0.00     0.096 A 
HETATM    2  C   UNL     1      42.501 -14.762   3.489  1.00  0.00     0.138 A 
HETATM    3  N   UNL     1      43.002 -15.981   3.880  1.00  0.00    -0.240 N 
HETATM    4  C   UNL     1      43.569 -16.262   5.185  1.00  0.00     0.221 C 
HETATM    5  C   UNL     1      43.983 -14.945   5.864  1.00  0.00     0.066 C 
HETATM    6  C   UNL     1      42.868 -13.892   5.745  1.00  0.00     0.118 C 
HETATM    7  N   UNL     1      42.524 -13.689   4.331  1.00  0.00    -0.365 N 
HETATM    8  N   UNL     1      42.925 -16.932   2.939  1.00  0.00    -0.181 NA
HETATM    9  C   UNL     1      42.303 -16.313   1.932  1.00  0.00     0.160 A 
HETATM   10  H   UNL     1      41.799 -12.975   4.218  1.00  0.00     0.161 HD
ENDROOT
BRANCH   1  11
HETATM   11  C   UNL     1      41.435 -13.995   1.280  1.00  0.00     0.261 C 
HETATM   12  N   UNL     1      40.457 -14.557   0.480  1.00  0.00    -0.323 N 
HETATM   13  H   UNL     1      40.207 -15.512   0.711  1.00  0.00     0.169 HD
HETATM   14  O   UNL     1      41.765 -12.816   1.298  1.00  0.00    -0.267 OA
BRANCH  12  15
HETATM   15  C   UNL     1      39.698 -13.925  -0.525  1.00  0.00     0.037 A 
HETATM   16  C   UNL     1      39.528 -14.438  -1.812  1.00  0.00     0.066 A 
HETATM   17  C   UNL     1      38.752 -13.745  -2.741  1.00  0.00     0.067 A 
HETATM   18  C   UNL     1      38.142 -12.539  -2.413  1.00  0.00     0.036 A 
HETATM   19  C   UNL     1      38.305 -12.024  -1.129  1.00  0.00     0.005 A 
HETATM   20  C   UNL     1      39.073 -12.716  -0.189  1.00  0.00     0.029 A 
BRANCH  17  21
HETATM   21  O   UNL     1      38.611 -14.293  -3.983  1.00  0.00    -0.361 OA
HETATM   22  H   UNL     1      37.848 -14.895  -3.977  1.00  0.00     0.217 HD
ENDBRANCH  17  21
ENDBRANCH  12  15
ENDBRANCH   1  11
BRANCH   4  23
HETATM   23  C   UNL     1      42.582 -17.050   6.021  1.00  0.00     0.409 C 
HETATM   24  F   UNL     1      41.300 -16.855   5.643  1.00  0.00    -0.169 F 
HETATM   25  F   UNL     1      42.820 -18.377   6.015  1.00  0.00    -0.169 F 
HETATM   26  F   UNL     1      42.663 -16.652   7.319  1.00  0.00    -0.169 F 
ENDBRANCH   4  23
BRANCH   6  27
HETATM   27  C   UNL     1      43.295 -12.575   6.369  1.00  0.00    -0.035 A 
HETATM   28  C   UNL     1      42.408 -11.488   6.471  1.00  0.00     0.012 A 
HETATM   29  C   UNL     1      42.833 -10.275   7.019  1.00  0.00     0.043 A 
HETATM   30  C   UNL     1      44.144 -10.143   7.460  1.00  0.00     0.116 A 
HETATM   31  F   UNL     1      44.551  -8.978   7.979  1.00  0.00    -0.206 F 
HETATM   32  C   UNL     1      45.038 -11.201   7.367  1.00  0.00     0.043 A 
HETATM   33  C   UNL     1      44.617 -12.415   6.822  1.00  0.00     0.012 A 
ENDBRANCH   6  27
TORSDOF 5
ENDMDL
MODEL 8
REMARK VINA RESULT:      -8.5      4.034      7.253
REMARK  5 active torsions:
REMARK  status: ('A' for Active; 'I' for Inactive)
REMARK    1  A    between atoms: C_3  and  O_4 
REMARK    2  A    between atoms: C_6  and  N_7 
REMARK       I    between atoms: N_7  and  C_8 
REMARK    3  A    between atoms: C_8  and  C_9 
REMARK    4  A    between atoms: C_12  and  C_13 
REMARK    5  A    between atoms: C_18  and  C_19 
ROOT
HETATM    1  C   UNL     1      41.987 -14.373   4.269  1.00  0.00     0.096 A 
HETATM    2  C   UNL     1      42.151 -13.093   4.767  1.00  0.00     0.138 A 
HETATM    3  N   UNL     1      41.120 -12.355   4.237  1.00  0.00    -0.240 N 
HETATM    4  C   UNL     1      40.911 -10.939   4.472  1.00  0.00     0.221 C 
HETATM    5  C   UNL     1      41.666 -10.508   5.741  1.00  0.00     0.066 C 
HETATM    6  C   UNL     1      43.102 -11.061   5.740  1.00  0.00     0.118 C 
HETATM    7  N   UNL     1      43.072 -12.523   5.596  1.00  0.00    -0.365 N 
HETATM    8  N   UNL     1      40.288 -13.057   3.455  1.00  0.00    -0.181 NA
HETATM    9  C   UNL     1      40.841 -14.273   3.441  1.00  0.00     0.160 A 
HETATM   10  H   UNL     1      44.013 -12.924   5.616  1.00  0.00     0.161 HD
ENDROOT
BRANCH   1  11
HETATM   11  C   UNL     1      42.768 -15.575   4.508  1.00  0.00     0.261 C 
HETATM   12  N   UNL     1      42.500 -16.590   3.608  1.00  0.00    -0.323 N 
HETATM   13  H   UNL     1      41.893 -16.333   2.838  1.00  0.00     0.169 HD
HETATM   14  O   UNL     1      43.602 -15.604   5.404  1.00  0.00    -0.267 OA
BRANCH  12  15
HETATM   15  C   UNL     1      43.059 -17.882   3.576  1.00  0.00     0.037 A 
HETATM   16  C   UNL     1      43.058 -18.705   2.448  1.00  0.00     0.066 A 
HETATM   17  C   UNL     1      43.642 -19.970   2.507  1.00  0.00     0.067 A 
HETATM   18  C   UNL     1      44.228 -20.438   3.678  1.00  0.00     0.036 A 
HETATM   19  C   UNL     1      44.237 -19.621   4.806  1.00  0.00     0.005 A 
HETATM   20  C   UNL     1      43.662 -18.347   4.753  1.00  0.00     0.029 A 
BRANCH  17  21
HETATM   21  O   UNL     1      43.620 -20.731   1.375  1.00  0.00    -0.361 OA
HETATM   22  H   UNL     1      43.317 -20.184   0.632  1.00  0.00     0.217 HD
ENDBRANCH  17  21
ENDBRANCH  12  15
ENDBRANCH   1  11
BRANCH   4  23
HETATM   23  C   UNL     1      41.336 -10.143   3.256  1.00  0.00     0.409 C 
HETATM   24  F   UNL     1      41.680  -8.871   3.553  1.00  0.00    -0.169 F 
HETATM   25  F   UNL     1      42.361 -10.704   2.584  1.00  0.00    -0.169 F 
HETATM   26  F   UNL     1      40.300 -10.063   2.377  1.00  0.00    -0.169 F 
ENDBRANCH   4  23
BRANCH   6  27
HETATM   27  C   UNL     1      43.832 -10.680   7.015  1.00  0.00    -0.035 A 
HETATM   28  C   UNL     1      43.167 -10.059   8.087  1.00  0.00     0.012 A 
HETATM   29  C   UNL     1      43.867  -9.688   9.238  1.00  0.00     0.043 A 
HETATM   30  C   UNL     1      45.233  -9.930   9.318  1.00  0.00     0.116 A 
HETATM   31  F   UNL     1      45.903  -9.569  10.419  1.00  0.00    -0.206 F 
HETATM   32  C   UNL     1      45.912 -10.539   8.272  1.00  0.00     0.043 A 
HETATM   33  C   UNL     1      45.216 -10.913   7.121  1.00  0.00     0.012 A 
ENDBRANCH   6  27
TORSDOF 5
ENDMDL
MODEL 9
REMARK VINA RESULT:      -8.4      4.089      6.864
REMARK  5 active torsions:
REMARK  status: ('A' for Active; 'I' for Inactive)
REMARK    1  A    between atoms: C_3  and  O_4 
REMARK    2  A    between atoms: C_6  and  N_7 
REMARK       I    between atoms: N_7  and  C_8 
REMARK    3  A    between atoms: C_8  and  C_9 
REMARK    4  A    between atoms: C_12  and  C_13 
REMARK    5  A    between atoms: C_18  and  C_19 
ROOT
HETATM    1  C   UNL     1      42.267 -11.359   3.602  1.00  0.00     0.096 A 
HETATM    2  C   UNL     1      42.181 -12.649   3.113  1.00  0.00     0.138 A 
HETATM    3  N   UNL     1      41.741 -12.526   1.817  1.00  0.00    -0.240 N 
HETATM    4  C   UNL     1      41.483 -13.637   0.921  1.00  0.00     0.221 C 
HETATM    5  C   UNL     1      42.220 -14.889   1.425  1.00  0.00     0.066 C 
HETATM    6  C   UNL     1      42.006 -15.082   2.936  1.00  0.00     0.118 C 
HETATM    7  N   UNL     1      42.432 -13.874   3.657  1.00  0.00    -0.365 N 
HETATM    8  N   UNL     1      41.555 -11.259   1.420  1.00  0.00    -0.181 NA
HETATM    9  C   UNL     1      41.834 -10.552   2.519  1.00  0.00     0.160 A 
HETATM   10  H   UNL     1      42.323 -13.981   4.669  1.00  0.00     0.161 HD
ENDROOT
BRANCH   1  11
HETATM   11  C   UNL     1      42.696 -10.880   4.906  1.00  0.00     0.261 C 
HETATM   12  N   UNL     1      41.839  -9.945   5.455  1.00  0.00    -0.323 N 
HETATM   13  H   UNL     1      40.975  -9.800   4.946  1.00  0.00     0.169 HD
HETATM   14  O   UNL     1      43.701 -11.340   5.434  1.00  0.00    -0.267 OA
BRANCH  12  15
HETATM   15  C   UNL     1      41.976  -9.269   6.683  1.00  0.00     0.037 A 
HETATM   16  C   UNL     1      42.001  -9.904   7.926  1.00  0.00     0.066 A 
HETATM   17  C   UNL     1      42.146  -9.153   9.091  1.00  0.00     0.067 A 
HETATM   18  C   UNL     1      42.263  -7.768   9.044  1.00  0.00     0.036 A 
HETATM   19  C   UNL     1      42.243  -7.127   7.807  1.00  0.00     0.005 A 
HETATM   20  C   UNL     1      42.106  -7.874   6.633  1.00  0.00     0.029 A 
BRANCH  17  21
HETATM   21  O   UNL     1      42.173  -9.823  10.279  1.00  0.00    -0.361 OA
HETATM   22  H   UNL     1      41.546  -9.404  10.892  1.00  0.00     0.217 HD
ENDBRANCH  17  21
ENDBRANCH  12  15
ENDBRANCH   1  11
BRANCH   4  23
HETATM   23  C   UNL     1      39.991 -13.865   0.794  1.00  0.00     0.409 C 
HETATM   24  F   UNL     1      39.426 -13.115  -0.177  1.00  0.00    -0.169 F 
HETATM   25  F   UNL     1      39.666 -15.153   0.566  1.00  0.00    -0.169 F 
HETATM   26  F   UNL     1      39.375 -13.514   1.955  1.00  0.00    -0.169 F 
ENDBRANCH   4  23
BRANCH   6  27
HETATM   27  C   UNL     1      42.775 -16.288   3.445  1.00  0.00    -0.035 A 
HETATM   28  C   UNL     1      43.311 -16.324   4.746  1.00  0.00     0.012 A 
HETATM   29  C   UNL     1      44.043 -17.430   5.181  1.00  0.00     0.043 A 
HETATM   30  C   UNL     1      44.247 -18.500   4.319  1.00  0.00     0.116 A 
HETATM   31  F   UNL     1      44.955 -19.558   4.736  1.00  0.00    -0.206 F 
HETATM   32  C   UNL     1      43.732 -18.487   3.030  1.00  0.00     0.043 A 
HETATM   33  C   UNL     1      42.997 -17.383   2.592  1.00  0.00     0.012 A 
ENDBRANCH   6  27
TORSDOF 5
ENDMDL
MODEL 10
REMARK VINA RESULT:      -8.3      3.606      7.202
REMARK  5 active torsions:
REMARK  status: ('A' for Active; 'I' for Inactive)
REMARK    1  A    between atoms: C_3  and  O_4 
REMARK    2  A    between atoms: C_6  and  N_7 
REMARK       I    between atoms: N_7  and  C_8 
REMARK    3  A    between atoms: C_8  and  C_9 
REMARK    4  A    between atoms: C_12  and  C_13 
REMARK    5  A    between atoms: C_18  and  C_19 
ROOT
HETATM    1  C   UNL     1      40.330 -13.423   5.229  1.00  0.00     0.096 A 
HETATM    2  C   UNL     1      40.568 -14.038   4.014  1.00  0.00     0.138 A 
HETATM    3  N   UNL     1      40.866 -15.346   4.313  1.00  0.00    -0.240 N 
HETATM    4  C   UNL     1      41.210 -16.361   3.336  1.00  0.00     0.221 C 
HETATM    5  C   UNL     1      40.720 -15.926   1.944  1.00  0.00     0.066 C 
HETATM    6  C   UNL     1      41.096 -14.460   1.664  1.00  0.00     0.118 C 
HETATM    7  N   UNL     1      40.557 -13.597   2.723  1.00  0.00    -0.365 N 
HETATM    8  N   UNL     1      40.820 -15.633   5.622  1.00  0.00    -0.181 NA
HETATM    9  C   UNL     1      40.536 -14.453   6.181  1.00  0.00     0.160 A 
HETATM   10  H   UNL     1      40.770 -12.611   2.552  1.00  0.00     0.161 HD
ENDROOT
BRANCH   1  11
HETATM   11  C   UNL     1      39.951 -12.051   5.523  1.00  0.00     0.261 C 
HETATM   12  N   UNL     1      40.663 -11.498   6.571  1.00  0.00    -0.323 N 
HETATM   13  H   UNL     1      41.427 -12.066   6.919  1.00  0.00     0.169 HD
HETATM   14  O   UNL     1      39.112 -11.479   4.837  1.00  0.00    -0.267 OA
BRANCH  12  15
HETATM   15  C   UNL     1      40.524 -10.209   7.121  1.00  0.00     0.037 A 
HETATM   16  C   UNL     1      39.483  -9.832   7.971  1.00  0.00     0.066 A 
HETATM   17  C   UNL     1      39.430  -8.532   8.475  1.00  0.00     0.067 A 
HETATM   18  C   UNL     1      40.399  -7.592   8.143  1.00  0.00     0.036 A 
HETATM   19  C   UNL     1      41.443  -7.963   7.299  1.00  0.00     0.005 A 
HETATM   20  C   UNL     1      41.509  -9.266   6.796  1.00  0.00     0.029 A 
BRANCH  17  21
HETATM   21  O   UNL     1      38.396  -8.216   9.307  1.00  0.00    -0.361 OA
HETATM   22  H   UNL     1      38.341  -7.250   9.388  1.00  0.00     0.217 HD
ENDBRANCH  17  21
ENDBRANCH  12  15
ENDBRANCH   1  11
BRANCH   4  23
HETATM   23  C   UNL     1      42.702 -16.621   3.361  1.00  0.00     0.409 C 
HETATM   24  F   UNL     1      43.422 -15.521   3.669  1.00  0.00    -0.169 F 
HETATM   25  F   UNL     1      43.057 -17.602   4.216  1.00  0.00    -0.169 F 
HETATM   26  F   UNL     1      43.117 -17.018   2.128  1.00  0.00    -0.169 F 
ENDBRANCH   4  23
BRANCH   6  27
HETATM   27  C   UNL     1      40.569 -14.012   0.312  1.00  0.00    -0.035 A 
HETATM   28  C   UNL     1      39.744 -14.843  -0.468  1.00  0.00     0.012 A 
HETATM   29  C   UNL     1      39.298 -14.423  -1.723  1.00  0.00     0.043 A 
HETATM   30  C   UNL     1      39.678 -13.176  -2.204  1.00  0.00     0.116 A 
HETATM   31  F   UNL     1      39.255 -12.777  -3.410  1.00  0.00    -0.206 F 
HETATM   32  C   UNL     1      40.494 -12.340  -1.455  1.00  0.00     0.043 A 
HETATM   33  C   UNL     1      40.940 -12.756  -0.199  1.00  0.00     0.012 A 
ENDBRANCH   6  27
TORSDOF 5
ENDMDL
