MODEL 1
REMARK VINA RESULT:      -8.5      0.000      0.000
REMARK  7 active torsions:
REMARK  status: ('A' for Active; 'I' for Inactive)
REMARK    1  A    between atoms: C_7  and  C_8 
REMARK    2  A    between atoms: C_8  and  C_9 
REMARK    3  A    between atoms: C_9  and  C_10 
REMARK    4  A    between atoms: C_10  and  O_11 
REMARK    5  A    between atoms: C_13  and  C_14 
REMARK    6  A    between atoms: C_21  and  C_22 
REMARK       I    between atoms: C_22  and  N_23 
REMARK    7  A    between atoms: N_23  and  C_24 
ROOT
HETATM    1  C   UNL     1      39.396  -9.940   3.493  1.00  0.00     0.070 C 
HETATM    2  C   UNL     1      40.686 -10.670   3.772  1.00  0.00     0.037 C 
HETATM    3  N   UNL     1      41.196 -10.516   5.057  1.00  0.00    -0.192 N 
HETATM    4  C   UNL     1      42.440 -10.901   5.404  1.00  0.00     0.726 A 
HETATM    5  N   UNL     1      43.199 -11.612   4.516  1.00  0.00    -0.083 N 
HETATM    6  N   UNL     1      44.437 -11.843   5.001  1.00  0.00    -0.140 NA
HETATM    7  C   UNL     1      44.345 -11.268   6.208  1.00  0.00     0.166 A 
HETATM    8  N   UNL     1      43.133 -10.682   6.492  1.00  0.00    -0.046 NA
HETATM    9  C   UNL     1      42.745 -11.999   3.175  1.00  0.00     0.202 C 
HETATM   10  C   UNL     1      41.385 -11.384   2.855  1.00  0.00     0.062 C 
HETATM   11  H   UNL     1      40.695  -9.902   5.693  1.00  0.00     0.184 HD
ENDROOT
BRANCH  10  12
HETATM   12  C   UNL     1      40.974 -11.557   1.438  1.00  0.00     0.256 C 
HETATM   13  N   UNL     1      40.143 -12.637   1.236  1.00  0.00    -0.323 N 
HETATM   14  H   UNL     1      39.902 -13.188   2.049  1.00  0.00     0.169 HD
HETATM   15  O   UNL     1      41.429 -10.793   0.597  1.00  0.00    -0.267 OA
BRANCH  13  16
HETATM   16  C   UNL     1      39.582 -13.064   0.014  1.00  0.00     0.035 A 
HETATM   17  C   UNL     1      38.622 -12.341  -0.698  1.00  0.00     0.031 A 
HETATM   18  C   UNL     1      38.109 -12.837  -1.903  1.00  0.00     0.026 A 
HETATM   19  C   UNL     1      38.550 -14.061  -2.395  1.00  0.00     0.034 A 
HETATM   20 CL   UNL     1      37.913 -14.673  -3.871  1.00  0.00    -0.084 Cl
HETATM   21  C   UNL     1      39.505 -14.793  -1.696  1.00  0.00     0.026 A 
HETATM   22  C   UNL     1      40.022 -14.293  -0.497  1.00  0.00     0.031 A 
ENDBRANCH  13  16
ENDBRANCH  10  12
BRANCH   9  23
HETATM   23  C   UNL     1      42.731 -13.520   3.033  1.00  0.00    -0.025 A 
HETATM   24  C   UNL     1      42.026 -14.296   3.969  1.00  0.00     0.052 A 
HETATM   25  C   UNL     1      42.021 -15.683   3.865  1.00  0.00     0.117 A 
HETATM   26  F   UNL     1      41.341 -16.409   4.762  1.00  0.00    -0.206 F 
HETATM   27  C   UNL     1      42.712 -16.328   2.847  1.00  0.00     0.042 A 
HETATM   28  C   UNL     1      43.423 -15.575   1.916  1.00  0.00     0.004 A 
HETATM   29  C   UNL     1      43.436 -14.180   2.009  1.00  0.00     0.010 A 
ENDBRANCH   9  23
BRANCH   7  30
HETATM   30  C   UNL     1      45.474 -11.253   7.173  1.00  0.00     0.085 C 
BRANCH  30  31
HETATM   31  C   UNL     1      45.211 -10.385   8.401  1.00  0.00     0.034 C 
BRANCH  31  32
HETATM   32  C   UNL     1      45.791  -8.982   8.271  1.00  0.00     0.164 C 
BRANCH  32  33
HETATM   33  O   UNL     1      46.971  -9.024   7.476  1.00  0.00    -0.401 OA
HETATM   34  H   UNL     1      46.862  -9.739   6.826  1.00  0.00     0.209 HD
ENDBRANCH  32  33
ENDBRANCH  31  32
ENDBRANCH  30  31
ENDBRANCH   7  30
TORSDOF 7
ENDMDL
MODEL 2
REMARK VINA RESULT:      -8.1      4.015      6.826
REMARK  7 active torsions:
REMARK  status: ('A' for Active; 'I' for Inactive)
REMARK    1  A    between atoms: C_7  and  C_8 
REMARK    2  A    between atoms: C_8  and  C_9 
REMARK    3  A    between atoms: C_9  and  C_10 
REMARK    4  A    between atoms: C_10  and  O_11 
REMARK    5  A    between atoms: C_13  and  C_14 
REMARK    6  A    between atoms: C_21  and  C_22 
REMARK       I    between atoms: C_22  and  N_23 
REMARK    7  A    between atoms: N_23  and  C_24 
ROOT
HETATM    1  C   UNL     1      39.929 -15.479   0.767  1.00  0.00     0.070 C 
HETATM    2  C   UNL     1      40.539 -14.154   1.153  1.00  0.00     0.037 C 
HETATM    3  N   UNL     1      39.776 -13.031   0.850  1.00  0.00    -0.192 N 
HETATM    4  C   UNL     1      40.261 -11.776   0.910  1.00  0.00     0.726 A 
HETATM    5  N   UNL     1      41.505 -11.558   1.434  1.00  0.00    -0.083 N 
HETATM    6  N   UNL     1      41.857 -10.258   1.344  1.00  0.00    -0.140 NA
HETATM    7  C   UNL     1      40.756  -9.739   0.782  1.00  0.00     0.166 A 
HETATM    8  N   UNL     1      39.754 -10.641   0.504  1.00  0.00    -0.046 NA
HETATM    9  C   UNL     1      42.375 -12.621   1.951  1.00  0.00     0.202 C 
HETATM   10  C   UNL     1      41.772 -13.999   1.695  1.00  0.00     0.062 C 
HETATM   11  H   UNL     1      38.896 -13.177   0.362  1.00  0.00     0.184 HD
ENDROOT
BRANCH  10  12
HETATM   12  C   UNL     1      42.702 -15.119   1.995  1.00  0.00     0.256 C 
HETATM   13  N   UNL     1      42.197 -16.020   2.908  1.00  0.00    -0.323 N 
HETATM   14  H   UNL     1      41.272 -15.834   3.272  1.00  0.00     0.169 HD
HETATM   15  O   UNL     1      43.807 -15.120   1.472  1.00  0.00    -0.267 OA
BRANCH  13  16
HETATM   16  C   UNL     1      42.829 -17.183   3.396  1.00  0.00     0.035 A 
HETATM   17  C   UNL     1      43.183 -18.272   2.596  1.00  0.00     0.031 A 
HETATM   18  C   UNL     1      43.803 -19.395   3.157  1.00  0.00     0.026 A 
HETATM   19  C   UNL     1      44.065 -19.433   4.523  1.00  0.00     0.034 A 
HETATM   20 CL   UNL     1      44.819 -20.816   5.214  1.00  0.00    -0.084 Cl
HETATM   21  C   UNL     1      43.718 -18.357   5.332  1.00  0.00     0.026 A 
HETATM   22  C   UNL     1      43.106 -17.233   4.769  1.00  0.00     0.031 A 
ENDBRANCH  13  16
ENDBRANCH  10  12
BRANCH   9  23
HETATM   23  C   UNL     1      42.674 -12.395   3.432  1.00  0.00    -0.025 A 
HETATM   24  C   UNL     1      43.918 -11.864   3.813  1.00  0.00     0.052 A 
HETATM   25  C   UNL     1      44.213 -11.672   5.159  1.00  0.00     0.117 A 
HETATM   26  F   UNL     1      45.402 -11.161   5.506  1.00  0.00    -0.206 F 
HETATM   27  C   UNL     1      43.297 -12.006   6.149  1.00  0.00     0.042 A 
HETATM   28  C   UNL     1      42.064 -12.541   5.789  1.00  0.00     0.004 A 
HETATM   29  C   UNL     1      41.754 -12.739   4.440  1.00  0.00     0.010 A 
ENDBRANCH   9  23
BRANCH   7  30
HETATM   30  C   UNL     1      40.626  -8.292   0.470  1.00  0.00     0.085 C 
BRANCH  30  31
HETATM   31  C   UNL     1      40.764  -7.979  -1.018  1.00  0.00     0.034 C 
BRANCH  31  32
HETATM   32  C   UNL     1      42.081  -8.468  -1.608  1.00  0.00     0.164 C 
BRANCH  32  33
HETATM   33  O   UNL     1      43.152  -8.129  -0.733  1.00  0.00    -0.401 OA
HETATM   34  H   UNL     1      43.546  -8.959  -0.416  1.00  0.00     0.209 HD
ENDBRANCH  32  33
ENDBRANCH  31  32
ENDBRANCH  30  31
ENDBRANCH   7  30
TORSDOF 7
ENDMDL
MODEL 3
REMARK VINA RESULT:      -8.0      3.780      5.978
REMARK  7 active torsions:
REMARK  status: ('A' for Active; 'I' for Inactive)
REMARK    1  A    between atoms: C_7  and  C_8 
REMARK    2  A    between atoms: C_8  and  C_9 
REMARK    3  A    between atoms: C_9  and  C_10 
REMARK    4  A    between atoms: C_10  and  O_11 
REMARK    5  A    between atoms: C_13  and  C_14 
REMARK    6  A    between atoms: C_21  and  C_22 
REMARK       I    between atoms: C_22  and  N_23 
REMARK    7  A    between atoms: N_23  and  C_24 
ROOT
HETATM    1  C   UNL     1      43.382 -13.708   7.011  1.00  0.00     0.070 C 
HETATM    2  C   UNL     1      42.263 -13.135   6.177  1.00  0.00     0.037 C 
HETATM    3  N   UNL     1      41.998 -11.784   6.377  1.00  0.00    -0.192 N 
HETATM    4  C   UNL     1      40.898 -11.174   5.896  1.00  0.00     0.726 A 
HETATM    5  N   UNL     1      40.068 -11.850   5.045  1.00  0.00    -0.083 N 
HETATM    6  N   UNL     1      38.982 -11.115   4.728  1.00  0.00    -0.140 NA
HETATM    7  C   UNL     1      39.239  -9.984   5.400  1.00  0.00     0.166 A 
HETATM    8  N   UNL     1      40.408  -9.983   6.126  1.00  0.00    -0.046 NA
HETATM    9  C   UNL     1      40.295 -13.232   4.604  1.00  0.00     0.202 C 
HETATM   10  C   UNL     1      41.486 -13.852   5.327  1.00  0.00     0.062 C 
HETATM   11  H   UNL     1      42.539 -11.297   7.087  1.00  0.00     0.184 HD
ENDROOT
BRANCH  10  12
HETATM   12  C   UNL     1      41.632 -15.311   5.089  1.00  0.00     0.256 C 
HETATM   13  N   UNL     1      42.672 -15.627   4.242  1.00  0.00    -0.323 N 
HETATM   14  H   UNL     1      43.217 -14.856   3.878  1.00  0.00     0.169 HD
HETATM   15  O   UNL     1      40.822 -16.073   5.599  1.00  0.00    -0.267 OA
BRANCH  13  16
HETATM   16  C   UNL     1      43.070 -16.914   3.823  1.00  0.00     0.035 A 
HETATM   17  C   UNL     1      43.957 -17.726   4.533  1.00  0.00     0.031 A 
HETATM   18  C   UNL     1      44.306 -18.992   4.047  1.00  0.00     0.026 A 
HETATM   19  C   UNL     1      43.774 -19.445   2.844  1.00  0.00     0.034 A 
HETATM   20 CL   UNL     1      44.211 -20.997   2.243  1.00  0.00    -0.084 Cl
HETATM   21  C   UNL     1      42.890 -18.647   2.125  1.00  0.00     0.026 A 
HETATM   22  C   UNL     1      42.536 -17.387   2.617  1.00  0.00     0.031 A 
ENDBRANCH  13  16
ENDBRANCH  10  12
BRANCH   9  23
HETATM   23  C   UNL     1      40.456 -13.290   3.086  1.00  0.00    -0.025 A 
HETATM   24  C   UNL     1      39.913 -14.373   2.374  1.00  0.00     0.052 A 
HETATM   25  C   UNL     1      40.070 -14.451   0.994  1.00  0.00     0.117 A 
HETATM   26  F   UNL     1      39.543 -15.488   0.329  1.00  0.00    -0.206 F 
HETATM   27  C   UNL     1      40.765 -13.472   0.295  1.00  0.00     0.042 A 
HETATM   28  C   UNL     1      41.316 -12.397   0.986  1.00  0.00     0.004 A 
HETATM   29  C   UNL     1      41.167 -12.306   2.373  1.00  0.00     0.010 A 
ENDBRANCH   9  23
BRANCH   7  30
HETATM   30  C   UNL     1      38.324  -8.814   5.374  1.00  0.00     0.085 C 
BRANCH  30  31
HETATM   31  C   UNL     1      39.018  -7.495   5.703  1.00  0.00     0.034 C 
BRANCH  31  32
HETATM   32  C   UNL     1      38.577  -6.909   7.040  1.00  0.00     0.164 C 
BRANCH  32  33
HETATM   33  O   UNL     1      38.672  -7.905   8.052  1.00  0.00    -0.401 OA
HETATM   34  H   UNL     1      38.426  -8.756   7.651  1.00  0.00     0.209 HD
ENDBRANCH  32  33
ENDBRANCH  31  32
ENDBRANCH  30  31
ENDBRANCH   7  30
TORSDOF 7
ENDMDL
MODEL 4
REMARK VINA RESULT:      -7.8      4.295      7.037
REMARK  7 active torsions:
REMARK  status: ('A' for Active; 'I' for Inactive)
REMARK    1  A    between atoms: C_7  and  C_8 
REMARK    2  A    between atoms: C_8  and  C_9 
REMARK    3  A    between atoms: C_9  and  C_10 
REMARK    4  A    between atoms: C_10  and  O_11 
REMARK    5  A    between atoms: C_13  and  C_14 
REMARK    6  A    between atoms: C_21  and  C_22 
REMARK       I    between atoms: C_22  and  N_23 
REMARK    7  A    between atoms: N_23  and  C_24 
ROOT
HETATM    1  C   UNL     1      39.475 -14.484  -1.277  1.00  0.00     0.070 C 
HETATM    2  C   UNL     1      40.086 -13.187  -0.808  1.00  0.00     0.037 C 
HETATM    3  N   UNL     1      40.029 -12.135  -1.715  1.00  0.00    -0.192 N 
HETATM    4  C   UNL     1      40.721 -10.990  -1.556  1.00  0.00     0.726 A 
HETATM    5  N   UNL     1      41.397 -10.767  -0.388  1.00  0.00    -0.083 N 
HETATM    6  N   UNL     1      42.094  -9.612  -0.435  1.00  0.00    -0.140 NA
HETATM    7  C   UNL     1      41.764  -9.169  -1.657  1.00  0.00     0.166 A 
HETATM    8  N   UNL     1      40.921  -9.988  -2.372  1.00  0.00    -0.046 NA
HETATM    9  C   UNL     1      41.423 -11.709   0.737  1.00  0.00     0.202 C 
HETATM   10  C   UNL     1      40.724 -13.017   0.377  1.00  0.00     0.062 C 
HETATM   11  H   UNL     1      39.624 -12.321  -2.629  1.00  0.00     0.184 HD
ENDROOT
BRANCH  10  12
HETATM   12  C   UNL     1      40.907 -14.087   1.391  1.00  0.00     0.256 C 
HETATM   13  N   UNL     1      42.191 -14.585   1.436  1.00  0.00    -0.323 N 
HETATM   14  H   UNL     1      42.862 -14.184   0.793  1.00  0.00     0.169 HD
HETATM   15  O   UNL     1      39.936 -14.458   2.035  1.00  0.00    -0.267 OA
BRANCH  13  16
HETATM   16  C   UNL     1      42.683 -15.598   2.285  1.00  0.00     0.035 A 
HETATM   17  C   UNL     1      43.006 -15.401   3.629  1.00  0.00     0.031 A 
HETATM   18  C   UNL     1      43.495 -16.458   4.406  1.00  0.00     0.026 A 
HETATM   19  C   UNL     1      43.669 -17.716   3.837  1.00  0.00     0.034 A 
HETATM   20 CL   UNL     1      44.278 -19.012   4.790  1.00  0.00    -0.084 Cl
HETATM   21  C   UNL     1      43.352 -17.928   2.499  1.00  0.00     0.026 A 
HETATM   22  C   UNL     1      42.857 -16.873   1.727  1.00  0.00     0.031 A 
ENDBRANCH  13  16
ENDBRANCH  10  12
BRANCH   9  23
HETATM   23  C   UNL     1      40.822 -11.067   1.987  1.00  0.00    -0.025 A 
HETATM   24  C   UNL     1      41.658 -10.756   3.073  1.00  0.00     0.052 A 
HETATM   25  C   UNL     1      41.123 -10.191   4.226  1.00  0.00     0.117 A 
HETATM   26  F   UNL     1      41.932  -9.896   5.252  1.00  0.00    -0.206 F 
HETATM   27  C   UNL     1      39.762  -9.929   4.333  1.00  0.00     0.042 A 
HETATM   28  C   UNL     1      38.919 -10.240   3.269  1.00  0.00     0.004 A 
HETATM   29  C   UNL     1      39.444 -10.808   2.104  1.00  0.00     0.010 A 
ENDBRANCH   9  23
BRANCH   7  30
HETATM   30  C   UNL     1      42.278  -7.889  -2.207  1.00  0.00     0.085 C 
BRANCH  30  31
HETATM   31  C   UNL     1      43.143  -7.110  -1.220  1.00  0.00     0.034 C 
BRANCH  31  32
HETATM   32  C   UNL     1      43.530  -5.727  -1.732  1.00  0.00     0.164 C 
BRANCH  32  33
HETATM   33  O   UNL     1      44.945  -5.645  -1.864  1.00  0.00    -0.401 OA
HETATM   34  H   UNL     1      45.177  -5.971  -2.751  1.00  0.00     0.209 HD
ENDBRANCH  32  33
ENDBRANCH  31  32
ENDBRANCH  30  31
ENDBRANCH   7  30
TORSDOF 7
ENDMDL
MODEL 5
REMARK VINA RESULT:      -7.7      3.903      8.827
REMARK  7 active torsions:
REMARK  status: ('A' for Active; 'I' for Inactive)
REMARK    1  A    between atoms: C_7  and  C_8 
REMARK    2  A    between atoms: C_8  and  C_9 
REMARK    3  A    between atoms: C_9  and  C_10 
REMARK    4  A    between atoms: C_10  and  O_11 
REMARK    5  A    between atoms: C_13  and  C_14 
REMARK    6  A    between atoms: C_21  and  C_22 
REMARK       I    between atoms: C_22  and  N_23 
REMARK    7  A    between atoms: N_23  and  C_24 
ROOT
HETATM    1  C   UNL     1      43.122 -15.115   3.897  1.00  0.00     0.070 C 
HETATM    2  C   UNL     1      42.290 -14.167   3.070  1.00  0.00     0.037 C 
HETATM    3  N   UNL     1      41.411 -14.765   2.174  1.00  0.00    -0.192 N 
HETATM    4  C   UNL     1      40.770 -14.082   1.206  1.00  0.00     0.726 A 
HETATM    5  N   UNL     1      40.853 -12.717   1.176  1.00  0.00    -0.083 N 
HETATM    6  N   UNL     1      40.218 -12.208   0.100  1.00  0.00    -0.140 NA
HETATM    7  C   UNL     1      39.742 -13.328  -0.463  1.00  0.00     0.166 A 
HETATM    8  N   UNL     1      40.058 -14.497   0.191  1.00  0.00    -0.046 NA
HETATM    9  C   UNL     1      41.610 -11.920   2.149  1.00  0.00     0.202 C 
HETATM   10  C   UNL     1      42.399 -12.815   3.100  1.00  0.00     0.062 C 
HETATM   11  H   UNL     1      41.418 -15.780   2.112  1.00  0.00     0.184 HD
ENDROOT
BRANCH  10  12
HETATM   12  C   UNL     1      43.353 -12.071   3.963  1.00  0.00     0.256 C 
HETATM   13  N   UNL     1      42.985 -12.045   5.290  1.00  0.00    -0.323 N 
HETATM   14  H   UNL     1      42.127 -12.521   5.538  1.00  0.00     0.169 HD
HETATM   15  O   UNL     1      44.313 -11.523   3.440  1.00  0.00    -0.267 OA
BRANCH  13  16
HETATM   16  C   UNL     1      43.674 -11.426   6.354  1.00  0.00     0.035 A 
HETATM   17  C   UNL     1      45.012 -11.678   6.668  1.00  0.00     0.031 A 
HETATM   18  C   UNL     1      45.624 -11.026   7.745  1.00  0.00     0.026 A 
HETATM   19  C   UNL     1      44.897 -10.125   8.516  1.00  0.00     0.034 A 
HETATM   20 CL   UNL     1      45.648  -9.331   9.845  1.00  0.00    -0.084 Cl
HETATM   21  C   UNL     1      43.564  -9.864   8.216  1.00  0.00     0.026 A 
HETATM   22  C   UNL     1      42.956 -10.510   7.135  1.00  0.00     0.031 A 
ENDBRANCH  13  16
ENDBRANCH  10  12
BRANCH   9  23
HETATM   23  C   UNL     1      40.680 -10.969   2.902  1.00  0.00    -0.025 A 
HETATM   24  C   UNL     1      40.863  -9.581   2.778  1.00  0.00     0.052 A 
HETATM   25  C   UNL     1      40.038  -8.703   3.473  1.00  0.00     0.117 A 
HETATM   26  F   UNL     1      40.222  -7.383   3.342  1.00  0.00    -0.206 F 
HETATM   27  C   UNL     1      39.027  -9.173   4.303  1.00  0.00     0.042 A 
HETATM   28  C   UNL     1      38.838 -10.545   4.444  1.00  0.00     0.004 A 
HETATM   29  C   UNL     1      39.660 -11.439   3.750  1.00  0.00     0.010 A 
ENDBRANCH   9  23
BRANCH   7  30
HETATM   30  C   UNL     1      38.935 -13.313  -1.711  1.00  0.00     0.085 C 
BRANCH  30  31
HETATM   31  C   UNL     1      39.423 -14.311  -2.758  1.00  0.00     0.034 C 
BRANCH  31  32
HETATM   32  C   UNL     1      38.335 -15.282  -3.204  1.00  0.00     0.164 C 
BRANCH  32  33
HETATM   33  O   UNL     1      38.300 -16.399  -2.322  1.00  0.00    -0.401 OA
HETATM   34  H   UNL     1      38.163 -17.196  -2.862  1.00  0.00     0.209 HD
ENDBRANCH  32  33
ENDBRANCH  31  32
ENDBRANCH  30  31
ENDBRANCH   7  30
TORSDOF 7
ENDMDL
MODEL 6
REMARK VINA RESULT:      -7.7     17.422     19.822
REMARK  7 active torsions:
REMARK  status: ('A' for Active; 'I' for Inactive)
REMARK    1  A    between atoms: C_7  and  C_8 
REMARK    2  A    between atoms: C_8  and  C_9 
REMARK    3  A    between atoms: C_9  and  C_10 
REMARK    4  A    between atoms: C_10  and  O_11 
REMARK    5  A    between atoms: C_13  and  C_14 
REMARK    6  A    between atoms: C_21  and  C_22 
REMARK       I    between atoms: C_22  and  N_23 
REMARK    7  A    between atoms: N_23  and  C_24 
ROOT
HETATM    1  C   UNL     1      48.026 -28.122   2.469  1.00  0.00     0.070 C 
HETATM    2  C   UNL     1      46.901 -28.766   1.697  1.00  0.00     0.037 C 
HETATM    3  N   UNL     1      45.648 -28.704   2.299  1.00  0.00    -0.192 N 
HETATM    4  C   UNL     1      44.591 -29.419   1.868  1.00  0.00     0.726 A 
HETATM    5  N   UNL     1      44.685 -30.127   0.702  1.00  0.00    -0.083 N 
HETATM    6  N   UNL     1      43.564 -30.842   0.468  1.00  0.00    -0.140 NA
HETATM    7  C   UNL     1      42.816 -30.489   1.523  1.00  0.00     0.166 A 
HETATM    8  N   UNL     1      43.413 -29.614   2.402  1.00  0.00    -0.046 NA
HETATM    9  C   UNL     1      45.887 -30.166  -0.139  1.00  0.00     0.202 C 
HETATM   10  C   UNL     1      47.050 -29.437   0.527  1.00  0.00     0.062 C 
HETATM   11  H   UNL     1      45.587 -28.273   3.217  1.00  0.00     0.184 HD
ENDROOT
BRANCH  10  12
HETATM   12  C   UNL     1      48.349 -29.628  -0.169  1.00  0.00     0.256 C 
HETATM   13  N   UNL     1      48.999 -30.787   0.194  1.00  0.00    -0.323 N 
HETATM   14  H   UNL     1      48.541 -31.376   0.877  1.00  0.00     0.169 HD
HETATM   15  O   UNL     1      48.740 -28.755  -0.931  1.00  0.00    -0.267 OA
BRANCH  13  16
HETATM   16  C   UNL     1      50.241 -31.253  -0.285  1.00  0.00     0.035 A 
HETATM   17  C   UNL     1      50.863 -30.771  -1.439  1.00  0.00     0.031 A 
HETATM   18  C   UNL     1      52.096 -31.290  -1.853  1.00  0.00     0.026 A 
HETATM   19  C   UNL     1      52.707 -32.299  -1.116  1.00  0.00     0.034 A 
HETATM   20 CL   UNL     1      54.217 -32.942  -1.629  1.00  0.00    -0.084 Cl
HETATM   21  C   UNL     1      52.100 -32.790   0.035  1.00  0.00     0.026 A 
HETATM   22  C   UNL     1      50.872 -32.265   0.451  1.00  0.00     0.031 A 
ENDBRANCH  13  16
ENDBRANCH  10  12
BRANCH   9  23
HETATM   23  C   UNL     1      45.586 -29.608  -1.529  1.00  0.00    -0.025 A 
HETATM   24  C   UNL     1      45.620 -30.467  -2.641  1.00  0.00     0.052 A 
HETATM   25  C   UNL     1      45.369 -29.970  -3.916  1.00  0.00     0.117 A 
HETATM   26  F   UNL     1      45.400 -30.802  -4.966  1.00  0.00    -0.206 F 
HETATM   27  C   UNL     1      45.088 -28.624  -4.119  1.00  0.00     0.042 A 
HETATM   28  C   UNL     1      45.060 -27.758  -3.029  1.00  0.00     0.004 A 
HETATM   29  C   UNL     1      45.310 -28.244  -1.742  1.00  0.00     0.010 A 
ENDBRANCH   9  23
BRANCH   7  30
HETATM   30  C   UNL     1      41.442 -31.010   1.737  1.00  0.00     0.085 C 
BRANCH  30  31
HETATM   31  C   UNL     1      41.299 -31.831   3.016  1.00  0.00     0.034 C 
BRANCH  31  32
HETATM   32  C   UNL     1      40.657 -31.048   4.156  1.00  0.00     0.164 C 
BRANCH  32  33
HETATM   33  O   UNL     1      41.640 -30.236   4.789  1.00  0.00    -0.401 OA
HETATM   34  H   UNL     1      41.227 -29.831   5.571  1.00  0.00     0.209 HD
ENDBRANCH  32  33
ENDBRANCH  31  32
ENDBRANCH  30  31
ENDBRANCH   7  30
TORSDOF 7
ENDMDL
MODEL 7
REMARK VINA RESULT:      -7.5      4.474      7.549
REMARK  7 active torsions:
REMARK  status: ('A' for Active; 'I' for Inactive)
REMARK    1  A    between atoms: C_7  and  C_8 
REMARK    2  A    between atoms: C_8  and  C_9 
REMARK    3  A    between atoms: C_9  and  C_10 
REMARK    4  A    between atoms: C_10  and  O_11 
REMARK    5  A    between atoms: C_13  and  C_14 
REMARK    6  A    between atoms: C_21  and  C_22 
REMARK       I    between atoms: C_22  and  N_23 
REMARK    7  A    between atoms: N_23  and  C_24 
ROOT
HETATM    1  C   UNL     1      38.690 -12.672   2.682  1.00  0.00     0.070 C 
HETATM    2  C   UNL     1      39.915 -13.330   3.268  1.00  0.00     0.037 C 
HETATM    3  N   UNL     1      40.487 -14.332   2.491  1.00  0.00    -0.192 N 
HETATM    4  C   UNL     1      41.432 -15.172   2.956  1.00  0.00     0.726 A 
HETATM    5  N   UNL     1      41.977 -14.956   4.191  1.00  0.00    -0.083 N 
HETATM    6  N   UNL     1      42.846 -15.935   4.524  1.00  0.00    -0.140 NA
HETATM    7  C   UNL     1      42.800 -16.696   3.421  1.00  0.00     0.166 A 
HETATM    8  N   UNL     1      41.946 -16.256   2.436  1.00  0.00    -0.046 NA
HETATM    9  C   UNL     1      41.599 -13.845   5.072  1.00  0.00     0.202 C 
HETATM   10  C   UNL     1      40.428 -13.057   4.493  1.00  0.00     0.062 C 
HETATM   11  H   UNL     1      40.025 -14.573   1.618  1.00  0.00     0.184 HD
ENDROOT
BRANCH  10  12
HETATM   12  C   UNL     1      39.858 -12.060   5.437  1.00  0.00     0.256 C 
HETATM   13  N   UNL     1      40.294 -10.774   5.203  1.00  0.00    -0.323 N 
HETATM   14  H   UNL     1      40.939 -10.640   4.435  1.00  0.00     0.169 HD
HETATM   15  O   UNL     1      39.125 -12.453   6.334  1.00  0.00    -0.267 OA
BRANCH  13  16
HETATM   16  C   UNL     1      39.938  -9.611   5.917  1.00  0.00     0.035 A 
HETATM   17  C   UNL     1      38.903  -8.751   5.542  1.00  0.00     0.031 A 
HETATM   18  C   UNL     1      38.615  -7.611   6.303  1.00  0.00     0.026 A 
HETATM   19  C   UNL     1      39.366  -7.325   7.438  1.00  0.00     0.034 A 
HETATM   20 CL   UNL     1      39.017  -5.920   8.367  1.00  0.00    -0.084 Cl
HETATM   21  C   UNL     1      40.400  -8.172   7.824  1.00  0.00     0.026 A 
HETATM   22  C   UNL     1      40.682  -9.314   7.068  1.00  0.00     0.031 A 
ENDBRANCH  13  16
ENDBRANCH  10  12
BRANCH   9  23
HETATM   23  C   UNL     1      42.805 -12.950   5.353  1.00  0.00    -0.025 A 
HETATM   24  C   UNL     1      43.219 -12.744   6.680  1.00  0.00     0.052 A 
HETATM   25  C   UNL     1      44.303 -11.915   6.953  1.00  0.00     0.117 A 
HETATM   26  F   UNL     1      44.689 -11.732   8.222  1.00  0.00    -0.206 F 
HETATM   27  C   UNL     1      44.990 -11.271   5.930  1.00  0.00     0.042 A 
HETATM   28  C   UNL     1      44.587 -11.457   4.611  1.00  0.00     0.004 A 
HETATM   29  C   UNL     1      43.499 -12.288   4.322  1.00  0.00     0.010 A 
ENDBRANCH   9  23
BRANCH   7  30
HETATM   30  C   UNL     1      43.609 -17.933   3.272  1.00  0.00     0.085 C 
BRANCH  30  31
HETATM   31  C   UNL     1      43.042 -18.905   2.241  1.00  0.00     0.034 C 
BRANCH  31  32
HETATM   32  C   UNL     1      43.607 -20.314   2.380  1.00  0.00     0.164 C 
BRANCH  32  33
HETATM   33  O   UNL     1      43.479 -21.005   1.142  1.00  0.00    -0.401 OA
HETATM   34  H   UNL     1      43.760 -20.397   0.436  1.00  0.00     0.209 HD
ENDBRANCH  32  33
ENDBRANCH  31  32
ENDBRANCH  30  31
ENDBRANCH   7  30
TORSDOF 7
ENDMDL
MODEL 8
REMARK VINA RESULT:      -7.5      3.756      6.102
REMARK  7 active torsions:
REMARK  status: ('A' for Active; 'I' for Inactive)
REMARK    1  A    between atoms: C_7  and  C_8 
REMARK    2  A    between atoms: C_8  and  C_9 
REMARK    3  A    between atoms: C_9  and  C_10 
REMARK    4  A    between atoms: C_10  and  O_11 
REMARK    5  A    between atoms: C_13  and  C_14 
REMARK    6  A    between atoms: C_21  and  C_22 
REMARK       I    between atoms: C_22  and  N_23 
REMARK    7  A    between atoms: N_23  and  C_24 
ROOT
HETATM    1  C   UNL     1      44.310 -13.068   6.814  1.00  0.00     0.070 C 
HETATM    2  C   UNL     1      43.050 -12.412   6.306  1.00  0.00     0.037 C 
HETATM    3  N   UNL     1      42.927 -11.055   6.584  1.00  0.00    -0.192 N 
HETATM    4  C   UNL     1      41.779 -10.371   6.413  1.00  0.00     0.726 A 
HETATM    5  N   UNL     1      40.718 -10.978   5.800  1.00  0.00    -0.083 N 
HETATM    6  N   UNL     1      39.633 -10.175   5.784  1.00  0.00    -0.140 NA
HETATM    7  C   UNL     1      40.124  -9.078   6.379  1.00  0.00     0.166 A 
HETATM    8  N   UNL     1      41.439  -9.161   6.775  1.00  0.00    -0.046 NA
HETATM    9  C   UNL     1      40.739 -12.357   5.299  1.00  0.00     0.202 C 
HETATM   10  C   UNL     1      42.037 -13.062   5.680  1.00  0.00     0.062 C 
HETATM   11  H   UNL     1      43.662 -10.617   7.133  1.00  0.00     0.184 HD
ENDROOT
BRANCH  10  12
HETATM   12  C   UNL     1      42.028 -14.520   5.395  1.00  0.00     0.256 C 
HETATM   13  N   UNL     1      42.884 -14.886   4.380  1.00  0.00    -0.323 N 
HETATM   14  H   UNL     1      43.419 -14.147   3.942  1.00  0.00     0.169 HD
HETATM   15  O   UNL     1      41.257 -15.235   6.021  1.00  0.00    -0.267 OA
BRANCH  13  16
HETATM   16  C   UNL     1      43.105 -16.185   3.878  1.00  0.00     0.035 A 
HETATM   17  C   UNL     1      42.534 -16.674   2.700  1.00  0.00     0.031 A 
HETATM   18  C   UNL     1      42.799 -17.980   2.270  1.00  0.00     0.026 A 
HETATM   19  C   UNL     1      43.631 -18.803   3.022  1.00  0.00     0.034 A 
HETATM   20 CL   UNL     1      43.948 -20.411   2.498  1.00  0.00    -0.084 Cl
HETATM   21  C   UNL     1      44.206 -18.331   4.197  1.00  0.00     0.026 A 
HETATM   22  C   UNL     1      43.947 -17.024   4.621  1.00  0.00     0.031 A 
ENDBRANCH  13  16
ENDBRANCH  10  12
BRANCH   9  23
HETATM   23  C   UNL     1      40.497 -12.384   3.791  1.00  0.00    -0.025 A 
HETATM   24  C   UNL     1      41.341 -11.647   2.942  1.00  0.00     0.052 A 
HETATM   25  C   UNL     1      41.120 -11.645   1.569  1.00  0.00     0.117 A 
HETATM   26  F   UNL     1      41.936 -10.942   0.772  1.00  0.00    -0.206 F 
HETATM   27  C   UNL     1      40.066 -12.357   1.010  1.00  0.00     0.042 A 
HETATM   28  C   UNL     1      39.215 -13.084   1.837  1.00  0.00     0.004 A 
HETATM   29  C   UNL     1      39.426 -13.096   3.220  1.00  0.00     0.010 A 
ENDBRANCH   9  23
BRANCH   7  30
HETATM   30  C   UNL     1      39.306  -7.859   6.605  1.00  0.00     0.085 C 
BRANCH  30  31
HETATM   31  C   UNL     1      38.881  -7.168   5.312  1.00  0.00     0.034 C 
BRANCH  31  32
HETATM   32  C   UNL     1      37.379  -7.246   5.064  1.00  0.00     0.164 C 
BRANCH  32  33
HETATM   33  O   UNL     1      36.929  -8.580   5.271  1.00  0.00    -0.401 OA
HETATM   34  H   UNL     1      37.609  -9.178   4.915  1.00  0.00     0.209 HD
ENDBRANCH  32  33
ENDBRANCH  31  32
ENDBRANCH  30  31
ENDBRANCH   7  30
TORSDOF 7
ENDMDL
MODEL 9
REMARK VINA RESULT:      -7.2      8.687     13.476
REMARK  7 active torsions:
REMARK  status: ('A' for Active; 'I' for Inactive)
REMARK    1  A    between atoms: C_7  and  C_8 
REMARK    2  A    between atoms: C_8  and  C_9 
REMARK    3  A    between atoms: C_9  and  C_10 
REMARK    4  A    between atoms: C_10  and  O_11 
REMARK    5  A    between atoms: C_13  and  C_14 
REMARK    6  A    between atoms: C_21  and  C_22 
REMARK       I    between atoms: C_22  and  N_23 
REMARK    7  A    between atoms: N_23  and  C_24 
ROOT
HETATM    1  C   UNL     1      39.665 -10.445  13.198  1.00  0.00     0.070 C 
HETATM    2  C   UNL     1      40.872  -9.734  12.637  1.00  0.00     0.037 C 
HETATM    3  N   UNL     1      41.519 -10.385  11.592  1.00  0.00    -0.192 N 
HETATM    4  C   UNL     1      42.731 -10.014  11.135  1.00  0.00     0.726 A 
HETATM    5  N   UNL     1      43.303  -8.862  11.598  1.00  0.00    -0.083 N 
HETATM    6  N   UNL     1      44.542  -8.690  11.092  1.00  0.00    -0.140 NA
HETATM    7  C   UNL     1      44.642  -9.767  10.300  1.00  0.00     0.166 A 
HETATM    8  N   UNL     1      43.547 -10.600  10.298  1.00  0.00    -0.046 NA
HETATM    9  C   UNL     1      42.675  -7.973  12.583  1.00  0.00     0.202 C 
HETATM   10  C   UNL     1      41.382  -8.575  13.123  1.00  0.00     0.062 C 
HETATM   11  H   UNL     1      41.164 -11.296  11.312  1.00  0.00     0.184 HD
ENDROOT
BRANCH  10  12
HETATM   12  C   UNL     1      40.817  -7.831  14.278  1.00  0.00     0.256 C 
HETATM   13  N   UNL     1      41.608  -7.885  15.405  1.00  0.00    -0.323 N 
HETATM   14  H   UNL     1      42.470  -8.411  15.335  1.00  0.00     0.169 HD
HETATM   15  O   UNL     1      39.721  -7.300  14.156  1.00  0.00    -0.267 OA
BRANCH  13  16
HETATM   16  C   UNL     1      41.354  -7.284  16.656  1.00  0.00     0.035 A 
HETATM   17  C   UNL     1      41.835  -6.028  17.030  1.00  0.00     0.031 A 
HETATM   18  C   UNL     1      41.542  -5.502  18.294  1.00  0.00     0.026 A 
HETATM   19  C   UNL     1      40.772  -6.236  19.190  1.00  0.00     0.034 A 
HETATM   20 CL   UNL     1      40.420  -5.592  20.746  1.00  0.00    -0.084 Cl
HETATM   21  C   UNL     1      40.286  -7.489  18.832  1.00  0.00     0.026 A 
HETATM   22  C   UNL     1      40.573  -8.009  17.566  1.00  0.00     0.031 A 
ENDBRANCH  13  16
ENDBRANCH  10  12
BRANCH   9  23
HETATM   23  C   UNL     1      42.453  -6.584  11.987  1.00  0.00    -0.025 A 
HETATM   24  C   UNL     1      42.163  -6.458  10.617  1.00  0.00     0.052 A 
HETATM   25  C   UNL     1      41.978  -5.199  10.055  1.00  0.00     0.117 A 
HETATM   26  F   UNL     1      41.698  -5.095   8.749  1.00  0.00    -0.206 F 
HETATM   27  C   UNL     1      42.083  -4.047  10.826  1.00  0.00     0.042 A 
HETATM   28  C   UNL     1      42.379  -4.154  12.182  1.00  0.00     0.004 A 
HETATM   29  C   UNL     1      42.566  -5.414  12.760  1.00  0.00     0.010 A 
ENDBRANCH   9  23
BRANCH   7  30
HETATM   30  C   UNL     1      45.852 -10.048   9.485  1.00  0.00     0.085 C 
BRANCH  30  31
HETATM   31  C   UNL     1      45.628  -9.864   7.987  1.00  0.00     0.034 C 
BRANCH  31  32
HETATM   32  C   UNL     1      45.489 -11.186   7.240  1.00  0.00     0.164 C 
BRANCH  32  33
HETATM   33  O   UNL     1      44.177 -11.705   7.428  1.00  0.00    -0.401 OA
HETATM   34  H   UNL     1      44.262 -12.655   7.616  1.00  0.00     0.209 HD
ENDBRANCH  32  33
ENDBRANCH  31  32
ENDBRANCH  30  31
ENDBRANCH   7  30
TORSDOF 7
ENDMDL
MODEL 10
REMARK VINA RESULT:      -7.1      5.043      8.147
REMARK  7 active torsions:
REMARK  status: ('A' for Active; 'I' for Inactive)
REMARK    1  A    between atoms: C_7  and  C_8 
REMARK    2  A    between atoms: C_8  and  C_9 
REMARK    3  A    between atoms: C_9  and  C_10 
REMARK    4  A    between atoms: C_10  and  O_11 
REMARK    5  A    between atoms: C_13  and  C_14 
REMARK    6  A    between atoms: C_21  and  C_22 
REMARK       I    between atoms: C_22  and  N_23 
REMARK    7  A    between atoms: N_23  and  C_24 
ROOT
HETATM    1  C   UNL     1      40.063  -9.836   3.968  1.00  0.00     0.070 C 
HETATM    2  C   UNL     1      40.955 -10.898   4.562  1.00  0.00     0.037 C 
HETATM    3  N   UNL     1      41.154 -12.025   3.772  1.00  0.00    -0.192 N 
HETATM    4  C   UNL     1      41.724 -13.154   4.235  1.00  0.00     0.726 A 
HETATM    5  N   UNL     1      42.274 -13.169   5.486  1.00  0.00    -0.083 N 
HETATM    6  N   UNL     1      42.727 -14.398   5.811  1.00  0.00    -0.140 NA
HETATM    7  C   UNL     1      42.445 -15.074   4.689  1.00  0.00     0.166 A 
HETATM    8  N   UNL     1      41.832 -14.342   3.698  1.00  0.00    -0.046 NA
HETATM    9  C   UNL     1      42.293 -12.011   6.387  1.00  0.00     0.202 C 
HETATM   10  C   UNL     1      41.496 -10.847   5.805  1.00  0.00     0.062 C 
HETATM   11  H   UNL     1      40.662 -12.071   2.884  1.00  0.00     0.184 HD
ENDROOT
BRANCH  10  12
HETATM   12  C   UNL     1      41.293  -9.728   6.762  1.00  0.00     0.256 C 
HETATM   13  N   UNL     1      40.536 -10.076   7.859  1.00  0.00    -0.323 N 
HETATM   14  H   UNL     1      40.204 -11.031   7.903  1.00  0.00     0.169 HD
HETATM   15  O   UNL     1      41.748  -8.627   6.483  1.00  0.00    -0.267 OA
BRANCH  13  16
HETATM   16  C   UNL     1      40.169  -9.247   8.939  1.00  0.00     0.035 A 
HETATM   17  C   UNL     1      40.842  -9.218  10.163  1.00  0.00     0.031 A 
HETATM   18  C   UNL     1      40.412  -8.369  11.190  1.00  0.00     0.026 A 
HETATM   19  C   UNL     1      39.302  -7.552  10.998  1.00  0.00     0.034 A 
HETATM   20 CL   UNL     1      38.769  -6.516  12.264  1.00  0.00    -0.084 Cl
HETATM   21  C   UNL     1      38.622  -7.571   9.785  1.00  0.00     0.026 A 
HETATM   22  C   UNL     1      39.057  -8.413   8.757  1.00  0.00     0.031 A 
ENDBRANCH  13  16
ENDBRANCH  10  12
BRANCH   9  23
HETATM   23  C   UNL     1      43.730 -11.610   6.716  1.00  0.00    -0.025 A 
HETATM   24  C   UNL     1      44.058 -11.226   8.028  1.00  0.00     0.052 A 
HETATM   25  C   UNL     1      45.357 -10.838   8.338  1.00  0.00     0.117 A 
HETATM   26  F   UNL     1      45.656 -10.479   9.593  1.00  0.00    -0.206 F 
HETATM   27  C   UNL     1      46.350 -10.816   7.366  1.00  0.00     0.042 A 
HETATM   28  C   UNL     1      46.040 -11.185   6.060  1.00  0.00     0.004 A 
HETATM   29  C   UNL     1      44.738 -11.577   5.735  1.00  0.00     0.010 A 
ENDBRANCH   9  23
BRANCH   7  30
HETATM   30  C   UNL     1      42.762 -16.516   4.524  1.00  0.00     0.085 C 
BRANCH  30  31
HETATM   31  C   UNL     1      43.857 -17.006   5.469  1.00  0.00     0.034 C 
BRANCH  31  32
HETATM   32  C   UNL     1      43.305 -17.728   6.693  1.00  0.00     0.164 C 
BRANCH  32  33
HETATM   33  O   UNL     1      43.087 -16.791   7.742  1.00  0.00    -0.401 OA
HETATM   34  H   UNL     1      42.379 -17.143   8.308  1.00  0.00     0.209 HD
ENDBRANCH  32  33
ENDBRANCH  31  32
ENDBRANCH  30  31
ENDBRANCH   7  30
TORSDOF 7
ENDMDL
