MODEL 1
REMARK VINA RESULT:     -10.4      0.000      0.000
REMARK  8 active torsions:
REMARK  status: ('A' for Active; 'I' for Inactive)
REMARK    1  A    between atoms: C_4  and  N_5 
REMARK       I    between atoms: N_5  and  C_6 
REMARK    2  A    between atoms: C_6  and  C_7 
REMARK    3  A    between atoms: C_7  and  N_8 
REMARK    4  A    between atoms: N_11  and  C_12 
REMARK    5  A    between atoms: C_12  and  C_13 
REMARK    6  A    between atoms: C_16  and  C_17 
REMARK       I    between atoms: C_17  and  N_18 
REMARK    7  A    between atoms: N_18  and  C_19 
REMARK    8  A    between atoms: C_19  and  C_20 
ROOT
HETATM    1  N   UNL     1      42.802  -7.501  10.062  1.00  0.00    -0.290 N 
HETATM    2  C   UNL     1      43.988  -8.047   9.558  1.00  0.00     0.332 C 
HETATM    3  O   UNL     1      44.663  -7.424   8.738  1.00  0.00    -0.246 OA
HETATM    4  N   UNL     1      44.342  -9.309  10.022  1.00  0.00    -0.261 N 
HETATM    5  C   UNL     1      43.813  -9.889  11.161  1.00  0.00     0.264 C 
HETATM    6  O   UNL     1      44.130 -10.998  11.585  1.00  0.00    -0.267 OA
HETATM    7  C   UNL     1      42.857  -9.077  11.924  1.00  0.00     0.059 A 
HETATM    8  C   UNL     1      42.354  -7.902  11.363  1.00  0.00     0.055 A 
HETATM    9  C   UNL     1      42.518  -9.476  13.229  1.00  0.00     0.019 A 
HETATM   10  C   UNL     1      41.672  -8.689  14.000  1.00  0.00     0.001 A 
HETATM   11  C   UNL     1      41.153  -7.519  13.460  1.00  0.00     0.002 A 
HETATM   12  C   UNL     1      41.483  -7.133  12.152  1.00  0.00     0.031 A 
ENDROOT
BRANCH   4  13
HETATM   13  C   UNL     1      45.502  -9.967   9.421  1.00  0.00     0.175 C 
BRANCH  13  14
HETATM   14  C   UNL     1      45.155 -10.748   8.175  1.00  0.00    -0.040 A 
HETATM   15  C   UNL     1      45.988 -10.653   7.050  1.00  0.00     0.010 A 
HETATM   16  C   UNL     1      45.593 -11.200   5.835  1.00  0.00     0.017 A 
HETATM   17  C   UNL     1      44.359 -11.849   5.738  1.00  0.00     0.032 A 
HETATM   18  C   UNL     1      43.568 -12.041   6.875  1.00  0.00     0.017 A 
HETATM   19  C   UNL     1      43.966 -11.489   8.094  1.00  0.00     0.010 A 
BRANCH  17  20
HETATM   20  C   UNL     1      43.820 -12.234   4.411  1.00  0.00     0.251 C 
HETATM   21  N   UNL     1      42.933 -13.291   4.453  1.00  0.00    -0.353 N 
HETATM   22  H   UNL     1      42.840 -13.793   5.325  1.00  0.00     0.163 HD
HETATM   23  O   UNL     1      44.220 -11.691   3.390  1.00  0.00    -0.268 OA
BRANCH  21  24
HETATM   24  C   UNL     1      42.573 -14.018   3.261  1.00  0.00     0.161 C 
BRANCH  24  25
HETATM   25  C   UNL     1      42.831 -15.520   3.404  1.00  0.00    -0.038 A 
HETATM   26  C   UNL     1      42.959 -16.076   4.731  1.00  0.00     0.048 A 
HETATM   27  C   UNL     1      43.244 -17.413   4.650  1.00  0.00     0.105 A 
HETATM   28  C   UNL     1      43.374 -18.227   3.055  1.00  0.00     0.105 A 
HETATM   29  O   UNL     1      43.718 -18.818   6.015  1.00  0.00    -0.323 OA
HETATM   30  O   UNL     1      43.866 -19.942   3.220  1.00  0.00    -0.323 OA
HETATM   31  C   UNL     1      43.208 -17.637   1.857  1.00  0.00     0.040 A 
HETATM   32  C   UNL     1      44.111 -20.446   5.030  1.00  0.00     0.352 A 
HETATM   33  C   UNL     1      42.933 -16.269   2.079  1.00  0.00     0.012 A 
ENDBRANCH  24  25
ENDBRANCH  21  24
ENDBRANCH  17  20
ENDBRANCH  13  14
ENDBRANCH   4  13
BRANCH   1  34
HETATM   34  C   UNL     1      42.446  -6.179   9.532  1.00  0.00     0.237 C 
BRANCH  34  35
HETATM   35  C   UNL     1      41.613  -6.067   8.234  1.00  0.00     0.240 C 
HETATM   36  N   UNL     1      42.239  -6.523   7.086  1.00  0.00    -0.326 N 
HETATM   37  H   UNL     1      43.243  -6.639   7.115  1.00  0.00     0.169 HD
HETATM   38  O   UNL     1      40.416  -5.791   8.330  1.00  0.00    -0.271 OA
BRANCH  36  39
HETATM   39  C   UNL     1      41.596  -6.951   5.888  1.00  0.00     0.035 A 
HETATM   40  C   UNL     1      41.193  -8.617   5.650  1.00  0.00     0.036 A 
HETATM   41  C   UNL     1      40.612  -9.296   4.204  1.00  0.00    -0.060 A 
HETATM   42  C   UNL     1      40.382 -10.761   4.067  1.00  0.00     0.048 C 
HETATM   43  C   UNL     1      40.416  -8.235   2.849  1.00  0.00     0.007 A 
HETATM   44  C   UNL     1      40.864  -6.240   3.121  1.00  0.00     0.003 A 
HETATM   45  C   UNL     1      41.428  -5.747   4.695  1.00  0.00     0.029 A 
ENDBRANCH  36  39
ENDBRANCH  34  35
ENDBRANCH   1  34
TORSDOF 8
ENDMDL
MODEL 2
REMARK VINA RESULT:     -10.2      2.595     10.063
REMARK  8 active torsions:
REMARK  status: ('A' for Active; 'I' for Inactive)
REMARK    1  A    between atoms: C_4  and  N_5 
REMARK       I    between atoms: N_5  and  C_6 
REMARK    2  A    between atoms: C_6  and  C_7 
REMARK    3  A    between atoms: C_7  and  N_8 
REMARK    4  A    between atoms: N_11  and  C_12 
REMARK    5  A    between atoms: C_12  and  C_13 
REMARK    6  A    between atoms: C_16  and  C_17 
REMARK       I    between atoms: C_17  and  N_18 
REMARK    7  A    between atoms: N_18  and  C_19 
REMARK    8  A    between atoms: C_19  and  C_20 
ROOT
HETATM    1  N   UNL     1      42.082 -16.778   3.033  1.00  0.00    -0.290 N 
HETATM    2  C   UNL     1      41.583 -16.143   4.176  1.00  0.00     0.332 C 
HETATM    3  O   UNL     1      40.563 -15.457   4.114  1.00  0.00    -0.246 OA
HETATM    4  N   UNL     1      42.299 -16.323   5.355  1.00  0.00    -0.261 N 
HETATM    5  C   UNL     1      43.232 -17.327   5.545  1.00  0.00     0.264 C 
HETATM    6  O   UNL     1      43.859 -17.501   6.587  1.00  0.00    -0.267 OA
HETATM    7  C   UNL     1      43.419 -18.266   4.432  1.00  0.00     0.059 A 
HETATM    8  C   UNL     1      42.854 -17.976   3.189  1.00  0.00     0.055 A 
HETATM    9  C   UNL     1      44.115 -19.465   4.666  1.00  0.00     0.019 A 
HETATM   10  C   UNL     1      44.244 -20.403   3.650  1.00  0.00     0.001 A 
HETATM   11  C   UNL     1      43.696 -20.133   2.401  1.00  0.00     0.002 A 
HETATM   12  C   UNL     1      43.017 -18.928   2.170  1.00  0.00     0.031 A 
ENDROOT
BRANCH   4  13
HETATM   13  C   UNL     1      41.884 -15.571   6.538  1.00  0.00     0.175 C 
BRANCH  13  14
HETATM   14  C   UNL     1      42.253 -14.107   6.463  1.00  0.00    -0.040 A 
HETATM   15  C   UNL     1      43.533 -13.700   6.869  1.00  0.00     0.010 A 
HETATM   16  C   UNL     1      43.832 -12.349   6.996  1.00  0.00     0.017 A 
HETATM   17  C   UNL     1      42.851 -11.394   6.716  1.00  0.00     0.032 A 
HETATM   18  C   UNL     1      41.606 -11.785   6.213  1.00  0.00     0.017 A 
HETATM   19  C   UNL     1      41.307 -13.141   6.087  1.00  0.00     0.010 A 
BRANCH  17  20
HETATM   20  C   UNL     1      43.075  -9.970   7.063  1.00  0.00     0.251 C 
HETATM   21  N   UNL     1      44.156  -9.761   7.895  1.00  0.00    -0.353 N 
HETATM   22  H   UNL     1      44.599 -10.571   8.304  1.00  0.00     0.163 HD
HETATM   23  O   UNL     1      42.295  -9.103   6.691  1.00  0.00    -0.268 OA
BRANCH  21  24
HETATM   24  C   UNL     1      44.328  -8.517   8.606  1.00  0.00     0.161 C 
BRANCH  24  25
HETATM   25  C   UNL     1      43.696  -8.558   9.999  1.00  0.00    -0.038 A 
HETATM   26  C   UNL     1      43.098  -7.351  10.521  1.00  0.00     0.048 A 
HETATM   27  C   UNL     1      42.642  -7.571  11.794  1.00  0.00     0.105 A 
HETATM   28  C   UNL     1      42.802  -9.188  12.558  1.00  0.00     0.105 A 
HETATM   29  O   UNL     1      41.859  -6.376  13.215  1.00  0.00    -0.323 OA
HETATM   30  O   UNL     1      42.235  -9.182  14.257  1.00  0.00    -0.323 OA
HETATM   31  C   UNL     1      43.348 -10.276  11.984  1.00  0.00     0.040 A 
HETATM   32  C   UNL     1      41.611  -7.476  14.798  1.00  0.00     0.352 A 
HETATM   33  C   UNL     1      43.785  -9.915  10.690  1.00  0.00     0.012 A 
ENDBRANCH  24  25
ENDBRANCH  21  24
ENDBRANCH  17  20
ENDBRANCH  13  14
ENDBRANCH   4  13
BRANCH   1  34
HETATM   34  C   UNL     1      41.316 -16.547   1.803  1.00  0.00     0.237 C 
BRANCH  34  35
HETATM   35  C   UNL     1      41.171 -15.112   1.243  1.00  0.00     0.240 C 
HETATM   36  N   UNL     1      39.885 -14.599   1.255  1.00  0.00    -0.326 N 
HETATM   37  H   UNL     1      39.120 -15.252   1.366  1.00  0.00     0.169 HD
HETATM   38  O   UNL     1      42.194 -14.462   1.029  1.00  0.00    -0.271 OA
BRANCH  36  39
HETATM   39  C   UNL     1      39.527 -13.219   1.234  1.00  0.00     0.035 A 
HETATM   40  C   UNL     1      39.390 -12.321   2.707  1.00  0.00     0.036 A 
HETATM   41  C   UNL     1      38.785 -10.738   2.847  1.00  0.00    -0.060 A 
HETATM   42  C   UNL     1      38.618 -10.081   4.172  1.00  0.00     0.048 C 
HETATM   43  C   UNL     1      38.249  -9.961   1.395  1.00  0.00     0.007 A 
HETATM   44  C   UNL     1      38.431 -11.004  -0.376  1.00  0.00     0.003 A 
HETATM   45  C   UNL     1      39.099 -12.612  -0.298  1.00  0.00     0.029 A 
ENDBRANCH  36  39
ENDBRANCH  34  35
ENDBRANCH   1  34
TORSDOF 8
ENDMDL
MODEL 3
REMARK VINA RESULT:     -10.0      1.873      2.236
REMARK  8 active torsions:
REMARK  status: ('A' for Active; 'I' for Inactive)
REMARK    1  A    between atoms: C_4  and  N_5 
REMARK       I    between atoms: N_5  and  C_6 
REMARK    2  A    between atoms: C_6  and  C_7 
REMARK    3  A    between atoms: C_7  and  N_8 
REMARK    4  A    between atoms: N_11  and  C_12 
REMARK    5  A    between atoms: C_12  and  C_13 
REMARK    6  A    between atoms: C_16  and  C_17 
REMARK       I    between atoms: C_17  and  N_18 
REMARK    7  A    between atoms: N_18  and  C_19 
REMARK    8  A    between atoms: C_19  and  C_20 
ROOT
HETATM    1  N   UNL     1      42.918  -7.192   9.945  1.00  0.00    -0.290 N 
HETATM    2  C   UNL     1      44.074  -7.842   9.500  1.00  0.00     0.332 C 
HETATM    3  O   UNL     1      44.789  -7.328   8.640  1.00  0.00    -0.246 OA
HETATM    4  N   UNL     1      44.354  -9.081  10.069  1.00  0.00    -0.261 N 
HETATM    5  C   UNL     1      43.786  -9.535  11.246  1.00  0.00     0.264 C 
HETATM    6  O   UNL     1      44.037 -10.621  11.762  1.00  0.00    -0.267 OA
HETATM    7  C   UNL     1      42.872  -8.612  11.930  1.00  0.00     0.059 A 
HETATM    8  C   UNL     1      42.440  -7.460  11.269  1.00  0.00     0.055 A 
HETATM    9  C   UNL     1      42.503  -8.883  13.259  1.00  0.00     0.019 A 
HETATM   10  C   UNL     1      41.698  -7.989  13.954  1.00  0.00     0.001 A 
HETATM   11  C   UNL     1      41.250  -6.840  13.315  1.00  0.00     0.002 A 
HETATM   12  C   UNL     1      41.608  -6.582  11.984  1.00  0.00     0.031 A 
ENDROOT
BRANCH   4  13
HETATM   13  C   UNL     1      45.479  -9.849   9.537  1.00  0.00     0.175 C 
BRANCH  13  14
HETATM   14  C   UNL     1      45.121 -10.628   8.292  1.00  0.00    -0.040 A 
HETATM   15  C   UNL     1      46.039 -10.688   7.232  1.00  0.00     0.010 A 
HETATM   16  C   UNL     1      45.663 -11.228   6.008  1.00  0.00     0.017 A 
HETATM   17  C   UNL     1      44.364 -11.714   5.836  1.00  0.00     0.032 A 
HETATM   18  C   UNL     1      43.475 -11.754   6.914  1.00  0.00     0.017 A 
HETATM   19  C   UNL     1      43.853 -11.210   8.142  1.00  0.00     0.010 A 
BRANCH  17  20
HETATM   20  C   UNL     1      43.877 -12.079   4.484  1.00  0.00     0.251 C 
HETATM   21  N   UNL     1      42.958 -13.110   4.481  1.00  0.00    -0.353 N 
HETATM   22  H   UNL     1      42.810 -13.611   5.345  1.00  0.00     0.163 HD
HETATM   23  O   UNL     1      44.338 -11.544   3.485  1.00  0.00    -0.268 OA
BRANCH  21  24
HETATM   24  C   UNL     1      42.633 -13.822   3.270  1.00  0.00     0.161 C 
BRANCH  24  25
HETATM   25  C   UNL     1      42.882 -15.326   3.403  1.00  0.00    -0.038 A 
HETATM   26  C   UNL     1      42.968 -15.897   4.727  1.00  0.00     0.048 A 
HETATM   27  C   UNL     1      43.252 -17.235   4.640  1.00  0.00     0.105 A 
HETATM   28  C   UNL     1      43.426 -18.031   3.041  1.00  0.00     0.105 A 
HETATM   29  O   UNL     1      43.681 -18.656   6.003  1.00  0.00    -0.323 OA
HETATM   30  O   UNL     1      43.907 -19.750   3.201  1.00  0.00    -0.323 OA
HETATM   31  C   UNL     1      43.297 -17.427   1.845  1.00  0.00     0.040 A 
HETATM   32  C   UNL     1      44.098 -20.274   5.012  1.00  0.00     0.352 A 
HETATM   33  C   UNL     1      43.020 -16.061   2.074  1.00  0.00     0.012 A 
ENDBRANCH  24  25
ENDBRANCH  21  24
ENDBRANCH  17  20
ENDBRANCH  13  14
ENDBRANCH   4  13
BRANCH   1  34
HETATM   34  C   UNL     1      42.641  -5.900   9.306  1.00  0.00     0.237 C 
BRANCH  34  35
HETATM   35  C   UNL     1      41.485  -5.776   8.286  1.00  0.00     0.240 C 
HETATM   36  N   UNL     1      40.270  -6.297   8.700  1.00  0.00    -0.326 N 
HETATM   37  H   UNL     1      40.277  -6.935   9.485  1.00  0.00     0.169 HD
HETATM   38  O   UNL     1      41.652  -5.062   7.297  1.00  0.00    -0.271 OA
BRANCH  36  39
HETATM   39  C   UNL     1      38.985  -5.942   8.198  1.00  0.00     0.035 A 
HETATM   40  C   UNL     1      38.277  -6.817   6.883  1.00  0.00     0.036 A 
HETATM   41  C   UNL     1      36.855  -6.384   6.059  1.00  0.00    -0.060 A 
HETATM   42  C   UNL     1      36.375  -7.149   4.876  1.00  0.00     0.048 C 
HETATM   43  C   UNL     1      36.049  -4.939   6.570  1.00  0.00     0.007 A 
HETATM   44  C   UNL     1      36.860  -3.896   8.155  1.00  0.00     0.003 A 
HETATM   45  C   UNL     1      38.318  -4.527   8.872  1.00  0.00     0.029 A 
ENDBRANCH  36  39
ENDBRANCH  34  35
ENDBRANCH   1  34
TORSDOF 8
ENDMDL
MODEL 4
REMARK VINA RESULT:      -9.9      3.208     10.218
REMARK  8 active torsions:
REMARK  status: ('A' for Active; 'I' for Inactive)
REMARK    1  A    between atoms: C_4  and  N_5 
REMARK       I    between atoms: N_5  and  C_6 
REMARK    2  A    between atoms: C_6  and  C_7 
REMARK    3  A    between atoms: C_7  and  N_8 
REMARK    4  A    between atoms: N_11  and  C_12 
REMARK    5  A    between atoms: C_12  and  C_13 
REMARK    6  A    between atoms: C_16  and  C_17 
REMARK       I    between atoms: C_17  and  N_18 
REMARK    7  A    between atoms: N_18  and  C_19 
REMARK    8  A    between atoms: C_19  and  C_20 
ROOT
HETATM    1  N   UNL     1      41.647 -16.314   3.254  1.00  0.00    -0.290 N 
HETATM    2  C   UNL     1      41.391 -15.749   4.508  1.00  0.00     0.332 C 
HETATM    3  O   UNL     1      40.305 -15.218   4.745  1.00  0.00    -0.246 OA
HETATM    4  N   UNL     1      42.418 -15.812   5.444  1.00  0.00    -0.261 N 
HETATM    5  C   UNL     1      43.500 -16.668   5.345  1.00  0.00     0.264 C 
HETATM    6  O   UNL     1      44.404 -16.740   6.174  1.00  0.00    -0.267 OA
HETATM    7  C   UNL     1      43.510 -17.579   4.193  1.00  0.00     0.059 A 
HETATM    8  C   UNL     1      42.594 -17.385   3.158  1.00  0.00     0.055 A 
HETATM    9  C   UNL     1      44.406 -18.662   4.194  1.00  0.00     0.019 A 
HETATM   10  C   UNL     1      44.387 -19.581   3.152  1.00  0.00     0.001 A 
HETATM   11  C   UNL     1      43.489 -19.404   2.106  1.00  0.00     0.002 A 
HETATM   12  C   UNL     1      42.608 -18.313   2.104  1.00  0.00     0.031 A 
ENDROOT
BRANCH   4  13
HETATM   13  C   UNL     1      42.236 -15.119   6.719  1.00  0.00     0.175 C 
BRANCH  13  14
HETATM   14  C   UNL     1      42.608 -13.655   6.649  1.00  0.00    -0.040 A 
HETATM   15  C   UNL     1      43.894 -13.254   7.044  1.00  0.00     0.010 A 
HETATM   16  C   UNL     1      44.199 -11.905   7.176  1.00  0.00     0.017 A 
HETATM   17  C   UNL     1      43.217 -10.946   6.913  1.00  0.00     0.032 A 
HETATM   18  C   UNL     1      41.966 -11.329   6.421  1.00  0.00     0.017 A 
HETATM   19  C   UNL     1      41.661 -12.684   6.290  1.00  0.00     0.010 A 
BRANCH  17  20
HETATM   20  C   UNL     1      43.449  -9.524   7.267  1.00  0.00     0.251 C 
HETATM   21  N   UNL     1      44.601  -9.311   7.997  1.00  0.00    -0.353 N 
HETATM   22  H   UNL     1      45.095 -10.120   8.345  1.00  0.00     0.163 HD
HETATM   23  O   UNL     1      42.623  -8.665   6.988  1.00  0.00    -0.268 OA
BRANCH  21  24
HETATM   24  C   UNL     1      44.819  -8.078   8.713  1.00  0.00     0.161 C 
BRANCH  24  25
HETATM   25  C   UNL     1      43.926  -7.966   9.951  1.00  0.00    -0.038 A 
HETATM   26  C   UNL     1      44.001  -9.004  10.953  1.00  0.00     0.048 A 
HETATM   27  C   UNL     1      43.090  -8.759  11.947  1.00  0.00     0.105 A 
HETATM   28  C   UNL     1      42.048  -7.299  11.893  1.00  0.00     0.105 A 
HETATM   29  O   UNL     1      42.486  -9.797  13.564  1.00  0.00    -0.323 OA
HETATM   30  O   UNL     1      40.869  -7.270  13.243  1.00  0.00    -0.323 OA
HETATM   31  C   UNL     1      42.063  -6.358  10.930  1.00  0.00     0.040 A 
HETATM   32  C   UNL     1      41.039  -8.782  14.373  1.00  0.00     0.352 A 
HETATM   33  C   UNL     1      43.028  -6.733   9.969  1.00  0.00     0.012 A 
ENDBRANCH  24  25
ENDBRANCH  21  24
ENDBRANCH  17  20
ENDBRANCH  13  14
ENDBRANCH   4  13
BRANCH   1  34
HETATM   34  C   UNL     1      40.551 -16.207   2.283  1.00  0.00     0.237 C 
BRANCH  34  35
HETATM   35  C   UNL     1      40.303 -14.871   1.544  1.00  0.00     0.240 C 
HETATM   36  N   UNL     1      40.801 -14.807   0.253  1.00  0.00    -0.326 N 
HETATM   37  H   UNL     1      41.494 -15.492  -0.017  1.00  0.00     0.169 HD
HETATM   38  O   UNL     1      39.526 -14.060   2.048  1.00  0.00    -0.271 OA
BRANCH  36  39
HETATM   39  C   UNL     1      40.354 -13.932  -0.780  1.00  0.00     0.035 A 
HETATM   40  C   UNL     1      40.916 -12.297  -0.857  1.00  0.00     0.036 A 
HETATM   41  C   UNL     1      40.323 -11.096  -1.904  1.00  0.00    -0.060 A 
HETATM   42  C   UNL     1      40.805  -9.690  -1.831  1.00  0.00     0.048 C 
HETATM   43  C   UNL     1      39.040 -11.541  -2.979  1.00  0.00     0.007 A 
HETATM   44  C   UNL     1      38.375 -13.494  -2.923  1.00  0.00     0.003 A 
HETATM   45  C   UNL     1      39.137 -14.572  -1.785  1.00  0.00     0.029 A 
ENDBRANCH  36  39
ENDBRANCH  34  35
ENDBRANCH   1  34
TORSDOF 8
ENDMDL
MODEL 5
REMARK VINA RESULT:      -9.9      1.068      1.867
REMARK  8 active torsions:
REMARK  status: ('A' for Active; 'I' for Inactive)
REMARK    1  A    between atoms: C_4  and  N_5 
REMARK       I    between atoms: N_5  and  C_6 
REMARK    2  A    between atoms: C_6  and  C_7 
REMARK    3  A    between atoms: C_7  and  N_8 
REMARK    4  A    between atoms: N_11  and  C_12 
REMARK    5  A    between atoms: C_12  and  C_13 
REMARK    6  A    between atoms: C_16  and  C_17 
REMARK       I    between atoms: C_17  and  N_18 
REMARK    7  A    between atoms: N_18  and  C_19 
REMARK    8  A    between atoms: C_19  and  C_20 
ROOT
HETATM    1  N   UNL     1      42.317  -7.782  10.116  1.00  0.00    -0.290 N 
HETATM    2  C   UNL     1      43.531  -8.188   9.550  1.00  0.00     0.332 C 
HETATM    3  O   UNL     1      44.064  -7.518   8.666  1.00  0.00    -0.246 OA
HETATM    4  N   UNL     1      44.078  -9.373  10.031  1.00  0.00    -0.261 N 
HETATM    5  C   UNL     1      43.705  -9.969  11.222  1.00  0.00     0.264 C 
HETATM    6  O   UNL     1      44.193 -11.007  11.660  1.00  0.00    -0.267 OA
HETATM    7  C   UNL     1      42.698  -9.258  12.021  1.00  0.00     0.059 A 
HETATM    8  C   UNL     1      42.009  -8.183  11.457  1.00  0.00     0.055 A 
HETATM    9  C   UNL     1      42.499  -9.643  13.358  1.00  0.00     0.019 A 
HETATM   10  C   UNL     1      41.606  -8.941  14.159  1.00  0.00     0.001 A 
HETATM   11  C   UNL     1      40.903  -7.872  13.616  1.00  0.00     0.002 A 
HETATM   12  C   UNL     1      41.094  -7.503  12.277  1.00  0.00     0.031 A 
ENDROOT
BRANCH   4  13
HETATM   13  C   UNL     1      45.276  -9.897   9.375  1.00  0.00     0.175 C 
BRANCH  13  14
HETATM   14  C   UNL     1      44.959 -10.746   8.165  1.00  0.00    -0.040 A 
HETATM   15  C   UNL     1      45.800 -10.685   7.044  1.00  0.00     0.010 A 
HETATM   16  C   UNL     1      45.430 -11.299   5.854  1.00  0.00     0.017 A 
HETATM   17  C   UNL     1      44.213 -11.982   5.778  1.00  0.00     0.032 A 
HETATM   18  C   UNL     1      43.416 -12.137   6.916  1.00  0.00     0.017 A 
HETATM   19  C   UNL     1      43.789 -11.518   8.110  1.00  0.00     0.010 A 
BRANCH  17  20
HETATM   20  C   UNL     1      43.696 -12.443   4.467  1.00  0.00     0.251 C 
HETATM   21  N   UNL     1      42.835 -13.519   4.552  1.00  0.00    -0.353 N 
HETATM   22  H   UNL     1      42.746 -13.981   5.446  1.00  0.00     0.163 HD
HETATM   23  O   UNL     1      44.091 -11.939   3.424  1.00  0.00    -0.268 OA
BRANCH  21  24
HETATM   24  C   UNL     1      42.505 -14.311   3.393  1.00  0.00     0.161 C 
BRANCH  24  25
HETATM   25  C   UNL     1      42.970 -15.762   3.537  1.00  0.00    -0.038 A 
HETATM   26  C   UNL     1      42.816 -16.651   2.409  1.00  0.00     0.048 A 
HETATM   27  C   UNL     1      43.231 -17.912   2.749  1.00  0.00     0.105 A 
HETATM   28  C   UNL     1      43.885 -18.249   4.386  1.00  0.00     0.105 A 
HETATM   29  O   UNL     1      43.181 -19.693   1.808  1.00  0.00    -0.323 OA
HETATM   30  O   UNL     1      44.249 -19.989   4.613  1.00  0.00    -0.323 OA
HETATM   31  C   UNL     1      44.025 -17.348   5.377  1.00  0.00     0.040 A 
HETATM   32  C   UNL     1      43.856 -21.010   3.066  1.00  0.00     0.352 A 
HETATM   33  C   UNL     1      43.552 -16.104   4.904  1.00  0.00     0.012 A 
ENDBRANCH  24  25
ENDBRANCH  21  24
ENDBRANCH  17  20
ENDBRANCH  13  14
ENDBRANCH   4  13
BRANCH   1  34
HETATM   34  C   UNL     1      41.755  -6.541   9.568  1.00  0.00     0.237 C 
BRANCH  34  35
HETATM   35  C   UNL     1      40.745  -6.602   8.398  1.00  0.00     0.240 C 
HETATM   36  N   UNL     1      41.282  -6.943   7.168  1.00  0.00    -0.326 N 
HETATM   37  H   UNL     1      42.284  -6.867   7.057  1.00  0.00     0.169 HD
HETATM   38  O   UNL     1      39.542  -6.556   8.662  1.00  0.00    -0.271 OA
BRANCH  36  39
HETATM   39  C   UNL     1      40.573  -7.497   6.063  1.00  0.00     0.035 A 
HETATM   40  C   UNL     1      39.510  -6.516   5.113  1.00  0.00     0.036 A 
HETATM   41  C   UNL     1      38.459  -7.082   3.903  1.00  0.00    -0.060 A 
HETATM   42  C   UNL     1      37.512  -6.171   3.204  1.00  0.00     0.048 C 
HETATM   43  C   UNL     1      38.441  -8.787   3.599  1.00  0.00     0.007 A 
HETATM   44  C   UNL     1      39.722  -9.971   4.701  1.00  0.00     0.003 A 
HETATM   45  C   UNL     1      40.733  -9.183   5.882  1.00  0.00     0.029 A 
ENDBRANCH  36  39
ENDBRANCH  34  35
ENDBRANCH   1  34
TORSDOF 8
ENDMDL
MODEL 6
REMARK VINA RESULT:      -9.6      4.619     11.584
REMARK  8 active torsions:
REMARK  status: ('A' for Active; 'I' for Inactive)
REMARK    1  A    between atoms: C_4  and  N_5 
REMARK       I    between atoms: N_5  and  C_6 
REMARK    2  A    between atoms: C_6  and  C_7 
REMARK    3  A    between atoms: C_7  and  N_8 
REMARK    4  A    between atoms: N_11  and  C_12 
REMARK    5  A    between atoms: C_12  and  C_13 
REMARK    6  A    between atoms: C_16  and  C_17 
REMARK       I    between atoms: C_17  and  N_18 
REMARK    7  A    between atoms: N_18  and  C_19 
REMARK    8  A    between atoms: C_19  and  C_20 
ROOT
HETATM    1  N   UNL     1      43.510 -10.045   8.909  1.00  0.00    -0.290 N 
HETATM    2  C   UNL     1      43.608 -10.255  10.289  1.00  0.00     0.332 C 
HETATM    3  O   UNL     1      44.672 -10.618  10.792  1.00  0.00    -0.246 OA
HETATM    4  N   UNL     1      42.455 -10.043  11.037  1.00  0.00    -0.261 N 
HETATM    5  C   UNL     1      41.360  -9.331  10.582  1.00  0.00     0.264 C 
HETATM    6  O   UNL     1      40.343  -9.128  11.241  1.00  0.00    -0.267 OA
HETATM    7  C   UNL     1      41.474  -8.742   9.242  1.00  0.00     0.059 A 
HETATM    8  C   UNL     1      42.538  -9.114   8.418  1.00  0.00     0.055 A 
HETATM    9  C   UNL     1      40.538  -7.771   8.846  1.00  0.00     0.019 A 
HETATM   10  C   UNL     1      40.664  -7.144   7.612  1.00  0.00     0.001 A 
HETATM   11  C   UNL     1      41.711  -7.504   6.772  1.00  0.00     0.002 A 
HETATM   12  C   UNL     1      42.633  -8.485   7.166  1.00  0.00     0.031 A 
ENDROOT
BRANCH   4  13
HETATM   13  C   UNL     1      42.483 -10.378  12.460  1.00  0.00     0.175 C 
BRANCH  13  14
HETATM   14  C   UNL     1      42.223  -9.183  13.350  1.00  0.00    -0.040 A 
HETATM   15  C   UNL     1      43.161  -8.140  13.391  1.00  0.00     0.010 A 
HETATM   16  C   UNL     1      43.047  -7.130  14.337  1.00  0.00     0.017 A 
HETATM   17  C   UNL     1      41.989  -7.155  15.251  1.00  0.00     0.032 A 
HETATM   18  C   UNL     1      40.993  -8.131  15.153  1.00  0.00     0.017 A 
HETATM   19  C   UNL     1      41.110  -9.145  14.203  1.00  0.00     0.010 A 
BRANCH  17  20
HETATM   20  C   UNL     1      41.977  -6.224  16.405  1.00  0.00     0.251 C 
HETATM   21  N   UNL     1      42.416  -6.790  17.585  1.00  0.00    -0.353 N 
HETATM   22  H   UNL     1      42.562  -7.789  17.602  1.00  0.00     0.163 HD
HETATM   23  O   UNL     1      41.531  -5.090  16.291  1.00  0.00    -0.268 OA
BRANCH  21  24
HETATM   24  C   UNL     1      42.161  -6.165  18.859  1.00  0.00     0.161 C 
BRANCH  24  25
HETATM   25  C   UNL     1      41.685  -7.171  19.909  1.00  0.00    -0.038 A 
HETATM   26  C   UNL     1      42.647  -8.091  20.471  1.00  0.00     0.048 A 
HETATM   27  C   UNL     1      42.023  -8.945  21.341  1.00  0.00     0.105 A 
HETATM   28  C   UNL     1      40.263  -8.797  21.663  1.00  0.00     0.105 A 
HETATM   29  O   UNL     1      42.629 -10.568  22.369  1.00  0.00    -0.323 OA
HETATM   30  O   UNL     1      39.672 -10.098  22.745  1.00  0.00    -0.323 OA
HETATM   31  C   UNL     1      39.438  -7.884  21.117  1.00  0.00     0.040 A 
HETATM   32  C   UNL     1      41.059 -11.280  23.267  1.00  0.00     0.352 A 
HETATM   33  C   UNL     1      40.198  -7.081  20.238  1.00  0.00     0.012 A 
ENDBRANCH  24  25
ENDBRANCH  21  24
ENDBRANCH  17  20
ENDBRANCH  13  14
ENDBRANCH   4  13
BRANCH   1  34
HETATM   34  C   UNL     1      44.738 -10.302   8.147  1.00  0.00     0.237 C 
BRANCH  34  35
HETATM   35  C   UNL     1      44.836 -11.551   7.240  1.00  0.00     0.240 C 
HETATM   36  N   UNL     1      43.754 -12.413   7.298  1.00  0.00    -0.326 N 
HETATM   37  H   UNL     1      43.126 -12.324   8.086  1.00  0.00     0.169 HD
HETATM   38  O   UNL     1      45.734 -11.592   6.397  1.00  0.00    -0.271 OA
BRANCH  36  39
HETATM   39  C   UNL     1      43.369 -13.352   6.297  1.00  0.00     0.035 A 
HETATM   40  C   UNL     1      43.839 -15.013   6.417  1.00  0.00     0.036 A 
HETATM   41  C   UNL     1      43.623 -16.191   5.211  1.00  0.00    -0.060 A 
HETATM   42  C   UNL     1      44.146 -17.575   5.370  1.00  0.00     0.048 C 
HETATM   43  C   UNL     1      42.879 -15.686   3.731  1.00  0.00     0.007 A 
HETATM   44  C   UNL     1      42.286 -13.716   3.578  1.00  0.00     0.003 A 
HETATM   45  C   UNL     1      42.584 -12.676   4.946  1.00  0.00     0.029 A 
ENDBRANCH  36  39
ENDBRANCH  34  35
ENDBRANCH   1  34
TORSDOF 8
ENDMDL
MODEL 7
REMARK VINA RESULT:      -9.1      3.427     10.125
REMARK  8 active torsions:
REMARK  status: ('A' for Active; 'I' for Inactive)
REMARK    1  A    between atoms: C_4  and  N_5 
REMARK       I    between atoms: N_5  and  C_6 
REMARK    2  A    between atoms: C_6  and  C_7 
REMARK    3  A    between atoms: C_7  and  N_8 
REMARK    4  A    between atoms: N_11  and  C_12 
REMARK    5  A    between atoms: C_12  and  C_13 
REMARK    6  A    between atoms: C_16  and  C_17 
REMARK       I    between atoms: C_17  and  N_18 
REMARK    7  A    between atoms: N_18  and  C_19 
REMARK    8  A    between atoms: C_19  and  C_20 
ROOT
HETATM    1  N   UNL     1      41.572 -15.354   2.754  1.00  0.00    -0.290 N 
HETATM    2  C   UNL     1      40.836 -14.722   3.763  1.00  0.00     0.332 C 
HETATM    3  O   UNL     1      39.770 -14.164   3.502  1.00  0.00    -0.246 OA
HETATM    4  N   UNL     1      41.375 -14.755   5.044  1.00  0.00    -0.261 N 
HETATM    5  C   UNL     1      42.369 -15.631   5.442  1.00  0.00     0.264 C 
HETATM    6  O   UNL     1      42.841 -15.675   6.575  1.00  0.00    -0.267 OA
HETATM    7  C   UNL     1      42.827 -16.598   4.437  1.00  0.00     0.059 A 
HETATM    8  C   UNL     1      42.435 -16.443   3.106  1.00  0.00     0.055 A 
HETATM    9  C   UNL     1      43.603 -17.694   4.855  1.00  0.00     0.019 A 
HETATM   10  C   UNL     1      43.989 -18.663   3.938  1.00  0.00     0.001 A 
HETATM   11  C   UNL     1      43.617 -18.525   2.606  1.00  0.00     0.002 A 
HETATM   12  C   UNL     1      42.856 -17.422   2.192  1.00  0.00     0.031 A 
ENDROOT
BRANCH   4  13
HETATM   13  C   UNL     1      40.701 -13.995   6.097  1.00  0.00     0.175 C 
BRANCH  13  14
HETATM   14  C   UNL     1      41.098 -12.537   6.115  1.00  0.00    -0.040 A 
HETATM   15  C   UNL     1      42.457 -12.193   6.038  1.00  0.00     0.010 A 
HETATM   16  C   UNL     1      42.862 -10.882   6.247  1.00  0.00     0.017 A 
HETATM   17  C   UNL     1      41.909  -9.901   6.535  1.00  0.00     0.032 A 
HETATM   18  C   UNL     1      40.546 -10.211   6.513  1.00  0.00     0.017 A 
HETATM   19  C   UNL     1      40.140 -11.529   6.303  1.00  0.00     0.010 A 
BRANCH  17  20
HETATM   20  C   UNL     1      42.336  -8.554   6.985  1.00  0.00     0.251 C 
HETATM   21  N   UNL     1      43.502  -8.555   7.724  1.00  0.00    -0.353 N 
HETATM   22  H   UNL     1      43.875  -9.448   8.013  1.00  0.00     0.163 HD
HETATM   23  O   UNL     1      41.640  -7.570   6.770  1.00  0.00    -0.268 OA
BRANCH  21  24
HETATM   24  C   UNL     1      43.887  -7.418   8.523  1.00  0.00     0.161 C 
BRANCH  24  25
HETATM   25  C   UNL     1      43.288  -7.474   9.930  1.00  0.00    -0.038 A 
HETATM   26  C   UNL     1      43.344  -8.723  10.654  1.00  0.00     0.048 A 
HETATM   27  C   UNL     1      42.708  -8.589  11.860  1.00  0.00     0.105 A 
HETATM   28  C   UNL     1      41.990  -7.018  12.349  1.00  0.00     0.105 A 
HETATM   29  O   UNL     1      42.227  -9.884  13.328  1.00  0.00    -0.323 OA
HETATM   30  O   UNL     1      41.122  -7.139  13.912  1.00  0.00    -0.323 OA
HETATM   31  C   UNL     1      42.011  -5.886  11.621  1.00  0.00     0.040 A 
HETATM   32  C   UNL     1      41.197  -8.887  14.639  1.00  0.00     0.352 A 
HETATM   33  C   UNL     1      42.678  -6.160  10.407  1.00  0.00     0.012 A 
ENDBRANCH  24  25
ENDBRANCH  21  24
ENDBRANCH  17  20
ENDBRANCH  13  14
ENDBRANCH   4  13
BRANCH   1  34
HETATM   34  C   UNL     1      40.987 -15.278   1.410  1.00  0.00     0.237 C 
BRANCH  34  35
HETATM   35  C   UNL     1      41.145 -13.989   0.571  1.00  0.00     0.240 C 
HETATM   36  N   UNL     1      40.457 -13.976  -0.631  1.00  0.00    -0.326 N 
HETATM   37  H   UNL     1      40.135 -14.862  -0.996  1.00  0.00     0.169 HD
HETATM   38  O   UNL     1      41.675 -13.010   1.098  1.00  0.00    -0.271 OA
BRANCH  36  39
HETATM   39  C   UNL     1      40.059 -12.819  -1.362  1.00  0.00     0.035 A 
HETATM   40  C   UNL     1      38.395 -12.348  -1.432  1.00  0.00     0.036 A 
HETATM   41  C   UNL     1      37.756 -11.120  -2.418  1.00  0.00    -0.060 A 
HETATM   42  C   UNL     1      36.294 -10.850  -2.479  1.00  0.00     0.048 C 
HETATM   43  C   UNL     1      38.860 -10.273  -3.449  1.00  0.00     0.007 A 
HETATM   44  C   UNL     1      40.853 -10.799  -3.360  1.00  0.00     0.003 A 
HETATM   45  C   UNL     1      41.300 -12.077  -2.262  1.00  0.00     0.029 A 
ENDBRANCH  36  39
ENDBRANCH  34  35
ENDBRANCH   1  34
TORSDOF 8
ENDMDL
MODEL 8
REMARK VINA RESULT:      -9.0     19.897     21.858
REMARK  8 active torsions:
REMARK  status: ('A' for Active; 'I' for Inactive)
REMARK    1  A    between atoms: C_4  and  N_5 
REMARK       I    between atoms: N_5  and  C_6 
REMARK    2  A    between atoms: C_6  and  C_7 
REMARK    3  A    between atoms: C_7  and  N_8 
REMARK    4  A    between atoms: N_11  and  C_12 
REMARK    5  A    between atoms: C_12  and  C_13 
REMARK    6  A    between atoms: C_16  and  C_17 
REMARK       I    between atoms: C_17  and  N_18 
REMARK    7  A    between atoms: N_18  and  C_19 
REMARK    8  A    between atoms: C_19  and  C_20 
ROOT
HETATM    1  N   UNL     1      43.704 -33.243   8.109  1.00  0.00    -0.290 N 
HETATM    2  C   UNL     1      42.795 -33.562   7.095  1.00  0.00     0.332 C 
HETATM    3  O   UNL     1      43.094 -34.375   6.220  1.00  0.00    -0.246 OA
HETATM    4  N   UNL     1      41.566 -32.912   7.130  1.00  0.00    -0.261 N 
HETATM    5  C   UNL     1      41.067 -32.264   8.246  1.00  0.00     0.264 C 
HETATM    6  O   UNL     1      39.977 -31.699   8.289  1.00  0.00    -0.267 OA
HETATM    7  C   UNL     1      41.891 -32.323   9.459  1.00  0.00     0.059 A 
HETATM    8  C   UNL     1      43.201 -32.799   9.376  1.00  0.00     0.055 A 
HETATM    9  C   UNL     1      41.317 -31.954  10.688  1.00  0.00     0.019 A 
HETATM   10  C   UNL     1      42.050 -32.070  11.862  1.00  0.00     0.001 A 
HETATM   11  C   UNL     1      43.359 -32.534  11.802  1.00  0.00     0.002 A 
HETATM   12  C   UNL     1      43.932 -32.886  10.572  1.00  0.00     0.031 A 
ENDROOT
BRANCH   4  13
HETATM   13  C   UNL     1      40.641 -33.120   6.016  1.00  0.00     0.175 C 
BRANCH  13  14
HETATM   14  C   UNL     1      40.915 -32.204   4.846  1.00  0.00    -0.040 A 
HETATM   15  C   UNL     1      41.002 -32.746   3.554  1.00  0.00     0.010 A 
HETATM   16  C   UNL     1      41.444 -31.966   2.493  1.00  0.00     0.017 A 
HETATM   17  C   UNL     1      41.801 -30.633   2.717  1.00  0.00     0.032 A 
HETATM   18  C   UNL     1      41.620 -30.054   3.976  1.00  0.00     0.017 A 
HETATM   19  C   UNL     1      41.179 -30.840   5.041  1.00  0.00     0.010 A 
BRANCH  17  20
HETATM   20  C   UNL     1      42.486 -29.856   1.656  1.00  0.00     0.251 C 
HETATM   21  N   UNL     1      43.802 -30.224   1.455  1.00  0.00    -0.353 N 
HETATM   22  H   UNL     1      44.219 -30.861   2.119  1.00  0.00     0.163 HD
HETATM   23  O   UNL     1      41.922 -28.926   1.095  1.00  0.00    -0.268 OA
BRANCH  21  24
HETATM   24  C   UNL     1      44.716 -29.379   0.727  1.00  0.00     0.161 C 
BRANCH  24  25
HETATM   25  C   UNL     1      44.591 -29.566  -0.786  1.00  0.00    -0.038 A 
HETATM   26  C   UNL     1      44.204 -30.863  -1.292  1.00  0.00     0.048 A 
HETATM   27  C   UNL     1      44.205 -30.848  -2.662  1.00  0.00     0.105 A 
HETATM   28  C   UNL     1      44.615 -29.350  -3.561  1.00  0.00     0.105 A 
HETATM   29  O   UNL     1      43.946 -32.270  -4.066  1.00  0.00    -0.323 OA
HETATM   30  O   UNL     1      44.655 -29.624  -5.331  1.00  0.00    -0.323 OA
HETATM   31  C   UNL     1      44.936 -28.166  -3.007  1.00  0.00     0.040 A 
HETATM   32  C   UNL     1      44.249 -31.418  -5.787  1.00  0.00     0.352 A 
HETATM   33  C   UNL     1      44.910 -28.319  -1.603  1.00  0.00     0.012 A 
ENDBRANCH  24  25
ENDBRANCH  21  24
ENDBRANCH  17  20
ENDBRANCH  13  14
ENDBRANCH   4  13
BRANCH   1  34
HETATM   34  C   UNL     1      45.000 -33.928   8.027  1.00  0.00     0.237 C 
BRANCH  34  35
HETATM   35  C   UNL     1      46.246 -33.165   7.521  1.00  0.00     0.240 C 
HETATM   36  N   UNL     1      46.466 -33.229   6.155  1.00  0.00    -0.326 N 
HETATM   37  H   UNL     1      45.987 -33.953   5.637  1.00  0.00     0.169 HD
HETATM   38  O   UNL     1      46.820 -32.402   8.299  1.00  0.00    -0.271 OA
BRANCH  36  39
HETATM   39  C   UNL     1      47.223 -32.304   5.379  1.00  0.00     0.035 A 
HETATM   40  C   UNL     1      48.943 -32.209   5.548  1.00  0.00     0.036 A 
HETATM   41  C   UNL     1      49.942 -31.029   4.840  1.00  0.00    -0.060 A 
HETATM   42  C   UNL     1      51.403 -30.974   5.120  1.00  0.00     0.048 C 
HETATM   43  C   UNL     1      49.175 -29.811   3.877  1.00  0.00     0.007 A 
HETATM   44  C   UNL     1      47.128 -29.923   3.640  1.00  0.00     0.003 A 
HETATM   45  C   UNL     1      46.295 -31.230   4.438  1.00  0.00     0.029 A 
ENDBRANCH  36  39
ENDBRANCH  34  35
ENDBRANCH   1  34
TORSDOF 8
ENDMDL
MODEL 9
REMARK VINA RESULT:      -8.9      3.494     10.120
REMARK  8 active torsions:
REMARK  status: ('A' for Active; 'I' for Inactive)
REMARK    1  A    between atoms: C_4  and  N_5 
REMARK       I    between atoms: N_5  and  C_6 
REMARK    2  A    between atoms: C_6  and  C_7 
REMARK    3  A    between atoms: C_7  and  N_8 
REMARK    4  A    between atoms: N_11  and  C_12 
REMARK    5  A    between atoms: C_12  and  C_13 
REMARK    6  A    between atoms: C_16  and  C_17 
REMARK       I    between atoms: C_17  and  N_18 
REMARK    7  A    between atoms: N_18  and  C_19 
REMARK    8  A    between atoms: C_19  and  C_20 
ROOT
HETATM    1  N   UNL     1      43.256 -14.030   3.792  1.00  0.00    -0.290 N 
HETATM    2  C   UNL     1      43.279 -12.651   4.027  1.00  0.00     0.332 C 
HETATM    3  O   UNL     1      42.956 -11.860   3.141  1.00  0.00    -0.246 OA
HETATM    4  N   UNL     1      43.689 -12.239   5.291  1.00  0.00    -0.261 N 
HETATM    5  C   UNL     1      43.736 -13.071   6.396  1.00  0.00     0.264 C 
HETATM    6  O   UNL     1      44.084 -12.712   7.518  1.00  0.00    -0.267 OA
HETATM    7  C   UNL     1      43.278 -14.451   6.196  1.00  0.00     0.059 A 
HETATM    8  C   UNL     1      43.055 -14.918   4.899  1.00  0.00     0.055 A 
HETATM    9  C   UNL     1      43.018 -15.249   7.323  1.00  0.00     0.019 A 
HETATM   10  C   UNL     1      42.514 -16.535   7.164  1.00  0.00     0.001 A 
HETATM   11  C   UNL     1      42.292 -17.024   5.883  1.00  0.00     0.002 A 
HETATM   12  C   UNL     1      42.568 -16.228   4.761  1.00  0.00     0.031 A 
ENDROOT
BRANCH   4  13
HETATM   13  C   UNL     1      43.852 -10.806   5.533  1.00  0.00     0.175 C 
BRANCH  13  14
HETATM   14  C   UNL     1      42.768 -10.233   6.417  1.00  0.00    -0.040 A 
HETATM   15  C   UNL     1      43.122  -9.631   7.635  1.00  0.00     0.010 A 
HETATM   16  C   UNL     1      42.142  -9.274   8.552  1.00  0.00     0.017 A 
HETATM   17  C   UNL     1      40.798  -9.515   8.257  1.00  0.00     0.032 A 
HETATM   18  C   UNL     1      40.427 -10.019   7.007  1.00  0.00     0.017 A 
HETATM   19  C   UNL     1      41.412 -10.379   6.087  1.00  0.00     0.010 A 
BRANCH  17  20
HETATM   20  C   UNL     1      39.762  -9.356   9.307  1.00  0.00     0.251 C 
HETATM   21  N   UNL     1      40.276  -9.151  10.572  1.00  0.00    -0.353 N 
HETATM   22  H   UNL     1      41.271  -9.271  10.701  1.00  0.00     0.163 HD
HETATM   23  O   UNL     1      38.575  -9.485   9.042  1.00  0.00    -0.268 OA
BRANCH  21  24
HETATM   24  C   UNL     1      39.460  -9.313  11.750  1.00  0.00     0.161 C 
BRANCH  24  25
HETATM   25  C   UNL     1      40.046  -8.583  12.960  1.00  0.00    -0.038 A 
HETATM   26  C   UNL     1      39.392  -7.382  13.427  1.00  0.00     0.048 A 
HETATM   27  C   UNL     1      40.094  -6.846  14.473  1.00  0.00     0.105 A 
HETATM   28  C   UNL     1      41.575  -7.651  15.090  1.00  0.00     0.105 A 
HETATM   29  O   UNL     1      39.925  -5.138  15.529  1.00  0.00    -0.323 OA
HETATM   30  O   UNL     1      42.367  -6.692  16.381  1.00  0.00    -0.323 OA
HETATM   31  C   UNL     1      42.104  -8.794  14.615  1.00  0.00     0.040 A 
HETATM   32  C   UNL     1      41.429  -5.089  16.759  1.00  0.00     0.352 A 
HETATM   33  C   UNL     1      41.299  -9.232  13.540  1.00  0.00     0.012 A 
ENDBRANCH  24  25
ENDBRANCH  21  24
ENDBRANCH  17  20
ENDBRANCH  13  14
ENDBRANCH   4  13
BRANCH   1  34
HETATM   34  C   UNL     1      42.843 -14.428   2.441  1.00  0.00     0.237 C 
BRANCH  34  35
HETATM   35  C   UNL     1      41.357 -14.321   2.025  1.00  0.00     0.240 C 
HETATM   36  N   UNL     1      41.031 -13.206   1.271  1.00  0.00    -0.326 N 
HETATM   37  H   UNL     1      41.684 -12.434   1.269  1.00  0.00     0.169 HD
HETATM   38  O   UNL     1      40.629 -15.299   2.200  1.00  0.00    -0.271 OA
BRANCH  36  39
HETATM   39  C   UNL     1      39.908 -13.074   0.402  1.00  0.00     0.035 A 
HETATM   40  C   UNL     1      39.694 -14.155  -0.933  1.00  0.00     0.036 A 
HETATM   41  C   UNL     1      38.524 -13.995  -2.155  1.00  0.00    -0.060 A 
HETATM   42  C   UNL     1      38.478 -14.924  -3.317  1.00  0.00     0.048 C 
HETATM   43  C   UNL     1      37.461 -12.631  -2.065  1.00  0.00     0.007 A 
HETATM   44  C   UNL     1      37.681 -11.347  -0.465  1.00  0.00     0.003 A 
HETATM   45  C   UNL     1      38.936 -11.707   0.690  1.00  0.00     0.029 A 
ENDBRANCH  36  39
ENDBRANCH  34  35
ENDBRANCH   1  34
TORSDOF 8
ENDMDL
MODEL 10
REMARK VINA RESULT:      -8.9     19.806     21.713
REMARK  8 active torsions:
REMARK  status: ('A' for Active; 'I' for Inactive)
REMARK    1  A    between atoms: C_4  and  N_5 
REMARK       I    between atoms: N_5  and  C_6 
REMARK    2  A    between atoms: C_6  and  C_7 
REMARK    3  A    between atoms: C_7  and  N_8 
REMARK    4  A    between atoms: N_11  and  C_12 
REMARK    5  A    between atoms: C_12  and  C_13 
REMARK    6  A    between atoms: C_16  and  C_17 
REMARK       I    between atoms: C_17  and  N_18 
REMARK    7  A    between atoms: N_18  and  C_19 
REMARK    8  A    between atoms: C_19  and  C_20 
ROOT
HETATM    1  N   UNL     1      44.226 -33.115   8.242  1.00  0.00    -0.290 N 
HETATM    2  C   UNL     1      43.539 -33.491   7.082  1.00  0.00     0.332 C 
HETATM    3  O   UNL     1      44.051 -34.268   6.276  1.00  0.00    -0.246 OA
HETATM    4  N   UNL     1      42.277 -32.936   6.895  1.00  0.00    -0.261 N 
HETATM    5  C   UNL     1      41.539 -32.341   7.903  1.00  0.00     0.264 C 
HETATM    6  O   UNL     1      40.419 -31.862   7.749  1.00  0.00    -0.267 OA
HETATM    7  C   UNL     1      42.136 -32.352   9.244  1.00  0.00     0.059 A 
HETATM    8  C   UNL     1      43.472 -32.726   9.397  1.00  0.00     0.055 A 
HETATM    9  C   UNL     1      41.325 -32.042  10.349  1.00  0.00     0.019 A 
HETATM   10  C   UNL     1      41.844 -32.115  11.636  1.00  0.00     0.001 A 
HETATM   11  C   UNL     1      43.174 -32.478  11.812  1.00  0.00     0.002 A 
HETATM   12  C   UNL     1      43.983 -32.771  10.705  1.00  0.00     0.031 A 
ENDROOT
BRANCH   4  13
HETATM   13  C   UNL     1      41.585 -33.201   5.635  1.00  0.00     0.175 C 
BRANCH  13  14
HETATM   14  C   UNL     1      41.846 -32.143   4.587  1.00  0.00    -0.040 A 
HETATM   15  C   UNL     1      40.778 -31.667   3.811  1.00  0.00     0.010 A 
HETATM   16  C   UNL     1      41.018 -30.845   2.717  1.00  0.00     0.017 A 
HETATM   17  C   UNL     1      42.330 -30.492   2.392  1.00  0.00     0.032 A 
HETATM   18  C   UNL     1      43.392 -30.876   3.216  1.00  0.00     0.017 A 
HETATM   19  C   UNL     1      43.150 -31.702   4.314  1.00  0.00     0.010 A 
BRANCH  17  20
HETATM   20  C   UNL     1      42.624 -29.812   1.106  1.00  0.00     0.251 C 
HETATM   21  N   UNL     1      43.617 -30.422   0.366  1.00  0.00    -0.353 N 
HETATM   22  H   UNL     1      44.145 -31.162   0.806  1.00  0.00     0.163 HD
HETATM   23  O   UNL     1      42.069 -28.763   0.811  1.00  0.00    -0.268 OA
BRANCH  21  24
HETATM   24  C   UNL     1      44.270 -29.738  -0.723  1.00  0.00     0.161 C 
BRANCH  24  25
HETATM   25  C   UNL     1      45.793 -29.865  -0.651  1.00  0.00    -0.038 A 
HETATM   26  C   UNL     1      46.362 -31.124  -0.230  1.00  0.00     0.048 A 
HETATM   27  C   UNL     1      47.727 -31.022  -0.173  1.00  0.00     0.105 A 
HETATM   28  C   UNL     1      48.551 -29.492  -0.622  1.00  0.00     0.105 A 
HETATM   29  O   UNL     1      49.186 -32.256   0.467  1.00  0.00    -0.323 OA
HETATM   30  O   UNL     1      50.320 -29.583  -0.354  1.00  0.00    -0.323 OA
HETATM   31  C   UNL     1      47.942 -28.365  -1.038  1.00  0.00     0.040 A 
HETATM   32  C   UNL     1      50.855 -31.269   0.326  1.00  0.00     0.352 A 
HETATM   33  C   UNL     1      46.549 -28.598  -1.041  1.00  0.00     0.012 A 
ENDBRANCH  24  25
ENDBRANCH  21  24
ENDBRANCH  17  20
ENDBRANCH  13  14
ENDBRANCH   4  13
BRANCH   1  34
HETATM   34  C   UNL     1      45.564 -33.699   8.394  1.00  0.00     0.237 C 
BRANCH  34  35
HETATM   35  C   UNL     1      46.802 -32.941   7.860  1.00  0.00     0.240 C 
HETATM   36  N   UNL     1      46.945 -32.936   6.483  1.00  0.00    -0.326 N 
HETATM   37  H   UNL     1      46.417 -33.618   5.954  1.00  0.00     0.169 HD
HETATM   38  O   UNL     1      47.440 -32.237   8.644  1.00  0.00    -0.271 OA
BRANCH  36  39
HETATM   39  C   UNL     1      47.684 -31.989   5.715  1.00  0.00     0.035 A 
HETATM   40  C   UNL     1      46.870 -30.836   4.713  1.00  0.00     0.036 A 
HETATM   41  C   UNL     1      47.618 -29.789   3.603  1.00  0.00    -0.060 A 
HETATM   42  C   UNL     1      46.824 -28.897   2.715  1.00  0.00     0.048 C 
HETATM   43  C   UNL     1      49.341 -29.890   3.451  1.00  0.00     0.007 A 
HETATM   44  C   UNL     1      50.333 -31.238   4.657  1.00  0.00     0.003 A 
HETATM   45  C   UNL     1      49.373 -32.204   5.745  1.00  0.00     0.029 A 
ENDBRANCH  36  39
ENDBRANCH  34  35
ENDBRANCH   1  34
TORSDOF 8
ENDMDL
