MODEL 1
REMARK VINA RESULT:      -7.9      0.000      0.000
REMARK  5 active torsions:
REMARK  status: ('A' for Active; 'I' for Inactive)
REMARK    1  A    between atoms: C_6  and  C_7 
REMARK    2  A    between atoms: C_12  and  C_13 
REMARK    3  A    between atoms: C_13  and  N_14 
REMARK    4  A    between atoms: C_17  and  C_19 
REMARK    5  A    between atoms: C_17  and  O_18 
ROOT
HETATM    1  C   UNL     1      42.319 -16.012   2.147  1.00  0.00     0.096 A 
HETATM    2  N   UNL     1      42.947 -15.294   1.209  1.00  0.00    -0.174 NA
HETATM    3  N   UNL     1      42.046 -14.408   0.777  1.00  0.00    -0.288 N 
HETATM    4  H   UNL     1      42.329 -13.743   0.062  1.00  0.00     0.188 HD
HETATM    5  C   UNL     1      40.839 -14.529   1.401  1.00  0.00     0.120 A 
HETATM    6  C   UNL     1      40.965 -15.570   2.304  1.00  0.00     0.016 A 
ENDROOT
BRANCH   6   7
HETATM    7  C   UNL     1      39.949 -16.059   3.267  1.00  0.00     0.277 C 
BRANCH   7   8
HETATM    8  N   UNL     1      40.089 -15.446   4.634  1.00  0.00    -0.064 N 
HETATM    9  H   UNL     1      39.151 -15.147   4.945  1.00  0.00     0.280 HD
HETATM   10  C   UNL     1      40.982 -14.223   4.711  1.00  0.00     0.282 C 
HETATM   11  C   UNL     1      41.228 -14.063   6.213  1.00  0.00     0.180 C 
HETATM   12  C   UNL     1      41.052 -15.463   6.817  1.00  0.00     0.076 C 
HETATM   13  C   UNL     1      40.664 -16.373   5.663  1.00  0.00     0.238 C 
BRANCH  11  14
HETATM   14  C   UNL     1      42.629 -13.488   6.417  1.00  0.00     0.419 C 
HETATM   15  F   UNL     1      43.405 -13.711   5.339  1.00  0.00    -0.168 F 
HETATM   16  F   UNL     1      42.569 -12.160   6.636  1.00  0.00    -0.168 F 
HETATM   17  F   UNL     1      43.219 -14.069   7.484  1.00  0.00    -0.168 F 
ENDBRANCH  11  14
BRANCH  11  18
HETATM   18  O   UNL     1      40.171 -13.240   6.750  1.00  0.00    -0.379 OA
HETATM   19  H   UNL     1      40.207 -13.281   7.729  1.00  0.00     0.211 HD
ENDBRANCH  11  18
ENDBRANCH   7   8
ENDBRANCH   6   7
BRANCH   1  20
HETATM   20  C   UNL     1      43.039 -17.057   2.872  1.00  0.00    -0.003 A 
HETATM   21  C   UNL     1      43.161 -18.349   2.350  1.00  0.00     0.037 A 
HETATM   22  C   UNL     1      43.826 -19.337   3.078  1.00  0.00     0.035 A 
HETATM   23  C   UNL     1      44.392 -19.049   4.317  1.00  0.00     0.024 A 
HETATM   24 CL   UNL     1      43.927 -20.928   2.433  1.00  0.00    -0.084 Cl
HETATM   25  C   UNL     1      44.299 -17.757   4.832  1.00  0.00     0.003 A 
HETATM   26  C   UNL     1      43.626 -16.767   4.113  1.00  0.00     0.014 A 
ENDBRANCH   1  20
TORSDOF 5
ENDMDL
MODEL 2
REMARK VINA RESULT:      -7.8      3.645      4.904
REMARK  5 active torsions:
REMARK  status: ('A' for Active; 'I' for Inactive)
REMARK    1  A    between atoms: C_6  and  C_7 
REMARK    2  A    between atoms: C_12  and  C_13 
REMARK    3  A    between atoms: C_13  and  N_14 
REMARK    4  A    between atoms: C_17  and  C_19 
REMARK    5  A    between atoms: C_17  and  O_18 
ROOT
HETATM    1  C   UNL     1      43.327 -16.752   4.959  1.00  0.00     0.096 A 
HETATM    2  N   UNL     1      44.032 -16.124   5.906  1.00  0.00    -0.174 NA
HETATM    3  N   UNL     1      43.545 -14.881   5.947  1.00  0.00    -0.288 N 
HETATM    4  H   UNL     1      43.938 -14.232   6.625  1.00  0.00     0.188 HD
HETATM    5  C   UNL     1      42.543 -14.671   5.046  1.00  0.00     0.120 A 
HETATM    6  C   UNL     1      42.367 -15.866   4.369  1.00  0.00     0.016 A 
ENDROOT
BRANCH   6   7
HETATM    7  C   UNL     1      41.357 -16.173   3.327  1.00  0.00     0.277 C 
BRANCH   7   8
HETATM    8  N   UNL     1      40.945 -14.964   2.531  1.00  0.00    -0.064 N 
HETATM    9  H   UNL     1      40.573 -14.262   3.190  1.00  0.00     0.280 HD
HETATM   10  C   UNL     1      39.863 -15.203   1.496  1.00  0.00     0.282 C 
HETATM   11  C   UNL     1      39.927 -13.947   0.625  1.00  0.00     0.180 C 
HETATM   12  C   UNL     1      41.359 -13.414   0.765  1.00  0.00     0.076 C 
HETATM   13  C   UNL     1      42.059 -14.343   1.744  1.00  0.00     0.238 C 
BRANCH  11  14
HETATM   14  C   UNL     1      39.561 -14.331  -0.808  1.00  0.00     0.419 C 
HETATM   15  F   UNL     1      38.525 -13.595  -1.255  1.00  0.00    -0.168 F 
HETATM   16  F   UNL     1      40.609 -14.141  -1.632  1.00  0.00    -0.168 F 
HETATM   17  F   UNL     1      39.205 -15.632  -0.865  1.00  0.00    -0.168 F 
ENDBRANCH  11  14
BRANCH  11  18
HETATM   18  O   UNL     1      39.053 -12.958   1.209  1.00  0.00    -0.379 OA
HETATM   19  H   UNL     1      39.138 -13.000   2.185  1.00  0.00     0.211 HD
ENDBRANCH  11  18
ENDBRANCH   7   8
ENDBRANCH   6   7
BRANCH   1  20
HETATM   20  C   UNL     1      43.572 -18.165   4.679  1.00  0.00    -0.003 A 
HETATM   21  C   UNL     1      43.625 -18.646   3.367  1.00  0.00     0.037 A 
HETATM   22  C   UNL     1      43.828 -20.007   3.130  1.00  0.00     0.035 A 
HETATM   23  C   UNL     1      44.002 -20.896   4.187  1.00  0.00     0.024 A 
HETATM   24 CL   UNL     1      43.848 -20.580   1.508  1.00  0.00    -0.084 Cl
HETATM   25  C   UNL     1      43.978 -20.420   5.497  1.00  0.00     0.003 A 
HETATM   26  C   UNL     1      43.764 -19.062   5.741  1.00  0.00     0.014 A 
ENDBRANCH   1  20
TORSDOF 5
ENDMDL
MODEL 3
REMARK VINA RESULT:      -7.8      2.919      4.313
REMARK  5 active torsions:
REMARK  status: ('A' for Active; 'I' for Inactive)
REMARK    1  A    between atoms: C_6  and  C_7 
REMARK    2  A    between atoms: C_12  and  C_13 
REMARK    3  A    between atoms: C_13  and  N_14 
REMARK    4  A    between atoms: C_17  and  C_19 
REMARK    5  A    between atoms: C_17  and  O_18 
ROOT
HETATM    1  C   UNL     1      43.407 -16.581   5.594  1.00  0.00     0.096 A 
HETATM    2  N   UNL     1      44.536 -16.243   6.226  1.00  0.00    -0.174 NA
HETATM    3  N   UNL     1      44.163 -15.407   7.198  1.00  0.00    -0.288 N 
HETATM    4  H   UNL     1      44.879 -15.039   7.820  1.00  0.00     0.188 HD
HETATM    5  C   UNL     1      42.818 -15.180   7.218  1.00  0.00     0.120 A 
HETATM    6  C   UNL     1      42.278 -15.922   6.182  1.00  0.00     0.016 A 
ENDROOT
BRANCH   6   7
HETATM    7  C   UNL     1      40.847 -16.060   5.819  1.00  0.00     0.277 C 
BRANCH   7   8
HETATM    8  N   UNL     1      40.417 -15.102   4.741  1.00  0.00    -0.064 N 
HETATM    9  H   UNL     1      39.641 -14.532   5.113  1.00  0.00     0.280 HD
HETATM   10  C   UNL     1      39.911 -15.743   3.463  1.00  0.00     0.282 C 
HETATM   11  C   UNL     1      39.914 -14.585   2.464  1.00  0.00     0.180 C 
HETATM   12  C   UNL     1      40.970 -13.595   2.975  1.00  0.00     0.076 C 
HETATM   13  C   UNL     1      41.505 -14.184   4.270  1.00  0.00     0.238 C 
BRANCH  11  14
HETATM   14  C   UNL     1      40.228 -15.142   1.076  1.00  0.00     0.419 C 
HETATM   15  F   UNL     1      39.775 -14.318   0.112  1.00  0.00    -0.168 F 
HETATM   16  F   UNL     1      41.556 -15.299   0.917  1.00  0.00    -0.168 F 
HETATM   17  F   UNL     1      39.634 -16.344   0.912  1.00  0.00    -0.168 F 
ENDBRANCH  11  14
BRANCH  11  18
HETATM   18  O   UNL     1      38.638 -13.917   2.554  1.00  0.00    -0.379 OA
HETATM   19  H   UNL     1      37.981 -14.543   2.928  1.00  0.00     0.211 HD
ENDBRANCH  11  18
ENDBRANCH   7   8
ENDBRANCH   6   7
BRANCH   1  20
HETATM   20  C   UNL     1      43.446 -17.534   4.487  1.00  0.00    -0.003 A 
HETATM   21  C   UNL     1      43.726 -18.887   4.705  1.00  0.00     0.037 A 
HETATM   22  C   UNL     1      43.788 -19.771   3.626  1.00  0.00     0.035 A 
HETATM   23  C   UNL     1      43.553 -19.327   2.328  1.00  0.00     0.024 A 
HETATM   24 CL   UNL     1      44.174 -21.421   3.917  1.00  0.00    -0.084 Cl
HETATM   25  C   UNL     1      43.247 -17.986   2.104  1.00  0.00     0.003 A 
HETATM   26  C   UNL     1      43.194 -17.095   3.179  1.00  0.00     0.014 A 
ENDBRANCH   1  20
TORSDOF 5
ENDMDL
MODEL 4
REMARK VINA RESULT:      -7.7      4.244      5.838
REMARK  5 active torsions:
REMARK  status: ('A' for Active; 'I' for Inactive)
REMARK    1  A    between atoms: C_6  and  C_7 
REMARK    2  A    between atoms: C_12  and  C_13 
REMARK    3  A    between atoms: C_13  and  N_14 
REMARK    4  A    between atoms: C_17  and  C_19 
REMARK    5  A    between atoms: C_17  and  O_18 
ROOT
HETATM    1  C   UNL     1      41.422 -15.084   4.183  1.00  0.00     0.096 A 
HETATM    2  N   UNL     1      40.664 -14.899   5.270  1.00  0.00    -0.174 NA
HETATM    3  N   UNL     1      39.841 -13.894   4.962  1.00  0.00    -0.288 N 
HETATM    4  H   UNL     1      39.158 -13.601   5.657  1.00  0.00     0.188 HD
HETATM    5  C   UNL     1      40.042 -13.407   3.704  1.00  0.00     0.120 A 
HETATM    6  C   UNL     1      41.072 -14.150   3.154  1.00  0.00     0.016 A 
ENDROOT
BRANCH   6   7
HETATM    7  C   UNL     1      41.627 -14.048   1.783  1.00  0.00     0.277 C 
BRANCH   7   8
HETATM    8  N   UNL     1      40.666 -13.433   0.802  1.00  0.00    -0.064 N 
HETATM    9  H   UNL     1      39.873 -13.044   1.336  1.00  0.00     0.280 HD
HETATM   10  C   UNL     1      40.076 -14.387  -0.218  1.00  0.00     0.282 C 
HETATM   11  C   UNL     1      39.471 -13.450  -1.266  1.00  0.00     0.180 C 
HETATM   12  C   UNL     1      40.264 -12.140  -1.163  1.00  0.00     0.076 C 
HETATM   13  C   UNL     1      41.263 -12.341  -0.035  1.00  0.00     0.238 C 
BRANCH  11  14
HETATM   14  C   UNL     1      39.580 -14.118  -2.636  1.00  0.00     0.419 C 
HETATM   15  F   UNL     1      38.862 -13.448  -3.558  1.00  0.00    -0.168 F 
HETATM   16  F   UNL     1      40.863 -14.164  -3.040  1.00  0.00    -0.168 F 
HETATM   17  F   UNL     1      39.107 -15.382  -2.576  1.00  0.00    -0.168 F 
ENDBRANCH  11  14
BRANCH  11  18
HETATM   18  O   UNL     1      38.117 -13.152  -0.864  1.00  0.00    -0.379 OA
HETATM   19  H   UNL     1      37.942 -13.585  -0.002  1.00  0.00     0.211 HD
ENDBRANCH  11  18
ENDBRANCH   7   8
ENDBRANCH   6   7
BRANCH   1  20
HETATM   20  C   UNL     1      42.417 -16.155   4.158  1.00  0.00    -0.003 A 
HETATM   21  C   UNL     1      42.370 -17.165   3.191  1.00  0.00     0.037 A 
HETATM   22  C   UNL     1      43.314 -18.193   3.210  1.00  0.00     0.035 A 
HETATM   23  C   UNL     1      44.321 -18.219   4.171  1.00  0.00     0.024 A 
HETATM   24 CL   UNL     1      43.210 -19.445   2.035  1.00  0.00    -0.084 Cl
HETATM   25  C   UNL     1      44.391 -17.201   5.121  1.00  0.00     0.003 A 
HETATM   26  C   UNL     1      43.443 -16.175   5.114  1.00  0.00     0.014 A 
ENDBRANCH   1  20
TORSDOF 5
ENDMDL
MODEL 5
REMARK VINA RESULT:      -7.7      2.226      2.710
REMARK  5 active torsions:
REMARK  status: ('A' for Active; 'I' for Inactive)
REMARK    1  A    between atoms: C_6  and  C_7 
REMARK    2  A    between atoms: C_12  and  C_13 
REMARK    3  A    between atoms: C_13  and  N_14 
REMARK    4  A    between atoms: C_17  and  C_19 
REMARK    5  A    between atoms: C_17  and  O_18 
ROOT
HETATM    1  C   UNL     1      41.198 -15.947   2.730  1.00  0.00     0.096 A 
HETATM    2  N   UNL     1      40.563 -16.068   1.559  1.00  0.00    -0.174 NA
HETATM    3  N   UNL     1      39.707 -15.044   1.511  1.00  0.00    -0.288 N 
HETATM    4  H   UNL     1      39.128 -14.939   0.681  1.00  0.00     0.188 HD
HETATM    5  C   UNL     1      39.756 -14.256   2.623  1.00  0.00     0.120 A 
HETATM    6  C   UNL     1      40.714 -14.809   3.455  1.00  0.00     0.016 A 
ENDROOT
BRANCH   6   7
HETATM    7  C   UNL     1      41.182 -14.290   4.763  1.00  0.00     0.277 C 
BRANCH   7   8
HETATM    8  N   UNL     1      42.015 -13.043   4.639  1.00  0.00    -0.064 N 
HETATM    9  H   UNL     1      42.138 -12.842   3.634  1.00  0.00     0.280 HD
HETATM   10  C   UNL     1      43.406 -13.125   5.238  1.00  0.00     0.282 C 
HETATM   11  C   UNL     1      43.847 -11.662   5.301  1.00  0.00     0.180 C 
HETATM   12  C   UNL     1      42.555 -10.837   5.372  1.00  0.00     0.076 C 
HETATM   13  C   UNL     1      41.413 -11.839   5.300  1.00  0.00     0.238 C 
BRANCH  11  14
HETATM   14  C   UNL     1      44.750 -11.479   6.520  1.00  0.00     0.419 C 
HETATM   15  F   UNL     1      46.046 -11.638   6.190  1.00  0.00    -0.168 F 
HETATM   16  F   UNL     1      44.589 -10.251   7.049  1.00  0.00    -0.168 F 
HETATM   17  F   UNL     1      44.445 -12.393   7.466  1.00  0.00    -0.168 F 
ENDBRANCH  11  14
BRANCH  11  18
HETATM   18  O   UNL     1      44.482 -11.336   4.046  1.00  0.00    -0.379 OA
HETATM   19  H   UNL     1      44.122 -10.483   3.724  1.00  0.00     0.211 HD
ENDBRANCH  11  18
ENDBRANCH   7   8
ENDBRANCH   6   7
BRANCH   1  20
HETATM   20  C   UNL     1      42.253 -16.891   3.092  1.00  0.00    -0.003 A 
HETATM   21  C   UNL     1      42.503 -18.030   2.319  1.00  0.00     0.037 A 
HETATM   22  C   UNL     1      43.496 -18.932   2.706  1.00  0.00     0.035 A 
HETATM   23  C   UNL     1      44.262 -18.703   3.845  1.00  0.00     0.024 A 
HETATM   24 CL   UNL     1      43.755 -20.346   1.761  1.00  0.00    -0.084 Cl
HETATM   25  C   UNL     1      44.038 -17.557   4.605  1.00  0.00     0.003 A 
HETATM   26  C   UNL     1      43.039 -16.655   4.230  1.00  0.00     0.014 A 
ENDBRANCH   1  20
TORSDOF 5
ENDMDL
MODEL 6
REMARK VINA RESULT:      -7.4      8.769     11.468
REMARK  5 active torsions:
REMARK  status: ('A' for Active; 'I' for Inactive)
REMARK    1  A    between atoms: C_6  and  C_7 
REMARK    2  A    between atoms: C_12  and  C_13 
REMARK    3  A    between atoms: C_13  and  N_14 
REMARK    4  A    between atoms: C_17  and  C_19 
REMARK    5  A    between atoms: C_17  and  O_18 
ROOT
HETATM    1  C   UNL     1      40.339  -9.700  12.972  1.00  0.00     0.096 A 
HETATM    2  N   UNL     1      39.684 -10.666  13.625  1.00  0.00    -0.174 NA
HETATM    3  N   UNL     1      39.002 -11.330  12.688  1.00  0.00    -0.288 N 
HETATM    4  H   UNL     1      38.441 -12.128  12.975  1.00  0.00     0.188 HD
HETATM    5  C   UNL     1      39.186 -10.821  11.435  1.00  0.00     0.120 A 
HETATM    6  C   UNL     1      40.049  -9.748  11.569  1.00  0.00     0.016 A 
ENDROOT
BRANCH   6   7
HETATM    7  C   UNL     1      40.605  -8.896  10.490  1.00  0.00     0.277 C 
BRANCH   7   8
HETATM    8  N   UNL     1      41.583  -9.625   9.608  1.00  0.00    -0.064 N 
HETATM    9  H   UNL     1      41.216 -10.575   9.444  1.00  0.00     0.280 HD
HETATM   10  C   UNL     1      42.978  -9.791  10.181  1.00  0.00     0.282 C 
HETATM   11  C   UNL     1      43.809 -10.202   8.964  1.00  0.00     0.180 C 
HETATM   12  C   UNL     1      43.071  -9.637   7.743  1.00  0.00     0.076 C 
HETATM   13  C   UNL     1      41.819  -8.964   8.283  1.00  0.00     0.238 C 
BRANCH  11  14
HETATM   14  C   UNL     1      45.222  -9.642   9.130  1.00  0.00     0.419 C 
HETATM   15  F   UNL     1      45.528  -9.483  10.432  1.00  0.00    -0.168 F 
HETATM   16  F   UNL     1      46.127 -10.468   8.573  1.00  0.00    -0.168 F 
HETATM   17  F   UNL     1      45.318  -8.437   8.528  1.00  0.00    -0.168 F 
ENDBRANCH  11  14
BRANCH  11  18
HETATM   18  O   UNL     1      43.757 -11.640   8.856  1.00  0.00    -0.379 OA
HETATM   19  H   UNL     1      43.417 -11.876   7.967  1.00  0.00     0.211 HD
ENDBRANCH  11  18
ENDBRANCH   7   8
ENDBRANCH   6   7
BRANCH   1  20
HETATM   20  C   UNL     1      41.232  -8.801  13.699  1.00  0.00    -0.003 A 
HETATM   21  C   UNL     1      40.951  -8.404  15.010  1.00  0.00     0.037 A 
HETATM   22  C   UNL     1      41.805  -7.518  15.670  1.00  0.00     0.035 A 
HETATM   23  C   UNL     1      42.953  -7.037  15.046  1.00  0.00     0.024 A 
HETATM   24 CL   UNL     1      41.415  -7.013  17.267  1.00  0.00    -0.084 Cl
HETATM   25  C   UNL     1      43.255  -7.449  13.750  1.00  0.00     0.003 A 
HETATM   26  C   UNL     1      42.399  -8.327  13.080  1.00  0.00     0.014 A 
ENDBRANCH   1  20
TORSDOF 5
ENDMDL
MODEL 7
REMARK VINA RESULT:      -7.3      4.308      5.761
REMARK  5 active torsions:
REMARK  status: ('A' for Active; 'I' for Inactive)
REMARK    1  A    between atoms: C_6  and  C_7 
REMARK    2  A    between atoms: C_12  and  C_13 
REMARK    3  A    between atoms: C_13  and  N_14 
REMARK    4  A    between atoms: C_17  and  C_19 
REMARK    5  A    between atoms: C_17  and  O_18 
ROOT
HETATM    1  C   UNL     1      42.514 -13.574   2.873  1.00  0.00     0.096 A 
HETATM    2  N   UNL     1      43.488 -12.660   2.942  1.00  0.00    -0.174 NA
HETATM    3  N   UNL     1      42.876 -11.479   2.824  1.00  0.00    -0.288 N 
HETATM    4  H   UNL     1      43.444 -10.636   2.869  1.00  0.00     0.188 HD
HETATM    5  C   UNL     1      41.526 -11.591   2.671  1.00  0.00     0.120 A 
HETATM    6  C   UNL     1      41.239 -12.945   2.690  1.00  0.00     0.016 A 
ENDROOT
BRANCH   6   7
HETATM    7  C   UNL     1      39.904 -13.587   2.618  1.00  0.00     0.277 C 
BRANCH   7   8
HETATM    8  N   UNL     1      39.260 -13.457   1.264  1.00  0.00    -0.064 N 
HETATM    9  H   UNL     1      38.430 -14.070   1.246  1.00  0.00     0.280 HD
HETATM   10  C   UNL     1      40.127 -13.866   0.088  1.00  0.00     0.282 C 
HETATM   11  C   UNL     1      39.380 -13.287  -1.115  1.00  0.00     0.180 C 
HETATM   12  C   UNL     1      38.571 -12.101  -0.574  1.00  0.00     0.076 C 
HETATM   13  C   UNL     1      38.834 -12.060   0.922  1.00  0.00     0.238 C 
BRANCH  11  14
HETATM   14  C   UNL     1      40.405 -12.887  -2.176  1.00  0.00     0.419 C 
HETATM   15  F   UNL     1      41.457 -12.259  -1.618  1.00  0.00    -0.168 F 
HETATM   16  F   UNL     1      40.853 -13.972  -2.836  1.00  0.00    -0.168 F 
HETATM   17  F   UNL     1      39.843 -12.046  -3.072  1.00  0.00    -0.168 F 
ENDBRANCH  11  14
BRANCH  11  18
HETATM   18  O   UNL     1      38.427 -14.274  -1.563  1.00  0.00    -0.379 OA
HETATM   19  H   UNL     1      37.526 -13.974  -1.317  1.00  0.00     0.211 HD
ENDBRANCH  11  18
ENDBRANCH   7   8
ENDBRANCH   6   7
BRANCH   1  20
HETATM   20  C   UNL     1      42.831 -14.993   3.016  1.00  0.00    -0.003 A 
HETATM   21  C   UNL     1      43.029 -15.569   4.275  1.00  0.00     0.037 A 
HETATM   22  C   UNL     1      43.363 -16.920   4.381  1.00  0.00     0.035 A 
HETATM   23  C   UNL     1      43.482 -17.716   3.244  1.00  0.00     0.024 A 
HETATM   24 CL   UNL     1      43.641 -17.594   5.939  1.00  0.00    -0.084 Cl
HETATM   25  C   UNL     1      43.260 -17.157   1.987  1.00  0.00     0.003 A 
HETATM   26  C   UNL     1      42.936 -15.802   1.874  1.00  0.00     0.014 A 
ENDBRANCH   1  20
TORSDOF 5
ENDMDL
MODEL 8
REMARK VINA RESULT:      -7.1      3.392      4.813
REMARK  5 active torsions:
REMARK  status: ('A' for Active; 'I' for Inactive)
REMARK    1  A    between atoms: C_6  and  C_7 
REMARK    2  A    between atoms: C_12  and  C_13 
REMARK    3  A    between atoms: C_13  and  N_14 
REMARK    4  A    between atoms: C_17  and  C_19 
REMARK    5  A    between atoms: C_17  and  O_18 
ROOT
HETATM    1  C   UNL     1      42.898 -14.345   6.085  1.00  0.00     0.096 A 
HETATM    2  N   UNL     1      43.742 -13.569   6.773  1.00  0.00    -0.174 NA
HETATM    3  N   UNL     1      43.188 -12.354   6.773  1.00  0.00    -0.288 N 
HETATM    4  H   UNL     1      43.669 -11.605   7.266  1.00  0.00     0.188 HD
HETATM    5  C   UNL     1      42.005 -12.308   6.096  1.00  0.00     0.120 A 
HETATM    6  C   UNL     1      41.774 -13.587   5.621  1.00  0.00     0.016 A 
ENDROOT
BRANCH   6   7
HETATM    7  C   UNL     1      40.590 -14.072   4.870  1.00  0.00     0.277 C 
BRANCH   7   8
HETATM    8  N   UNL     1      40.937 -14.621   3.513  1.00  0.00    -0.064 N 
HETATM    9  H   UNL     1      41.910 -14.964   3.548  1.00  0.00     0.280 HD
HETATM   10  C   UNL     1      40.868 -13.627   2.370  1.00  0.00     0.282 C 
HETATM   11  C   UNL     1      40.892 -14.519   1.127  1.00  0.00     0.180 C 
HETATM   12  C   UNL     1      40.331 -15.875   1.575  1.00  0.00     0.076 C 
HETATM   13  C   UNL     1      40.048 -15.742   3.063  1.00  0.00     0.238 C 
BRANCH  11  14
HETATM   14  C   UNL     1      40.060 -13.851   0.034  1.00  0.00     0.419 C 
HETATM   15  F   UNL     1      39.419 -14.770  -0.714  1.00  0.00    -0.168 F 
HETATM   16  F   UNL     1      39.145 -13.023   0.573  1.00  0.00    -0.168 F 
HETATM   17  F   UNL     1      40.858 -13.130  -0.783  1.00  0.00    -0.168 F 
ENDBRANCH  11  14
BRANCH  11  18
HETATM   18  O   UNL     1      42.272 -14.736   0.764  1.00  0.00    -0.379 OA
HETATM   19  H   UNL     1      42.836 -14.551   1.545  1.00  0.00     0.211 HD
ENDBRANCH  11  18
ENDBRANCH   7   8
ENDBRANCH   6   7
BRANCH   1  20
HETATM   20  C   UNL     1      43.178 -15.771   5.927  1.00  0.00    -0.003 A 
HETATM   21  C   UNL     1      43.486 -16.316   4.676  1.00  0.00     0.037 A 
HETATM   22  C   UNL     1      43.718 -17.687   4.549  1.00  0.00     0.035 A 
HETATM   23  C   UNL     1      43.667 -18.523   5.661  1.00  0.00     0.024 A 
HETATM   24 CL   UNL     1      44.054 -18.338   2.993  1.00  0.00    -0.084 Cl
HETATM   25  C   UNL     1      43.388 -17.985   6.915  1.00  0.00     0.003 A 
HETATM   26  C   UNL     1      43.145 -16.615   7.047  1.00  0.00     0.014 A 
ENDBRANCH   1  20
TORSDOF 5
ENDMDL
MODEL 9
REMARK VINA RESULT:      -7.1      5.838      7.619
REMARK  5 active torsions:
REMARK  status: ('A' for Active; 'I' for Inactive)
REMARK    1  A    between atoms: C_6  and  C_7 
REMARK    2  A    between atoms: C_12  and  C_13 
REMARK    3  A    between atoms: C_13  and  N_14 
REMARK    4  A    between atoms: C_17  and  C_19 
REMARK    5  A    between atoms: C_17  and  O_18 
ROOT
HETATM    1  C   UNL     1      44.884 -11.079   6.996  1.00  0.00     0.096 A 
HETATM    2  N   UNL     1      46.212 -11.115   6.838  1.00  0.00    -0.174 NA
HETATM    3  N   UNL     1      46.679 -10.063   7.515  1.00  0.00    -0.288 N 
HETATM    4  H   UNL     1      47.685  -9.913   7.539  1.00  0.00     0.188 HD
HETATM    5  C   UNL     1      45.693  -9.331   8.109  1.00  0.00     0.120 A 
HETATM    6  C   UNL     1      44.497  -9.952   7.793  1.00  0.00     0.016 A 
ENDROOT
BRANCH   6   7
HETATM    7  C   UNL     1      43.136  -9.577   8.247  1.00  0.00     0.277 C 
BRANCH   7   8
HETATM    8  N   UNL     1      42.812 -10.088   9.625  1.00  0.00    -0.064 N 
HETATM    9  H   UNL     1      42.106 -10.835   9.528  1.00  0.00     0.280 HD
HETATM   10  C   UNL     1      42.233  -9.064  10.581  1.00  0.00     0.282 C 
HETATM   11  C   UNL     1      42.362  -9.745  11.945  1.00  0.00     0.180 C 
HETATM   12  C   UNL     1      43.523 -10.739  11.807  1.00  0.00     0.076 C 
HETATM   13  C   UNL     1      43.994 -10.638  10.365  1.00  0.00     0.238 C 
BRANCH  11  14
HETATM   14  C   UNL     1      42.608  -8.670  13.003  1.00  0.00     0.419 C 
HETATM   15  F   UNL     1      42.506  -9.183  14.244  1.00  0.00    -0.168 F 
HETATM   16  F   UNL     1      43.834  -8.134  12.859  1.00  0.00    -0.168 F 
HETATM   17  F   UNL     1      41.695  -7.682  12.883  1.00  0.00    -0.168 F 
ENDBRANCH  11  14
BRANCH  11  18
HETATM   18  O   UNL     1      41.168 -10.525  12.166  1.00  0.00    -0.379 OA
HETATM   19  H   UNL     1      41.430 -11.439  12.405  1.00  0.00     0.211 HD
ENDBRANCH  11  18
ENDBRANCH   7   8
ENDBRANCH   6   7
BRANCH   1  20
HETATM   20  C   UNL     1      44.049 -12.128   6.414  1.00  0.00    -0.003 A 
HETATM   21  C   UNL     1      43.668 -13.248   7.160  1.00  0.00     0.037 A 
HETATM   22  C   UNL     1      42.897 -14.251   6.570  1.00  0.00     0.035 A 
HETATM   23  C   UNL     1      42.481 -14.143   5.246  1.00  0.00     0.024 A 
HETATM   24 CL   UNL     1      42.475 -15.637   7.497  1.00  0.00    -0.084 Cl
HETATM   25  C   UNL     1      42.834 -13.018   4.504  1.00  0.00     0.003 A 
HETATM   26  C   UNL     1      43.614 -12.016   5.085  1.00  0.00     0.014 A 
ENDBRANCH   1  20
TORSDOF 5
ENDMDL
MODEL 10
REMARK VINA RESULT:      -7.1     14.358     15.427
REMARK  5 active torsions:
REMARK  status: ('A' for Active; 'I' for Inactive)
REMARK    1  A    between atoms: C_6  and  C_7 
REMARK    2  A    between atoms: C_12  and  C_13 
REMARK    3  A    between atoms: C_13  and  N_14 
REMARK    4  A    between atoms: C_17  and  C_19 
REMARK    5  A    between atoms: C_17  and  O_18 
ROOT
HETATM    1  C   UNL     1      43.539 -29.414   0.289  1.00  0.00     0.096 A 
HETATM    2  N   UNL     1      42.368 -28.869   0.634  1.00  0.00    -0.174 NA
HETATM    3  N   UNL     1      42.105 -29.335   1.857  1.00  0.00    -0.288 N 
HETATM    4  H   UNL     1      41.253 -29.024   2.318  1.00  0.00     0.188 HD
HETATM    5  C   UNL     1      43.068 -30.180   2.324  1.00  0.00     0.120 A 
HETATM    6  C   UNL     1      44.028 -30.269   1.330  1.00  0.00     0.016 A 
ENDROOT
BRANCH   6   7
HETATM    7  C   UNL     1      45.306 -31.020   1.374  1.00  0.00     0.277 C 
BRANCH   7   8
HETATM    8  N   UNL     1      46.515 -30.124   1.388  1.00  0.00    -0.064 N 
HETATM    9  H   UNL     1      46.634 -29.736   0.440  1.00  0.00     0.280 HD
HETATM   10  C   UNL     1      47.824 -30.801   1.748  1.00  0.00     0.282 C 
HETATM   11  C   UNL     1      48.757 -29.625   2.045  1.00  0.00     0.180 C 
HETATM   12  C   UNL     1      47.846 -28.467   2.473  1.00  0.00     0.076 C 
HETATM   13  C   UNL     1      46.423 -28.989   2.364  1.00  0.00     0.238 C 
BRANCH  11  14
HETATM   14  C   UNL     1      49.745 -30.052   3.130  1.00  0.00     0.419 C 
HETATM   15  F   UNL     1      50.984 -29.599   2.859  1.00  0.00    -0.168 F 
HETATM   16  F   UNL     1      49.366 -29.574   4.330  1.00  0.00    -0.168 F 
HETATM   17  F   UNL     1      49.800 -31.399   3.206  1.00  0.00    -0.168 F 
ENDBRANCH  11  14
BRANCH  11  18
HETATM   18  O   UNL     1      49.381 -29.230   0.805  1.00  0.00    -0.379 OA
HETATM   19  H   UNL     1      50.033 -29.916   0.548  1.00  0.00     0.211 HD
ENDBRANCH  11  18
ENDBRANCH   7   8
ENDBRANCH   6   7
BRANCH   1  20
HETATM   20  C   UNL     1      44.156 -29.076  -0.992  1.00  0.00    -0.003 A 
HETATM   21  C   UNL     1      43.760 -29.706  -2.177  1.00  0.00     0.037 A 
HETATM   22  C   UNL     1      44.388 -29.387  -3.382  1.00  0.00     0.035 A 
HETATM   23  C   UNL     1      45.396 -28.428  -3.427  1.00  0.00     0.024 A 
HETATM   24 CL   UNL     1      43.911 -30.206  -4.817  1.00  0.00    -0.084 Cl
HETATM   25  C   UNL     1      45.777 -27.775  -2.256  1.00  0.00     0.003 A 
HETATM   26  C   UNL     1      45.160 -28.098  -1.046  1.00  0.00     0.014 A 
ENDBRANCH   1  20
TORSDOF 5
ENDMDL
