MODEL 1
REMARK VINA RESULT:      -7.8      0.000      0.000
REMARK  6 active torsions:
REMARK  status: ('A' for Active; 'I' for Inactive)
REMARK    1  A    between atoms: C_2  and  C_3 
REMARK    2  A    between atoms: C_3  and  O_4 
REMARK    3  A    between atoms: O_4  and  C_5 
REMARK    4  A    between atoms: C_9  and  C_10 
REMARK       I    between atoms: C_10  and  N_11 
REMARK    5  A    between atoms: N_11  and  C_12 
REMARK    6  A    between atoms: C_25  and  O_26 
ROOT
HETATM    1  C   UNL     1      43.239 -12.705   4.990  1.00  0.00     0.256 C 
HETATM    2  N   UNL     1      42.929 -13.989   5.407  1.00  0.00    -0.323 N 
HETATM    3  O   UNL     1      43.600 -12.382   3.864  1.00  0.00    -0.267 OA
HETATM    4  H   UNL     1      42.733 -14.123   6.392  1.00  0.00     0.169 HD
ENDROOT
BRANCH   1   5
HETATM    5  C   UNL     1      43.149 -11.640   6.031  1.00  0.00     0.036 A 
HETATM    6  C   UNL     1      44.246 -11.447   6.878  1.00  0.00     0.044 A 
HETATM    7  C   UNL     1      44.209 -10.468   7.878  1.00  0.00     0.071 A 
HETATM    8  C   UNL     1      43.065  -9.675   8.052  1.00  0.00     0.123 A 
HETATM    9 CL   UNL     1      45.640 -10.262   8.824  1.00  0.00    -0.081 Cl
HETATM   10  C   UNL     1      42.008  -9.813   7.138  1.00  0.00     0.104 A 
HETATM   11  C   UNL     1      42.035 -10.805   6.154  1.00  0.00     0.056 A 
BRANCH   8  12
HETATM   12  O   UNL     1      42.941  -8.730   9.038  1.00  0.00    -0.346 OA
BRANCH  12  13
HETATM   13  C   UNL     1      42.388  -9.243  10.258  1.00  0.00     0.179 C 
BRANCH  13  14
HETATM   14  C   UNL     1      43.467  -9.358  11.347  1.00  0.00     0.002 C 
HETATM   15  C   UNL     1      43.591 -10.790  11.866  1.00  0.00     0.011 C 
HETATM   16  C   UNL     1      43.207  -8.395  12.506  1.00  0.00     0.011 C 
ENDBRANCH  13  14
ENDBRANCH  12  13
ENDBRANCH   8  12
BRANCH  10  17
HETATM   17  O   UNL     1      40.863  -9.056   7.164  1.00  0.00    -0.353 OA
HETATM   18  C   UNL     1      39.727  -9.794   7.623  1.00  0.00     0.210 C 
ENDBRANCH  10  17
ENDBRANCH   1   5
BRANCH   2  19
HETATM   19  C   UNL     1      42.923 -15.160   4.618  1.00  0.00     0.035 A 
HETATM   20  C   UNL     1      43.667 -16.302   4.925  1.00  0.00     0.039 A 
HETATM   21  C   UNL     1      43.586 -17.403   4.084  1.00  0.00    -0.022 A 
HETATM   22  C   UNL     1      42.781 -17.391   2.944  1.00  0.00    -0.025 A 
HETATM   23  C   UNL     1      44.255 -18.725   4.242  1.00  0.00     0.274 C 
HETATM   24  C   UNL     1      42.853 -18.705   2.244  1.00  0.00     0.273 C 
HETATM   25  C   UNL     1      42.034 -16.272   2.620  1.00  0.00     0.012 A 
HETATM   26  N   UNL     1      44.015 -19.430   2.912  1.00  0.00    -0.067 N 
HETATM   27  H   UNL     1      44.842 -19.225   2.339  1.00  0.00     0.280 HD
HETATM   28  C   UNL     1      43.856 -20.903   3.014  1.00  0.00     0.270 C 
HETATM   29  C   UNL     1      42.112 -15.155   3.464  1.00  0.00     0.030 A 
ENDBRANCH   2  19
TORSDOF 6
ENDMDL
MODEL 2
REMARK VINA RESULT:      -7.7      6.070      8.959
REMARK  6 active torsions:
REMARK  status: ('A' for Active; 'I' for Inactive)
REMARK    1  A    between atoms: C_2  and  C_3 
REMARK    2  A    between atoms: C_3  and  O_4 
REMARK    3  A    between atoms: O_4  and  C_5 
REMARK    4  A    between atoms: C_9  and  C_10 
REMARK       I    between atoms: C_10  and  N_11 
REMARK    5  A    between atoms: N_11  and  C_12 
REMARK    6  A    between atoms: C_25  and  O_26 
ROOT
HETATM    1  C   UNL     1      40.807 -14.632   0.888  1.00  0.00     0.256 C 
HETATM    2  N   UNL     1      42.117 -15.005   1.146  1.00  0.00    -0.323 N 
HETATM    3  O   UNL     1      39.819 -15.004   1.511  1.00  0.00    -0.267 OA
HETATM    4  H   UNL     1      42.825 -14.693   0.493  1.00  0.00     0.169 HD
ENDROOT
BRANCH   1   5
HETATM    5  C   UNL     1      40.604 -13.722  -0.276  1.00  0.00     0.036 A 
HETATM    6  C   UNL     1      41.115 -12.421  -0.197  1.00  0.00     0.044 A 
HETATM    7  C   UNL     1      40.943 -11.524  -1.257  1.00  0.00     0.071 A 
HETATM    8  C   UNL     1      40.244 -11.913  -2.409  1.00  0.00     0.123 A 
HETATM    9 CL   UNL     1      41.672  -9.967  -1.089  1.00  0.00    -0.081 Cl
HETATM   10  C   UNL     1      39.818 -13.247  -2.517  1.00  0.00     0.104 A 
HETATM   11  C   UNL     1      39.970 -14.137  -1.450  1.00  0.00     0.056 A 
BRANCH   8  12
HETATM   12  O   UNL     1      39.998 -11.074  -3.465  1.00  0.00    -0.346 OA
BRANCH  12  13
HETATM   13  C   UNL     1      38.865 -10.217  -3.266  1.00  0.00     0.179 C 
BRANCH  13  14
HETATM   14  C   UNL     1      39.178  -8.779  -3.709  1.00  0.00     0.002 C 
HETATM   15  C   UNL     1      40.558  -8.679  -4.357  1.00  0.00     0.011 C 
HETATM   16  C   UNL     1      39.066  -7.792  -2.547  1.00  0.00     0.011 C 
ENDBRANCH  13  14
ENDBRANCH  12  13
ENDBRANCH   8  12
BRANCH  10  17
HETATM   17  O   UNL     1      39.179 -13.766  -3.615  1.00  0.00    -0.353 OA
HETATM   18  C   UNL     1      38.328 -14.867  -3.287  1.00  0.00     0.210 C 
ENDBRANCH  10  17
ENDBRANCH   1   5
BRANCH   2  19
HETATM   19  C   UNL     1      42.573 -15.838   2.190  1.00  0.00     0.035 A 
HETATM   20  C   UNL     1      42.823 -17.204   2.035  1.00  0.00     0.039 A 
HETATM   21  C   UNL     1      43.275 -17.933   3.126  1.00  0.00    -0.022 A 
HETATM   22  C   UNL     1      43.481 -17.332   4.368  1.00  0.00    -0.025 A 
HETATM   23  C   UNL     1      43.641 -19.377   3.172  1.00  0.00     0.274 C 
HETATM   24  C   UNL     1      43.997 -18.330   5.348  1.00  0.00     0.273 C 
HETATM   25  C   UNL     1      43.242 -15.980   4.546  1.00  0.00     0.012 A 
HETATM   26  N   UNL     1      43.808 -19.675   4.657  1.00  0.00    -0.067 N 
HETATM   27  H   UNL     1      42.897 -20.029   4.972  1.00  0.00     0.280 HD
HETATM   28  C   UNL     1      44.849 -20.688   4.970  1.00  0.00     0.270 C 
HETATM   29  C   UNL     1      42.784 -15.238   3.449  1.00  0.00     0.030 A 
ENDBRANCH   2  19
TORSDOF 6
ENDMDL
MODEL 3
REMARK VINA RESULT:      -7.7      1.287      2.124
REMARK  6 active torsions:
REMARK  status: ('A' for Active; 'I' for Inactive)
REMARK    1  A    between atoms: C_2  and  C_3 
REMARK    2  A    between atoms: C_3  and  O_4 
REMARK    3  A    between atoms: O_4  and  C_5 
REMARK    4  A    between atoms: C_9  and  C_10 
REMARK       I    between atoms: C_10  and  N_11 
REMARK    5  A    between atoms: N_11  and  C_12 
REMARK    6  A    between atoms: C_25  and  O_26 
ROOT
HETATM    1  C   UNL     1      43.293 -12.722   5.018  1.00  0.00     0.256 C 
HETATM    2  N   UNL     1      43.056 -14.018   5.450  1.00  0.00    -0.323 N 
HETATM    3  O   UNL     1      43.546 -12.383   3.868  1.00  0.00    -0.267 OA
HETATM    4  H   UNL     1      42.950 -14.162   6.446  1.00  0.00     0.169 HD
ENDROOT
BRANCH   1   5
HETATM    5  C   UNL     1      43.261 -11.666   6.072  1.00  0.00     0.036 A 
HETATM    6  C   UNL     1      42.068 -10.961   6.267  1.00  0.00     0.044 A 
HETATM    7  C   UNL     1      41.987  -9.954   7.235  1.00  0.00     0.071 A 
HETATM    8  C   UNL     1      43.107  -9.629   8.015  1.00  0.00     0.123 A 
HETATM    9 CL   UNL     1      40.451  -9.193   7.446  1.00  0.00    -0.081 Cl
HETATM   10  C   UNL     1      44.270 -10.404   7.876  1.00  0.00     0.104 A 
HETATM   11  C   UNL     1      44.358 -11.395   6.894  1.00  0.00     0.056 A 
BRANCH   8  12
HETATM   12  O   UNL     1      43.114  -8.625   8.949  1.00  0.00    -0.346 OA
BRANCH  12  13
HETATM   13  C   UNL     1      42.487  -8.987  10.187  1.00  0.00     0.179 C 
BRANCH  13  14
HETATM   14  C   UNL     1      43.533  -9.200  11.293  1.00  0.00     0.002 C 
HETATM   15  C   UNL     1      43.656 -10.675  11.673  1.00  0.00     0.011 C 
HETATM   16  C   UNL     1      43.228  -8.358  12.531  1.00  0.00     0.011 C 
ENDBRANCH  13  14
ENDBRANCH  12  13
ENDBRANCH   8  12
BRANCH  10  17
HETATM   17  O   UNL     1      45.409 -10.226   8.620  1.00  0.00    -0.353 OA
HETATM   18  C   UNL     1      46.342  -9.341   7.996  1.00  0.00     0.210 C 
ENDBRANCH  10  17
ENDBRANCH   1   5
BRANCH   2  19
HETATM   19  C   UNL     1      43.016 -15.183   4.655  1.00  0.00     0.035 A 
HETATM   20  C   UNL     1      43.761 -16.332   4.930  1.00  0.00     0.039 A 
HETATM   21  C   UNL     1      43.645 -17.428   4.087  1.00  0.00    -0.022 A 
HETATM   22  C   UNL     1      42.804 -17.403   2.974  1.00  0.00    -0.025 A 
HETATM   23  C   UNL     1      44.310 -18.756   4.216  1.00  0.00     0.274 C 
HETATM   24  C   UNL     1      42.843 -18.714   2.265  1.00  0.00     0.273 C 
HETATM   25  C   UNL     1      42.054 -16.278   2.681  1.00  0.00     0.012 A 
HETATM   26  N   UNL     1      44.022 -19.451   2.891  1.00  0.00    -0.067 N 
HETATM   27  H   UNL     1      44.831 -19.249   2.292  1.00  0.00     0.280 HD
HETATM   28  C   UNL     1      43.855 -20.923   2.989  1.00  0.00     0.270 C 
HETATM   29  C   UNL     1      42.168 -15.167   3.528  1.00  0.00     0.030 A 
ENDBRANCH   2  19
TORSDOF 6
ENDMDL
MODEL 4
REMARK VINA RESULT:      -7.6      6.198      9.421
REMARK  6 active torsions:
REMARK  status: ('A' for Active; 'I' for Inactive)
REMARK    1  A    between atoms: C_2  and  C_3 
REMARK    2  A    between atoms: C_3  and  O_4 
REMARK    3  A    between atoms: O_4  and  C_5 
REMARK    4  A    between atoms: C_9  and  C_10 
REMARK       I    between atoms: C_10  and  N_11 
REMARK    5  A    between atoms: N_11  and  C_12 
REMARK    6  A    between atoms: C_25  and  O_26 
ROOT
HETATM    1  C   UNL     1      40.775 -14.702   0.716  1.00  0.00     0.256 C 
HETATM    2  N   UNL     1      42.085 -14.760   1.165  1.00  0.00    -0.323 N 
HETATM    3  O   UNL     1      39.833 -15.348   1.163  1.00  0.00    -0.267 OA
HETATM    4  H   UNL     1      42.777 -14.238   0.642  1.00  0.00     0.169 HD
ENDROOT
BRANCH   1   5
HETATM    5  C   UNL     1      40.518 -13.788  -0.435  1.00  0.00     0.036 A 
HETATM    6  C   UNL     1      41.009 -12.480  -0.365  1.00  0.00     0.044 A 
HETATM    7  C   UNL     1      40.788 -11.579  -1.413  1.00  0.00     0.071 A 
HETATM    8  C   UNL     1      40.058 -11.974  -2.544  1.00  0.00     0.123 A 
HETATM    9 CL   UNL     1      41.494 -10.011  -1.259  1.00  0.00    -0.081 Cl
HETATM   10  C   UNL     1      39.651 -13.314  -2.646  1.00  0.00     0.104 A 
HETATM   11  C   UNL     1      39.852 -14.208  -1.590  1.00  0.00     0.056 A 
BRANCH   8  12
HETATM   12  O   UNL     1      39.763 -11.134  -3.586  1.00  0.00    -0.346 OA
BRANCH  12  13
HETATM   13  C   UNL     1      38.628 -10.291  -3.342  1.00  0.00     0.179 C 
BRANCH  13  14
HETATM   14  C   UNL     1      38.786  -8.935  -4.048  1.00  0.00     0.002 C 
HETATM   15  C   UNL     1      37.857  -8.819  -5.255  1.00  0.00     0.011 C 
HETATM   16  C   UNL     1      40.234  -8.680  -4.467  1.00  0.00     0.011 C 
ENDBRANCH  13  14
ENDBRANCH  12  13
ENDBRANCH   8  12
BRANCH  10  17
HETATM   17  O   UNL     1      38.985 -13.838  -3.726  1.00  0.00    -0.353 OA
HETATM   18  C   UNL     1      38.192 -14.977  -3.384  1.00  0.00     0.210 C 
ENDBRANCH  10  17
ENDBRANCH   1   5
BRANCH   2  19
HETATM   19  C   UNL     1      42.581 -15.528   2.240  1.00  0.00     0.035 A 
HETATM   20  C   UNL     1      42.790 -15.017   3.524  1.00  0.00     0.039 A 
HETATM   21  C   UNL     1      43.277 -15.860   4.513  1.00  0.00    -0.022 A 
HETATM   22  C   UNL     1      43.562 -17.201   4.250  1.00  0.00    -0.025 A 
HETATM   23  C   UNL     1      43.531 -15.538   5.945  1.00  0.00     0.274 C 
HETATM   24  C   UNL     1      44.036 -17.882   5.488  1.00  0.00     0.273 C 
HETATM   25  C   UNL     1      43.362 -17.730   2.987  1.00  0.00     0.012 A 
HETATM   26  N   UNL     1      44.293 -16.748   6.473  1.00  0.00    -0.067 N 
HETATM   27  H   UNL     1      45.287 -16.511   6.377  1.00  0.00     0.280 HD
HETATM   28  C   UNL     1      44.015 -17.081   7.893  1.00  0.00     0.270 C 
HETATM   29  C   UNL     1      42.871 -16.884   1.983  1.00  0.00     0.030 A 
ENDBRANCH   2  19
TORSDOF 6
ENDMDL
MODEL 5
REMARK VINA RESULT:      -7.1      3.309      9.831
REMARK  6 active torsions:
REMARK  status: ('A' for Active; 'I' for Inactive)
REMARK    1  A    between atoms: C_2  and  C_3 
REMARK    2  A    between atoms: C_3  and  O_4 
REMARK    3  A    between atoms: O_4  and  C_5 
REMARK    4  A    between atoms: C_9  and  C_10 
REMARK       I    between atoms: C_10  and  N_11 
REMARK    5  A    between atoms: N_11  and  C_12 
REMARK    6  A    between atoms: C_25  and  O_26 
ROOT
HETATM    1  C   UNL     1      43.946 -10.864   8.196  1.00  0.00     0.256 C 
HETATM    2  N   UNL     1      42.827 -10.394   8.864  1.00  0.00    -0.323 N 
HETATM    3  O   UNL     1      45.110 -10.575   8.451  1.00  0.00    -0.267 OA
HETATM    4  H   UNL     1      41.922 -10.645   8.486  1.00  0.00     0.169 HD
ENDROOT
BRANCH   1   5
HETATM    5  C   UNL     1      43.685 -11.780   7.047  1.00  0.00     0.036 A 
HETATM    6  C   UNL     1      43.468 -11.214   5.786  1.00  0.00     0.044 A 
HETATM    7  C   UNL     1      43.209 -12.027   4.676  1.00  0.00     0.071 A 
HETATM    8  C   UNL     1      43.152 -13.421   4.818  1.00  0.00     0.123 A 
HETATM    9 CL   UNL     1      43.025 -11.235   3.152  1.00  0.00    -0.081 Cl
HETATM   10  C   UNL     1      43.464 -13.983   6.066  1.00  0.00     0.104 A 
HETATM   11  C   UNL     1      43.700 -13.171   7.180  1.00  0.00     0.056 A 
BRANCH   8  12
HETATM   12  O   UNL     1      42.858 -14.276   3.786  1.00  0.00    -0.346 OA
BRANCH  12  13
HETATM   13  C   UNL     1      41.452 -14.418   3.541  1.00  0.00     0.179 C 
BRANCH  13  14
HETATM   14  C   UNL     1      41.039 -15.898   3.544  1.00  0.00     0.002 C 
HETATM   15  C   UNL     1      40.508 -16.330   4.910  1.00  0.00     0.011 C 
HETATM   16  C   UNL     1      42.189 -16.808   3.111  1.00  0.00     0.011 C 
ENDBRANCH  13  14
ENDBRANCH  12  13
ENDBRANCH   8  12
BRANCH  10  17
HETATM   17  O   UNL     1      43.501 -15.332   6.318  1.00  0.00    -0.353 OA
HETATM   18  C   UNL     1      42.949 -15.669   7.592  1.00  0.00     0.210 C 
ENDBRANCH  10  17
ENDBRANCH   1   5
BRANCH   2  19
HETATM   19  C   UNL     1      42.805  -9.535   9.984  1.00  0.00     0.035 A 
HETATM   20  C   UNL     1      42.457  -8.183   9.914  1.00  0.00     0.039 A 
HETATM   21  C   UNL     1      42.462  -7.426  11.077  1.00  0.00    -0.022 A 
HETATM   22  C   UNL     1      42.809  -7.986  12.308  1.00  0.00    -0.025 A 
HETATM   23  C   UNL     1      42.088  -5.992  11.237  1.00  0.00     0.274 C 
HETATM   24  C   UNL     1      42.699  -6.967  13.390  1.00  0.00     0.273 C 
HETATM   25  C   UNL     1      43.156  -9.322  12.402  1.00  0.00     0.012 A 
HETATM   26  N   UNL     1      42.532  -5.644  12.652  1.00  0.00    -0.067 N 
HETATM   27  H   UNL     1      43.476  -5.252  12.557  1.00  0.00     0.280 HD
HETATM   28  C   UNL     1      41.670  -4.650  13.342  1.00  0.00     0.270 C 
HETATM   29  C   UNL     1      43.154 -10.092  11.231  1.00  0.00     0.030 A 
ENDBRANCH   2  19
TORSDOF 6
ENDMDL
MODEL 6
REMARK VINA RESULT:      -6.9      3.093      9.628
REMARK  6 active torsions:
REMARK  status: ('A' for Active; 'I' for Inactive)
REMARK    1  A    between atoms: C_2  and  C_3 
REMARK    2  A    between atoms: C_3  and  O_4 
REMARK    3  A    between atoms: O_4  and  C_5 
REMARK    4  A    between atoms: C_9  and  C_10 
REMARK       I    between atoms: C_10  and  N_11 
REMARK    5  A    between atoms: N_11  and  C_12 
REMARK    6  A    between atoms: C_25  and  O_26 
ROOT
HETATM    1  C   UNL     1      43.076 -11.429   5.693  1.00  0.00     0.256 C 
HETATM    2  N   UNL     1      42.766 -11.140   7.012  1.00  0.00    -0.323 N 
HETATM    3  O   UNL     1      43.442 -10.620   4.847  1.00  0.00    -0.267 OA
HETATM    4  H   UNL     1      42.389 -11.893   7.575  1.00  0.00     0.169 HD
ENDROOT
BRANCH   1   5
HETATM    5  C   UNL     1      42.914 -12.853   5.280  1.00  0.00     0.036 A 
HETATM    6  C   UNL     1      42.588 -13.795   6.262  1.00  0.00     0.044 A 
HETATM    7  C   UNL     1      42.434 -15.145   5.930  1.00  0.00     0.071 A 
HETATM    8  C   UNL     1      42.618 -15.575   4.607  1.00  0.00     0.123 A 
HETATM    9 CL   UNL     1      41.963 -16.215   7.202  1.00  0.00    -0.081 Cl
HETATM   10  C   UNL     1      42.852 -14.610   3.615  1.00  0.00     0.104 A 
HETATM   11  C   UNL     1      43.028 -13.264   3.949  1.00  0.00     0.056 A 
BRANCH   8  12
HETATM   12  O   UNL     1      42.528 -16.887   4.218  1.00  0.00    -0.346 OA
BRANCH  12  13
HETATM   13  C   UNL     1      43.705 -17.654   4.510  1.00  0.00     0.179 C 
BRANCH  13  14
HETATM   14  C   UNL     1      44.012 -18.645   3.375  1.00  0.00     0.002 C 
HETATM   15  C   UNL     1      43.032 -18.488   2.213  1.00  0.00     0.011 C 
HETATM   16  C   UNL     1      44.018 -20.091   3.872  1.00  0.00     0.011 C 
ENDBRANCH  13  14
ENDBRANCH  12  13
ENDBRANCH   8  12
BRANCH  10  17
HETATM   17  O   UNL     1      42.988 -14.896   2.279  1.00  0.00    -0.353 OA
HETATM   18  C   UNL     1      41.801 -14.617   1.533  1.00  0.00     0.210 C 
ENDBRANCH  10  17
ENDBRANCH   1   5
BRANCH   2  19
HETATM   19  C   UNL     1      42.850  -9.883   7.649  1.00  0.00     0.035 A 
HETATM   20  C   UNL     1      41.750  -9.044   7.851  1.00  0.00     0.039 A 
HETATM   21  C   UNL     1      41.941  -7.829   8.493  1.00  0.00    -0.022 A 
HETATM   22  C   UNL     1      43.202  -7.431   8.938  1.00  0.00    -0.025 A 
HETATM   23  C   UNL     1      40.911  -6.810   8.845  1.00  0.00     0.274 C 
HETATM   24  C   UNL     1      43.118  -6.108   9.619  1.00  0.00     0.273 C 
HETATM   25  C   UNL     1      44.305  -8.245   8.751  1.00  0.00     0.012 A 
HETATM   26  N   UNL     1      41.720  -5.597   9.289  1.00  0.00    -0.067 N 
HETATM   27  H   UNL     1      41.824  -5.013   8.450  1.00  0.00     0.280 HD
HETATM   28  C   UNL     1      41.083  -4.787  10.358  1.00  0.00     0.270 C 
HETATM   29  C   UNL     1      44.121  -9.473   8.101  1.00  0.00     0.030 A 
ENDBRANCH   2  19
TORSDOF 6
ENDMDL
MODEL 7
REMARK VINA RESULT:      -6.9     17.719     19.714
REMARK  6 active torsions:
REMARK  status: ('A' for Active; 'I' for Inactive)
REMARK    1  A    between atoms: C_2  and  C_3 
REMARK    2  A    between atoms: C_3  and  O_4 
REMARK    3  A    between atoms: O_4  and  C_5 
REMARK    4  A    between atoms: C_9  and  C_10 
REMARK       I    between atoms: C_10  and  N_11 
REMARK    5  A    between atoms: N_11  and  C_12 
REMARK    6  A    between atoms: C_25  and  O_26 
ROOT
HETATM    1  C   UNL     1      48.337 -29.460   3.235  1.00  0.00     0.256 C 
HETATM    2  N   UNL     1      48.601 -30.787   3.534  1.00  0.00    -0.323 N 
HETATM    3  O   UNL     1      48.808 -28.486   3.812  1.00  0.00    -0.267 OA
HETATM    4  H   UNL     1      48.070 -31.489   3.033  1.00  0.00     0.169 HD
ENDROOT
BRANCH   1   5
HETATM    5  C   UNL     1      47.367 -29.219   2.127  1.00  0.00     0.036 A 
HETATM    6  C   UNL     1      47.868 -28.810   0.886  1.00  0.00     0.044 A 
HETATM    7  C   UNL     1      47.000 -28.562  -0.184  1.00  0.00     0.071 A 
HETATM    8  C   UNL     1      45.614 -28.708  -0.021  1.00  0.00     0.123 A 
HETATM    9 CL   UNL     1      47.722 -28.129  -1.692  1.00  0.00    -0.081 Cl
HETATM   10  C   UNL     1      45.131 -29.208   1.198  1.00  0.00     0.104 A 
HETATM   11  C   UNL     1      45.995 -29.436   2.274  1.00  0.00     0.056 A 
BRANCH   8  12
HETATM   12  O   UNL     1      44.703 -28.438  -1.010  1.00  0.00    -0.346 OA
BRANCH  12  13
HETATM   13  C   UNL     1      44.505 -29.528  -1.921  1.00  0.00     0.179 C 
BRANCH  13  14
HETATM   14  C   UNL     1      44.127 -29.015  -3.320  1.00  0.00     0.002 C 
HETATM   15  C   UNL     1      44.111 -30.146  -4.347  1.00  0.00     0.011 C 
HETATM   16  C   UNL     1      45.057 -27.893  -3.782  1.00  0.00     0.011 C 
ENDBRANCH  13  14
ENDBRANCH  12  13
ENDBRANCH   8  12
BRANCH  10  17
HETATM   17  O   UNL     1      43.806 -29.453   1.460  1.00  0.00    -0.353 OA
HETATM   18  C   UNL     1      43.614 -30.233   2.643  1.00  0.00     0.210 C 
ENDBRANCH  10  17
ENDBRANCH   1   5
BRANCH   2  19
HETATM   19  C   UNL     1      49.485 -31.276   4.519  1.00  0.00     0.035 A 
HETATM   20  C   UNL     1      49.119 -32.213   5.490  1.00  0.00     0.039 A 
HETATM   21  C   UNL     1      50.068 -32.632   6.412  1.00  0.00    -0.022 A 
HETATM   22  C   UNL     1      51.373 -32.138   6.388  1.00  0.00    -0.025 A 
HETATM   23  C   UNL     1      49.907 -33.644   7.494  1.00  0.00     0.274 C 
HETATM   24  C   UNL     1      52.189 -32.777   7.460  1.00  0.00     0.273 C 
HETATM   25  C   UNL     1      51.760 -31.211   5.436  1.00  0.00     0.012 A 
HETATM   26  N   UNL     1      51.170 -33.501   8.333  1.00  0.00    -0.067 N 
HETATM   27  H   UNL     1      50.929 -32.846   9.087  1.00  0.00     0.280 HD
HETATM   28  C   UNL     1      51.657 -34.767   8.939  1.00  0.00     0.270 C 
HETATM   29  C   UNL     1      50.806 -30.782   4.503  1.00  0.00     0.030 A 
ENDBRANCH   2  19
TORSDOF 6
ENDMDL
MODEL 8
REMARK VINA RESULT:      -6.9     18.330     20.715
REMARK  6 active torsions:
REMARK  status: ('A' for Active; 'I' for Inactive)
REMARK    1  A    between atoms: C_2  and  C_3 
REMARK    2  A    between atoms: C_3  and  O_4 
REMARK    3  A    between atoms: O_4  and  C_5 
REMARK    4  A    between atoms: C_9  and  C_10 
REMARK       I    between atoms: C_10  and  N_11 
REMARK    5  A    between atoms: N_11  and  C_12 
REMARK    6  A    between atoms: C_25  and  O_26 
ROOT
HETATM    1  C   UNL     1      50.402 -31.447   2.403  1.00  0.00     0.256 C 
HETATM    2  N   UNL     1      50.206 -30.939   3.677  1.00  0.00    -0.323 N 
HETATM    3  O   UNL     1      51.040 -32.456   2.121  1.00  0.00    -0.267 OA
HETATM    4  H   UNL     1      49.734 -30.046   3.753  1.00  0.00     0.169 HD
ENDROOT
BRANCH   1   5
HETATM    5  C   UNL     1      49.800 -30.662   1.286  1.00  0.00     0.036 A 
HETATM    6  C   UNL     1      48.706 -29.836   1.572  1.00  0.00     0.044 A 
HETATM    7  C   UNL     1      48.098 -29.086   0.559  1.00  0.00     0.071 A 
HETATM    8  C   UNL     1      48.570 -29.162  -0.760  1.00  0.00     0.123 A 
HETATM    9 CL   UNL     1      46.801 -28.047   1.027  1.00  0.00    -0.081 Cl
HETATM   10  C   UNL     1      49.724 -29.919  -1.018  1.00  0.00     0.104 A 
HETATM   11  C   UNL     1      50.319 -30.686  -0.011  1.00  0.00     0.056 A 
BRANCH   8  12
HETATM   12  O   UNL     1      47.995 -28.492  -1.810  1.00  0.00    -0.346 OA
BRANCH  12  13
HETATM   13  C   UNL     1      46.876 -29.180  -2.387  1.00  0.00     0.179 C 
BRANCH  13  14
HETATM   14  C   UNL     1      45.632 -28.279  -2.418  1.00  0.00     0.002 C 
HETATM   15  C   UNL     1      44.487 -28.872  -1.599  1.00  0.00     0.011 C 
HETATM   16  C   UNL     1      45.171 -28.000  -3.849  1.00  0.00     0.011 C 
ENDBRANCH  13  14
ENDBRANCH  12  13
ENDBRANCH   8  12
BRANCH  10  17
HETATM   17  O   UNL     1      50.318 -30.024  -2.250  1.00  0.00    -0.353 OA
HETATM   18  C   UNL     1      51.573 -30.708  -2.200  1.00  0.00     0.210 C 
ENDBRANCH  10  17
ENDBRANCH   1   5
BRANCH   2  19
HETATM   19  C   UNL     1      50.657 -31.498   4.892  1.00  0.00     0.035 A 
HETATM   20  C   UNL     1      51.884 -31.181   5.480  1.00  0.00     0.039 A 
HETATM   21  C   UNL     1      52.231 -31.784   6.681  1.00  0.00    -0.022 A 
HETATM   22  C   UNL     1      51.381 -32.696   7.309  1.00  0.00    -0.025 A 
HETATM   23  C   UNL     1      53.460 -31.562   7.494  1.00  0.00     0.274 C 
HETATM   24  C   UNL     1      51.979 -33.162   8.592  1.00  0.00     0.273 C 
HETATM   25  C   UNL     1      50.160 -33.024   6.747  1.00  0.00     0.012 A 
HETATM   26  N   UNL     1      53.418 -32.664   8.546  1.00  0.00    -0.067 N 
HETATM   27  H   UNL     1      53.972 -33.437   8.157  1.00  0.00     0.280 HD
HETATM   28  C   UNL     1      53.989 -32.283   9.863  1.00  0.00     0.270 C 
HETATM   29  C   UNL     1      49.804 -32.421   5.533  1.00  0.00     0.030 A 
ENDBRANCH   2  19
TORSDOF 6
ENDMDL
MODEL 9
REMARK VINA RESULT:      -6.9     17.937     20.097
REMARK  6 active torsions:
REMARK  status: ('A' for Active; 'I' for Inactive)
REMARK    1  A    between atoms: C_2  and  C_3 
REMARK    2  A    between atoms: C_3  and  O_4 
REMARK    3  A    between atoms: O_4  and  C_5 
REMARK    4  A    between atoms: C_9  and  C_10 
REMARK       I    between atoms: C_10  and  N_11 
REMARK    5  A    between atoms: N_11  and  C_12 
REMARK    6  A    between atoms: C_25  and  O_26 
ROOT
HETATM    1  C   UNL     1      48.923 -29.748   2.976  1.00  0.00     0.256 C 
HETATM    2  N   UNL     1      49.434 -31.017   3.202  1.00  0.00    -0.323 N 
HETATM    3  O   UNL     1      48.818 -28.856   3.811  1.00  0.00    -0.267 OA
HETATM    4  H   UNL     1      49.375 -31.682   2.441  1.00  0.00     0.169 HD
ENDROOT
BRANCH   1   5
HETATM    5  C   UNL     1      48.434 -29.477   1.592  1.00  0.00     0.036 A 
HETATM    6  C   UNL     1      49.269 -29.809   0.519  1.00  0.00     0.044 A 
HETATM    7  C   UNL     1      48.864 -29.567  -0.798  1.00  0.00     0.071 A 
HETATM    8  C   UNL     1      47.619 -28.976  -1.059  1.00  0.00     0.123 A 
HETATM    9 CL   UNL     1      49.936 -30.076  -2.053  1.00  0.00    -0.081 Cl
HETATM   10  C   UNL     1      46.751 -28.734   0.018  1.00  0.00     0.104 A 
HETATM   11  C   UNL     1      47.164 -28.955   1.336  1.00  0.00     0.056 A 
BRANCH   8  12
HETATM   12  O   UNL     1      47.176 -28.668  -2.320  1.00  0.00    -0.346 OA
BRANCH  12  13
HETATM   13  C   UNL     1      46.489 -29.748  -2.968  1.00  0.00     0.179 C 
BRANCH  13  14
HETATM   14  C   UNL     1      45.298 -29.231  -3.789  1.00  0.00     0.002 C 
HETATM   15  C   UNL     1      45.170 -27.711  -3.696  1.00  0.00     0.011 C 
HETATM   16  C   UNL     1      43.988 -29.899  -3.372  1.00  0.00     0.011 C 
ENDBRANCH  13  14
ENDBRANCH  12  13
ENDBRANCH   8  12
BRANCH  10  17
HETATM   17  O   UNL     1      45.487 -28.217  -0.111  1.00  0.00    -0.353 OA
HETATM   18  C   UNL     1      44.468 -29.169   0.207  1.00  0.00     0.210 C 
ENDBRANCH  10  17
ENDBRANCH   1   5
BRANCH   2  19
HETATM   19  C   UNL     1      49.969 -31.513   4.410  1.00  0.00     0.035 A 
HETATM   20  C   UNL     1      51.232 -31.165   4.897  1.00  0.00     0.039 A 
HETATM   21  C   UNL     1      51.662 -31.706   6.100  1.00  0.00    -0.022 A 
HETATM   22  C   UNL     1      50.862 -32.589   6.828  1.00  0.00    -0.025 A 
HETATM   23  C   UNL     1      52.942 -31.441   6.816  1.00  0.00     0.274 C 
HETATM   24  C   UNL     1      51.548 -32.989   8.089  1.00  0.00     0.273 C 
HETATM   25  C   UNL     1      49.607 -32.947   6.367  1.00  0.00     0.012 A 
HETATM   26  N   UNL     1      52.978 -32.491   7.921  1.00  0.00    -0.067 N 
HETATM   27  H   UNL     1      53.509 -33.280   7.534  1.00  0.00     0.280 HD
HETATM   28  C   UNL     1      53.635 -32.043   9.176  1.00  0.00     0.270 C 
HETATM   29  C   UNL     1      49.167 -32.405   5.152  1.00  0.00     0.030 A 
ENDBRANCH   2  19
TORSDOF 6
ENDMDL
MODEL 10
REMARK VINA RESULT:      -6.8      6.222      8.702
REMARK  6 active torsions:
REMARK  status: ('A' for Active; 'I' for Inactive)
REMARK    1  A    between atoms: C_2  and  C_3 
REMARK    2  A    between atoms: C_3  and  O_4 
REMARK    3  A    between atoms: O_4  and  C_5 
REMARK    4  A    between atoms: C_9  and  C_10 
REMARK       I    between atoms: C_10  and  N_11 
REMARK    5  A    between atoms: N_11  and  C_12 
REMARK    6  A    between atoms: C_25  and  O_26 
ROOT
HETATM    1  C   UNL     1      40.558 -14.525   1.312  1.00  0.00     0.256 C 
HETATM    2  N   UNL     1      41.888 -14.873   1.489  1.00  0.00    -0.323 N 
HETATM    3  O   UNL     1      39.610 -14.957   1.958  1.00  0.00    -0.267 OA
HETATM    4  H   UNL     1      42.556 -14.506   0.823  1.00  0.00     0.169 HD
ENDROOT
BRANCH   1   5
HETATM    5  C   UNL     1      40.276 -13.558   0.211  1.00  0.00     0.036 A 
HETATM    6  C   UNL     1      39.783 -14.059  -0.999  1.00  0.00     0.044 A 
HETATM    7  C   UNL     1      39.511 -13.197  -2.068  1.00  0.00     0.071 A 
HETATM    8  C   UNL     1      39.742 -11.819  -1.943  1.00  0.00     0.123 A 
HETATM    9 CL   UNL     1      38.841 -13.905  -3.493  1.00  0.00    -0.081 Cl
HETATM   10  C   UNL     1      40.147 -11.316  -0.696  1.00  0.00     0.104 A 
HETATM   11  C   UNL     1      40.440 -12.179   0.365  1.00  0.00     0.056 A 
BRANCH   8  12
HETATM   12  O   UNL     1      39.542 -10.922  -2.961  1.00  0.00    -0.346 OA
BRANCH  12  13
HETATM   13  C   UNL     1      40.748 -10.555  -3.647  1.00  0.00     0.179 C 
BRANCH  13  14
HETATM   14  C   UNL     1      40.743  -9.061  -4.008  1.00  0.00     0.002 C 
HETATM   15  C   UNL     1      41.697  -8.266  -3.119  1.00  0.00     0.011 C 
HETATM   16  C   UNL     1      39.336  -8.467  -3.941  1.00  0.00     0.011 C 
ENDBRANCH  13  14
ENDBRANCH  12  13
ENDBRANCH   8  12
BRANCH  10  17
HETATM   17  O   UNL     1      40.347  -9.985  -0.429  1.00  0.00    -0.353 OA
HETATM   18  C   UNL     1      41.526  -9.750   0.345  1.00  0.00     0.210 C 
ENDBRANCH  10  17
ENDBRANCH   1   5
BRANCH   2  19
HETATM   19  C   UNL     1      42.414 -15.748   2.464  1.00  0.00     0.035 A 
HETATM   20  C   UNL     1      42.680 -17.099   2.225  1.00  0.00     0.039 A 
HETATM   21  C   UNL     1      43.202 -17.874   3.251  1.00  0.00    -0.022 A 
HETATM   22  C   UNL     1      43.464 -17.331   4.511  1.00  0.00    -0.025 A 
HETATM   23  C   UNL     1      43.596 -19.310   3.204  1.00  0.00     0.274 C 
HETATM   24  C   UNL     1      44.050 -18.367   5.409  1.00  0.00     0.273 C 
HETATM   25  C   UNL     1      43.211 -15.996   4.770  1.00  0.00     0.012 A 
HETATM   26  N   UNL     1      43.848 -19.679   4.661  1.00  0.00    -0.067 N 
HETATM   27  H   UNL     1      42.962 -20.067   5.005  1.00  0.00     0.280 HD
HETATM   28  C   UNL     1      44.922 -20.685   4.866  1.00  0.00     0.270 C 
HETATM   29  C   UNL     1      42.682 -15.209   3.739  1.00  0.00     0.030 A 
ENDBRANCH   2  19
TORSDOF 6
ENDMDL
