MODEL 1
REMARK VINA RESULT:      -8.7      0.000      0.000
REMARK  9 active torsions:
REMARK  status: ('A' for Active; 'I' for Inactive)
REMARK    1  A    between atoms: C_2  and  N_3 
REMARK    2  A    between atoms: C_4  and  S_5 
REMARK    3  A    between atoms: S_5  and  C_6 
REMARK    4  A    between atoms: C_6  and  C_7 
REMARK       I    between atoms: C_7  and  N_8 
REMARK    5  A    between atoms: N_8  and  C_9 
REMARK    6  A    between atoms: C_12  and  O_13 
REMARK    7  A    between atoms: C_19  and  C_20 
REMARK    8  A    between atoms: C_23  and  S_24 
REMARK    9  A    between atoms: S_24  and  N_25 
ROOT
HETATM    1  N   UNL     1      41.638 -12.712   3.929  1.00  0.00    -0.308 N 
HETATM    2  C   UNL     1      41.714 -12.734   2.561  1.00  0.00     0.192 A 
HETATM    3  N   UNL     1      42.587 -11.848   2.147  1.00  0.00    -0.122 NA
HETATM    4  N   UNL     1      43.139 -11.261   3.253  1.00  0.00    -0.128 NA
HETATM    5  C   UNL     1      42.589 -11.792   4.333  1.00  0.00     0.164 A 
ENDROOT
BRANCH   5   6
HETATM    6  C   UNL     1      42.913 -11.393   5.701  1.00  0.00     0.012 A 
HETATM    7  C   UNL     1      42.257 -10.287   6.262  1.00  0.00     0.017 A 
HETATM    8  C   UNL     1      42.551  -9.861   7.559  1.00  0.00     0.026 A 
HETATM    9  C   UNL     1      43.525 -10.537   8.297  1.00  0.00     0.074 A 
HETATM   10  C   UNL     1      44.206 -11.626   7.750  1.00  0.00     0.026 A 
HETATM   11  C   UNL     1      43.901 -12.047   6.451  1.00  0.00     0.017 A 
BRANCH   9  12
HETATM   12  S   UNL     1      43.908  -9.989   9.934  1.00  0.00     0.243 S 
HETATM   13  O   UNL     1      43.764 -11.111  10.830  1.00  0.00    -0.206 OA
HETATM   14  O   UNL     1      45.119  -9.198   9.903  1.00  0.00    -0.206 OA
BRANCH  12  15
HETATM   15  N   UNL     1      42.654  -8.876  10.294  1.00  0.00    -0.203 NA
HETATM   16  C   UNL     1      43.062  -7.640  11.035  1.00  0.00     0.135 C 
HETATM   17  C   UNL     1      43.203  -7.868  12.556  1.00  0.00     0.250 C 
HETATM   18  N   UNL     1      41.964  -8.549  13.132  1.00  0.00    -0.073 N 
HETATM   19  H   UNL     1      41.175  -7.900  13.017  1.00  0.00     0.279 HD
HETATM   20  C   UNL     1      42.110  -8.811  14.605  1.00  0.00     0.269 C 
HETATM   21  C   UNL     1      41.617  -9.827  12.370  1.00  0.00     0.250 C 
HETATM   22  C   UNL     1      41.429  -9.504  10.880  1.00  0.00     0.135 C 
ENDBRANCH  12  15
ENDBRANCH   9  12
ENDBRANCH   5   6
BRANCH   1  23
HETATM   23  C   UNL     1      40.651 -13.378   4.758  1.00  0.00     0.128 C 
HETATM   24  C   UNL     1      39.447 -12.514   5.095  1.00  0.00     0.027 C 
ENDBRANCH   1  23
BRANCH   2  25
HETATM   25  S   UNL     1      40.787 -13.786   1.552  1.00  0.00    -0.081 SA
BRANCH  25  26
HETATM   26  C   UNL     1      41.999 -15.080   1.163  1.00  0.00     0.185 C 
BRANCH  26  27
HETATM   27  C   UNL     1      42.018 -16.166   2.230  1.00  0.00     0.231 C 
HETATM   28  N   UNL     1      43.189 -16.905   2.225  1.00  0.00    -0.327 N 
HETATM   29  H   UNL     1      43.966 -16.500   1.704  1.00  0.00     0.169 HD
HETATM   30  O   UNL     1      41.061 -16.330   2.983  1.00  0.00    -0.272 OA
BRANCH  28  31
HETATM   31  C   UNL     1      43.487 -18.067   2.960  1.00  0.00     0.034 A 
HETATM   32  C   UNL     1      43.397 -19.289   2.278  1.00  0.00     0.032 A 
HETATM   33  C   UNL     1      43.636 -20.497   2.939  1.00  0.00     0.039 A 
HETATM   34  C   UNL     1      43.972 -20.479   4.286  1.00  0.00     0.065 A 
HETATM   35  C   UNL     1      44.076 -19.277   4.975  1.00  0.00     0.039 A 
HETATM   36  C   UNL     1      43.829 -18.071   4.314  1.00  0.00     0.032 A 
BRANCH  34  37
HETATM   37  O   UNL     1      44.205 -21.631   4.977  1.00  0.00    -0.361 OA
HETATM   38  H   UNL     1      43.691 -21.611   5.800  1.00  0.00     0.217 HD
ENDBRANCH  34  37
ENDBRANCH  28  31
ENDBRANCH  26  27
ENDBRANCH  25  26
ENDBRANCH   2  25
TORSDOF 9
ENDMDL
MODEL 2
REMARK VINA RESULT:      -8.6      1.777      2.343
REMARK  9 active torsions:
REMARK  status: ('A' for Active; 'I' for Inactive)
REMARK    1  A    between atoms: C_2  and  N_3 
REMARK    2  A    between atoms: C_4  and  S_5 
REMARK    3  A    between atoms: S_5  and  C_6 
REMARK    4  A    between atoms: C_6  and  C_7 
REMARK       I    between atoms: C_7  and  N_8 
REMARK    5  A    between atoms: N_8  and  C_9 
REMARK    6  A    between atoms: C_12  and  O_13 
REMARK    7  A    between atoms: C_19  and  C_20 
REMARK    8  A    between atoms: C_23  and  S_24 
REMARK    9  A    between atoms: S_24  and  N_25 
ROOT
HETATM    1  N   UNL     1      42.595 -12.063   5.005  1.00  0.00    -0.308 N 
HETATM    2  C   UNL     1      42.724 -12.117   3.641  1.00  0.00     0.192 A 
HETATM    3  N   UNL     1      42.520 -10.929   3.125  1.00  0.00    -0.122 NA
HETATM    4  N   UNL     1      42.303 -10.060   4.159  1.00  0.00    -0.128 NA
HETATM    5  C   UNL     1      42.369 -10.731   5.298  1.00  0.00     0.164 A 
ENDROOT
BRANCH   5   6
HETATM    6  C   UNL     1      42.163 -10.134   6.616  1.00  0.00     0.012 A 
HETATM    7  C   UNL     1      40.853  -9.894   7.057  1.00  0.00     0.017 A 
HETATM    8  C   UNL     1      40.612  -9.308   8.302  1.00  0.00     0.026 A 
HETATM    9  C   UNL     1      41.693  -8.942   9.107  1.00  0.00     0.074 A 
HETATM   10  C   UNL     1      43.005  -9.152   8.678  1.00  0.00     0.026 A 
HETATM   11  C   UNL     1      43.235  -9.743   7.431  1.00  0.00     0.017 A 
BRANCH   9  12
HETATM   12  S   UNL     1      41.388  -8.187  10.676  1.00  0.00     0.243 S 
HETATM   13  O   UNL     1      42.041  -6.900  10.691  1.00  0.00    -0.206 OA
HETATM   14  O   UNL     1      39.987  -8.326  11.011  1.00  0.00    -0.206 OA
BRANCH  12  15
HETATM   15  N   UNL     1      42.217  -9.200  11.784  1.00  0.00    -0.203 NA
HETATM   16  C   UNL     1      41.360 -10.033  12.686  1.00  0.00     0.135 C 
HETATM   17  C   UNL     1      40.829  -9.248  13.906  1.00  0.00     0.250 C 
HETATM   18  N   UNL     1      41.959  -8.521  14.631  1.00  0.00    -0.073 N 
HETATM   19  H   UNL     1      42.592  -9.236  15.011  1.00  0.00     0.279 HD
HETATM   20  C   UNL     1      41.446  -7.722  15.796  1.00  0.00     0.269 C 
HETATM   21  C   UNL     1      42.775  -7.651  13.676  1.00  0.00     0.250 C 
HETATM   22  C   UNL     1      43.320  -8.516  12.529  1.00  0.00     0.135 C 
ENDBRANCH  12  15
ENDBRANCH   9  12
ENDBRANCH   5   6
BRANCH   1  23
HETATM   23  C   UNL     1      42.533 -13.187   5.919  1.00  0.00     0.128 C 
HETATM   24  C   UNL     1      43.808 -13.402   6.717  1.00  0.00     0.027 C 
ENDBRANCH   1  23
BRANCH   2  25
HETATM   25  S   UNL     1      43.101 -13.551   2.756  1.00  0.00    -0.081 SA
BRANCH  25  26
HETATM   26  C   UNL     1      41.488 -14.382   2.699  1.00  0.00     0.185 C 
BRANCH  26  27
HETATM   27  C   UNL     1      41.584 -15.820   3.189  1.00  0.00     0.231 C 
HETATM   28  N   UNL     1      42.832 -16.380   2.974  1.00  0.00    -0.327 N 
HETATM   29  H   UNL     1      43.581 -15.723   2.755  1.00  0.00     0.169 HD
HETATM   30  O   UNL     1      40.618 -16.378   3.704  1.00  0.00    -0.272 OA
BRANCH  28  31
HETATM   31  C   UNL     1      43.229 -17.717   3.160  1.00  0.00     0.034 A 
HETATM   32  C   UNL     1      42.907 -18.621   2.136  1.00  0.00     0.032 A 
HETATM   33  C   UNL     1      43.226 -19.977   2.253  1.00  0.00     0.039 A 
HETATM   34  C   UNL     1      43.874 -20.426   3.396  1.00  0.00     0.065 A 
HETATM   35  C   UNL     1      44.209 -19.543   4.415  1.00  0.00     0.039 A 
HETATM   36  C   UNL     1      43.882 -18.189   4.300  1.00  0.00     0.032 A 
BRANCH  34  37
HETATM   37  O   UNL     1      44.197 -21.740   3.560  1.00  0.00    -0.361 OA
HETATM   38  H   UNL     1      43.381 -22.265   3.553  1.00  0.00     0.217 HD
ENDBRANCH  34  37
ENDBRANCH  28  31
ENDBRANCH  26  27
ENDBRANCH  25  26
ENDBRANCH   2  25
TORSDOF 9
ENDMDL
MODEL 3
REMARK VINA RESULT:      -8.2      2.934      4.242
REMARK  9 active torsions:
REMARK  status: ('A' for Active; 'I' for Inactive)
REMARK    1  A    between atoms: C_2  and  N_3 
REMARK    2  A    between atoms: C_4  and  S_5 
REMARK    3  A    between atoms: S_5  and  C_6 
REMARK    4  A    between atoms: C_6  and  C_7 
REMARK       I    between atoms: C_7  and  N_8 
REMARK    5  A    between atoms: N_8  and  C_9 
REMARK    6  A    between atoms: C_12  and  O_13 
REMARK    7  A    between atoms: C_19  and  C_20 
REMARK    8  A    between atoms: C_23  and  S_24 
REMARK    9  A    between atoms: S_24  and  N_25 
ROOT
HETATM    1  N   UNL     1      43.279 -10.434   7.315  1.00  0.00    -0.308 N 
HETATM    2  C   UNL     1      44.007 -11.333   6.580  1.00  0.00     0.192 A 
HETATM    3  N   UNL     1      45.008 -11.787   7.294  1.00  0.00    -0.122 NA
HETATM    4  N   UNL     1      44.921 -11.223   8.538  1.00  0.00    -0.128 NA
HETATM    5  C   UNL     1      43.867 -10.424   8.567  1.00  0.00     0.164 A 
ENDROOT
BRANCH   5   6
HETATM    6  C   UNL     1      43.470  -9.629   9.728  1.00  0.00     0.012 A 
HETATM    7  C   UNL     1      43.509  -8.229   9.640  1.00  0.00     0.017 A 
HETATM    8  C   UNL     1      43.156  -7.433  10.732  1.00  0.00     0.026 A 
HETATM    9  C   UNL     1      42.778  -8.043  11.931  1.00  0.00     0.074 A 
HETATM   10  C   UNL     1      42.754  -9.434  12.046  1.00  0.00     0.026 A 
HETATM   11  C   UNL     1      43.106 -10.222  10.945  1.00  0.00     0.017 A 
BRANCH   9  12
HETATM   12  S   UNL     1      42.346  -7.035  13.317  1.00  0.00     0.243 S 
HETATM   13  O   UNL     1      43.440  -7.071  14.258  1.00  0.00    -0.206 OA
HETATM   14  O   UNL     1      41.797  -5.782  12.846  1.00  0.00    -0.206 OA
BRANCH  12  15
HETATM   15  N   UNL     1      41.025  -7.865  14.029  1.00  0.00    -0.203 NA
HETATM   16  C   UNL     1      39.666  -7.506  13.514  1.00  0.00     0.135 C 
HETATM   17  C   UNL     1      39.104  -6.212  14.145  1.00  0.00     0.250 C 
HETATM   18  N   UNL     1      39.193  -6.256  15.669  1.00  0.00    -0.073 N 
HETATM   19  H   UNL     1      38.579  -7.016  15.991  1.00  0.00     0.279 HD
HETATM   20  C   UNL     1      38.686  -4.985  16.290  1.00  0.00     0.269 C 
HETATM   21  C   UNL     1      40.608  -6.582  16.142  1.00  0.00     0.250 C 
HETATM   22  C   UNL     1      41.066  -7.911  15.523  1.00  0.00     0.135 C 
ENDBRANCH  12  15
ENDBRANCH   9  12
ENDBRANCH   5   6
BRANCH   1  23
HETATM   23  C   UNL     1      42.232  -9.556   6.829  1.00  0.00     0.128 C 
HETATM   24  C   UNL     1      40.827 -10.087   7.058  1.00  0.00     0.027 C 
ENDBRANCH   1  23
BRANCH   2  25
HETATM   25  S   UNL     1      43.637 -11.787   4.955  1.00  0.00    -0.081 SA
BRANCH  25  26
HETATM   26  C   UNL     1      42.385 -13.076   5.211  1.00  0.00     0.185 C 
BRANCH  26  27
HETATM   27  C   UNL     1      43.011 -14.463   5.252  1.00  0.00     0.231 C 
HETATM   28  N   UNL     1      42.909 -15.134   4.045  1.00  0.00    -0.327 N 
HETATM   29  H   UNL     1      42.666 -14.561   3.237  1.00  0.00     0.169 HD
HETATM   30  O   UNL     1      43.530 -14.893   6.279  1.00  0.00    -0.272 OA
BRANCH  28  31
HETATM   31  C   UNL     1      43.238 -16.473   3.764  1.00  0.00     0.034 A 
HETATM   32  C   UNL     1      42.718 -17.018   2.581  1.00  0.00     0.032 A 
HETATM   33  C   UNL     1      42.958 -18.353   2.241  1.00  0.00     0.039 A 
HETATM   34  C   UNL     1      43.727 -19.141   3.088  1.00  0.00     0.065 A 
HETATM   35  C   UNL     1      44.258 -18.615   4.259  1.00  0.00     0.039 A 
HETATM   36  C   UNL     1      44.010 -17.282   4.600  1.00  0.00     0.032 A 
BRANCH  34  37
HETATM   37  O   UNL     1      43.981 -20.450   2.805  1.00  0.00    -0.361 OA
HETATM   38  H   UNL     1      44.538 -20.818   3.510  1.00  0.00     0.217 HD
ENDBRANCH  34  37
ENDBRANCH  28  31
ENDBRANCH  26  27
ENDBRANCH  25  26
ENDBRANCH   2  25
TORSDOF 9
ENDMDL
MODEL 4
REMARK VINA RESULT:      -8.0      4.763      9.212
REMARK  9 active torsions:
REMARK  status: ('A' for Active; 'I' for Inactive)
REMARK    1  A    between atoms: C_2  and  N_3 
REMARK    2  A    between atoms: C_4  and  S_5 
REMARK    3  A    between atoms: S_5  and  C_6 
REMARK    4  A    between atoms: C_6  and  C_7 
REMARK       I    between atoms: C_7  and  N_8 
REMARK    5  A    between atoms: N_8  and  C_9 
REMARK    6  A    between atoms: C_12  and  O_13 
REMARK    7  A    between atoms: C_19  and  C_20 
REMARK    8  A    between atoms: C_23  and  S_24 
REMARK    9  A    between atoms: S_24  and  N_25 
ROOT
HETATM    1  N   UNL     1      42.133 -13.347   4.302  1.00  0.00    -0.308 N 
HETATM    2  C   UNL     1      42.084 -13.605   5.646  1.00  0.00     0.192 A 
HETATM    3  N   UNL     1      40.840 -13.586   6.060  1.00  0.00    -0.122 NA
HETATM    4  N   UNL     1      40.043 -13.362   4.970  1.00  0.00    -0.128 NA
HETATM    5  C   UNL     1      40.814 -13.239   3.901  1.00  0.00     0.164 A 
ENDROOT
BRANCH   5   6
HETATM    6  C   UNL     1      40.313 -12.967   2.555  1.00  0.00     0.012 A 
HETATM    7  C   UNL     1      39.754 -11.710   2.277  1.00  0.00     0.017 A 
HETATM    8  C   UNL     1      39.248 -11.416   1.010  1.00  0.00     0.026 A 
HETATM    9  C   UNL     1      39.284 -12.394   0.013  1.00  0.00     0.074 A 
HETATM   10  C   UNL     1      39.815 -13.659   0.275  1.00  0.00     0.026 A 
HETATM   11  C   UNL     1      40.324 -13.942   1.547  1.00  0.00     0.017 A 
BRANCH   9  12
HETATM   12  S   UNL     1      38.629 -12.026  -1.587  1.00  0.00     0.243 S 
HETATM   13  O   UNL     1      39.721 -12.029  -2.531  1.00  0.00    -0.206 OA
HETATM   14  O   UNL     1      37.437 -12.815  -1.810  1.00  0.00    -0.206 OA
BRANCH  12  15
HETATM   15  N   UNL     1      38.078 -10.409  -1.439  1.00  0.00    -0.203 NA
HETATM   16  C   UNL     1      36.594 -10.224  -1.350  1.00  0.00     0.135 C 
HETATM   17  C   UNL     1      35.898 -10.263  -2.729  1.00  0.00     0.250 C 
HETATM   18  N   UNL     1      36.577  -9.320  -3.719  1.00  0.00    -0.073 N 
HETATM   19  H   UNL     1      36.452  -8.362  -3.368  1.00  0.00     0.279 HD
HETATM   20  C   UNL     1      35.931  -9.382  -5.075  1.00  0.00     0.269 C 
HETATM   21  C   UNL     1      38.080  -9.580  -3.806  1.00  0.00     0.250 C 
HETATM   22  C   UNL     1      38.706  -9.458  -2.408  1.00  0.00     0.135 C 
ENDBRANCH  12  15
ENDBRANCH   9  12
ENDBRANCH   5   6
BRANCH   1  23
HETATM   23  C   UNL     1      43.317 -13.070   3.510  1.00  0.00     0.128 C 
HETATM   24  C   UNL     1      43.723 -11.606   3.502  1.00  0.00     0.027 C 
ENDBRANCH   1  23
BRANCH   2  25
HETATM   25  S   UNL     1      43.470 -13.912   6.630  1.00  0.00    -0.081 SA
BRANCH  25  26
HETATM   26  C   UNL     1      42.943 -15.380   7.557  1.00  0.00     0.185 C 
BRANCH  26  27
HETATM   27  C   UNL     1      42.606 -16.537   6.627  1.00  0.00     0.231 C 
HETATM   28  N   UNL     1      43.725 -17.083   6.020  1.00  0.00    -0.327 N 
HETATM   29  H   UNL     1      44.622 -16.829   6.435  1.00  0.00     0.169 HD
HETATM   30  O   UNL     1      41.444 -16.898   6.462  1.00  0.00    -0.272 OA
BRANCH  28  31
HETATM   31  C   UNL     1      43.777 -18.051   5.001  1.00  0.00     0.034 A 
HETATM   32  C   UNL     1      43.541 -17.606   3.692  1.00  0.00     0.032 A 
HETATM   33  C   UNL     1      43.532 -18.505   2.621  1.00  0.00     0.039 A 
HETATM   34  C   UNL     1      43.765 -19.852   2.864  1.00  0.00     0.065 A 
HETATM   35  C   UNL     1      44.011 -20.309   4.153  1.00  0.00     0.039 A 
HETATM   36  C   UNL     1      44.012 -19.409   5.223  1.00  0.00     0.032 A 
BRANCH  34  37
HETATM   37  O   UNL     1      43.757 -20.768   1.854  1.00  0.00    -0.361 OA
HETATM   38  H   UNL     1      43.308 -20.381   1.086  1.00  0.00     0.217 HD
ENDBRANCH  34  37
ENDBRANCH  28  31
ENDBRANCH  26  27
ENDBRANCH  25  26
ENDBRANCH   2  25
TORSDOF 9
ENDMDL
MODEL 5
REMARK VINA RESULT:      -7.7      3.700      6.293
REMARK  9 active torsions:
REMARK  status: ('A' for Active; 'I' for Inactive)
REMARK    1  A    between atoms: C_2  and  N_3 
REMARK    2  A    between atoms: C_4  and  S_5 
REMARK    3  A    between atoms: S_5  and  C_6 
REMARK    4  A    between atoms: C_6  and  C_7 
REMARK       I    between atoms: C_7  and  N_8 
REMARK    5  A    between atoms: N_8  and  C_9 
REMARK    6  A    between atoms: C_12  and  O_13 
REMARK    7  A    between atoms: C_19  and  C_20 
REMARK    8  A    between atoms: C_23  and  S_24 
REMARK    9  A    between atoms: S_24  and  N_25 
ROOT
HETATM    1  N   UNL     1      43.039  -9.342   9.535  1.00  0.00    -0.308 N 
HETATM    2  C   UNL     1      43.629 -10.338   8.802  1.00  0.00     0.192 A 
HETATM    3  N   UNL     1      44.151 -11.234   9.604  1.00  0.00    -0.122 NA
HETATM    4  N   UNL     1      43.862 -10.860  10.888  1.00  0.00    -0.128 NA
HETATM    5  C   UNL     1      43.172  -9.732  10.855  1.00  0.00     0.164 A 
ENDROOT
BRANCH   5   6
HETATM    6  C   UNL     1      42.708  -9.017  12.043  1.00  0.00     0.012 A 
HETATM    7  C   UNL     1      43.561  -8.083  12.652  1.00  0.00     0.017 A 
HETATM    8  C   UNL     1      43.165  -7.393  13.799  1.00  0.00     0.026 A 
HETATM    9  C   UNL     1      41.910  -7.651  14.354  1.00  0.00     0.074 A 
HETATM   10  C   UNL     1      41.055  -8.592  13.777  1.00  0.00     0.026 A 
HETATM   11  C   UNL     1      41.460  -9.275  12.626  1.00  0.00     0.017 A 
BRANCH   9  12
HETATM   12  S   UNL     1      41.414  -6.787  15.815  1.00  0.00     0.243 S 
HETATM   13  O   UNL     1      40.063  -7.182  16.134  1.00  0.00    -0.206 OA
HETATM   14  O   UNL     1      42.474  -6.862  16.798  1.00  0.00    -0.206 OA
BRANCH  12  15
HETATM   15  N   UNL     1      41.372  -5.145  15.323  1.00  0.00    -0.203 NA
HETATM   16  C   UNL     1      41.152  -4.137  16.409  1.00  0.00     0.135 C 
HETATM   17  C   UNL     1      39.665  -3.988  16.799  1.00  0.00     0.250 C 
HETATM   18  N   UNL     1      38.788  -3.768  15.569  1.00  0.00    -0.073 N 
HETATM   19  H   UNL     1      39.061  -2.868  15.153  1.00  0.00     0.279 HD
HETATM   20  C   UNL     1      37.334  -3.661  15.936  1.00  0.00     0.269 C 
HETATM   21  C   UNL     1      39.018  -4.847  14.513  1.00  0.00     0.250 C 
HETATM   22  C   UNL     1      40.505  -4.887  14.131  1.00  0.00     0.135 C 
ENDBRANCH  12  15
ENDBRANCH   9  12
ENDBRANCH   5   6
BRANCH   1  23
HETATM   23  C   UNL     1      42.543  -8.072   9.039  1.00  0.00     0.128 C 
HETATM   24  C   UNL     1      43.562  -6.947   9.102  1.00  0.00     0.027 C 
ENDBRANCH   1  23
BRANCH   2  25
HETATM   25  S   UNL     1      43.666 -10.385   7.075  1.00  0.00    -0.081 SA
BRANCH  25  26
HETATM   26  C   UNL     1      42.585 -11.800   6.725  1.00  0.00     0.185 C 
BRANCH  26  27
HETATM   27  C   UNL     1      43.385 -13.019   6.290  1.00  0.00     0.231 C 
HETATM   28  N   UNL     1      42.635 -13.920   5.553  1.00  0.00    -0.327 N 
HETATM   29  H   UNL     1      41.751 -13.567   5.188  1.00  0.00     0.169 HD
HETATM   30  O   UNL     1      44.568 -13.143   6.600  1.00  0.00    -0.272 OA
BRANCH  28  31
HETATM   31  C   UNL     1      43.001 -15.208   5.121  1.00  0.00     0.034 A 
HETATM   32  C   UNL     1      43.428 -16.109   6.108  1.00  0.00     0.032 A 
HETATM   33  C   UNL     1      43.849 -17.398   5.767  1.00  0.00     0.039 A 
HETATM   34  C   UNL     1      43.836 -17.786   4.434  1.00  0.00     0.065 A 
HETATM   35  C   UNL     1      43.406 -16.910   3.444  1.00  0.00     0.039 A 
HETATM   36  C   UNL     1      42.992 -15.619   3.787  1.00  0.00     0.032 A 
BRANCH  34  37
HETATM   37  O   UNL     1      44.246 -19.028   4.050  1.00  0.00    -0.361 OA
HETATM   38  H   UNL     1      43.660 -19.345   3.344  1.00  0.00     0.217 HD
ENDBRANCH  34  37
ENDBRANCH  28  31
ENDBRANCH  26  27
ENDBRANCH  25  26
ENDBRANCH   2  25
TORSDOF 9
ENDMDL
MODEL 6
REMARK VINA RESULT:      -7.7      4.693      8.618
REMARK  9 active torsions:
REMARK  status: ('A' for Active; 'I' for Inactive)
REMARK    1  A    between atoms: C_2  and  N_3 
REMARK    2  A    between atoms: C_4  and  S_5 
REMARK    3  A    between atoms: S_5  and  C_6 
REMARK    4  A    between atoms: C_6  and  C_7 
REMARK       I    between atoms: C_7  and  N_8 
REMARK    5  A    between atoms: N_8  and  C_9 
REMARK    6  A    between atoms: C_12  and  O_13 
REMARK    7  A    between atoms: C_19  and  C_20 
REMARK    8  A    between atoms: C_23  and  S_24 
REMARK    9  A    between atoms: S_24  and  N_25 
ROOT
HETATM    1  N   UNL     1      42.088 -13.086   4.358  1.00  0.00    -0.308 N 
HETATM    2  C   UNL     1      42.174 -13.665   5.597  1.00  0.00     0.192 A 
HETATM    3  N   UNL     1      41.066 -14.310   5.868  1.00  0.00    -0.122 NA
HETATM    4  N   UNL     1      40.247 -14.205   4.777  1.00  0.00    -0.128 NA
HETATM    5  C   UNL     1      40.865 -13.488   3.852  1.00  0.00     0.164 A 
ENDROOT
BRANCH   5   6
HETATM    6  C   UNL     1      40.285 -13.146   2.554  1.00  0.00     0.012 A 
HETATM    7  C   UNL     1      39.466 -12.011   2.453  1.00  0.00     0.017 A 
HETATM    8  C   UNL     1      38.876 -11.659   1.237  1.00  0.00     0.026 A 
HETATM    9  C   UNL     1      39.094 -12.460   0.114  1.00  0.00     0.074 A 
HETATM   10  C   UNL     1      39.887 -13.606   0.198  1.00  0.00     0.026 A 
HETATM   11  C   UNL     1      40.476 -13.947   1.420  1.00  0.00     0.017 A 
BRANCH   9  12
HETATM   12  S   UNL     1      38.336 -12.022  -1.422  1.00  0.00     0.243 S 
HETATM   13  O   UNL     1      37.847 -13.231  -2.043  1.00  0.00    -0.206 OA
HETATM   14  O   UNL     1      37.475 -10.876  -1.222  1.00  0.00    -0.206 OA
BRANCH  12  15
HETATM   15  N   UNL     1      39.642 -11.444  -2.371  1.00  0.00    -0.203 NA
HETATM   16  C   UNL     1      40.879 -11.055  -1.623  1.00  0.00     0.135 C 
HETATM   17  C   UNL     1      40.790  -9.641  -1.007  1.00  0.00     0.250 C 
HETATM   18  N   UNL     1      40.349  -8.611  -2.044  1.00  0.00    -0.073 N 
HETATM   19  H   UNL     1      41.086  -8.560  -2.760  1.00  0.00     0.279 HD
HETATM   20  C   UNL     1      40.222  -7.239  -1.443  1.00  0.00     0.269 C 
HETATM   21  C   UNL     1      39.060  -9.034  -2.746  1.00  0.00     0.250 C 
HETATM   22  C   UNL     1      39.252 -10.417  -3.387  1.00  0.00     0.135 C 
ENDBRANCH  12  15
ENDBRANCH   9  12
ENDBRANCH   5   6
BRANCH   1  23
HETATM   23  C   UNL     1      43.003 -12.121   3.781  1.00  0.00     0.128 C 
HETATM   24  C   UNL     1      42.671 -10.678   4.122  1.00  0.00     0.027 C 
ENDBRANCH   1  23
BRANCH   2  25
HETATM   25  S   UNL     1      43.553 -13.548   6.631  1.00  0.00    -0.081 SA
BRANCH  25  26
HETATM   26  C   UNL     1      43.596 -15.204   7.372  1.00  0.00     0.185 C 
BRANCH  26  27
HETATM   27  C   UNL     1      44.233 -16.219   6.433  1.00  0.00     0.231 C 
HETATM   28  N   UNL     1      43.305 -16.879   5.645  1.00  0.00    -0.327 N 
HETATM   29  H   UNL     1      42.378 -16.456   5.603  1.00  0.00     0.169 HD
HETATM   30  O   UNL     1      45.449 -16.399   6.426  1.00  0.00    -0.272 OA
BRANCH  28  31
HETATM   31  C   UNL     1      43.516 -17.972   4.784  1.00  0.00     0.034 A 
HETATM   32  C   UNL     1      43.273 -17.759   3.419  1.00  0.00     0.032 A 
HETATM   33  C   UNL     1      43.417 -18.799   2.496  1.00  0.00     0.039 A 
HETATM   34  C   UNL     1      43.811 -20.053   2.942  1.00  0.00     0.065 A 
HETATM   35  C   UNL     1      44.065 -20.280   4.289  1.00  0.00     0.039 A 
HETATM   36  C   UNL     1      43.914 -19.240   5.211  1.00  0.00     0.032 A 
BRANCH  34  37
HETATM   37  O   UNL     1      43.955 -21.101   2.082  1.00  0.00    -0.361 OA
HETATM   38  H   UNL     1      43.489 -20.894   1.256  1.00  0.00     0.217 HD
ENDBRANCH  34  37
ENDBRANCH  28  31
ENDBRANCH  26  27
ENDBRANCH  25  26
ENDBRANCH   2  25
TORSDOF 9
ENDMDL
MODEL 7
REMARK VINA RESULT:      -7.6      6.541     10.782
REMARK  9 active torsions:
REMARK  status: ('A' for Active; 'I' for Inactive)
REMARK    1  A    between atoms: C_2  and  N_3 
REMARK    2  A    between atoms: C_4  and  S_5 
REMARK    3  A    between atoms: S_5  and  C_6 
REMARK    4  A    between atoms: C_6  and  C_7 
REMARK       I    between atoms: C_7  and  N_8 
REMARK    5  A    between atoms: N_8  and  C_9 
REMARK    6  A    between atoms: C_12  and  O_13 
REMARK    7  A    between atoms: C_19  and  C_20 
REMARK    8  A    between atoms: C_23  and  S_24 
REMARK    9  A    between atoms: S_24  and  N_25 
ROOT
HETATM    1  N   UNL     1      40.943 -12.523   0.685  1.00  0.00    -0.308 N 
HETATM    2  C   UNL     1      41.478 -13.696   1.147  1.00  0.00     0.192 A 
HETATM    3  N   UNL     1      40.802 -14.714   0.672  1.00  0.00    -0.122 NA
HETATM    4  N   UNL     1      39.835 -14.218  -0.159  1.00  0.00    -0.128 NA
HETATM    5  C   UNL     1      39.927 -12.898  -0.175  1.00  0.00     0.164 A 
ENDROOT
BRANCH   5   6
HETATM    6  C   UNL     1      39.038 -12.022  -0.936  1.00  0.00     0.012 A 
HETATM    7  C   UNL     1      37.872 -11.537  -0.324  1.00  0.00     0.017 A 
HETATM    8  C   UNL     1      36.986 -10.713  -1.021  1.00  0.00     0.026 A 
HETATM    9  C   UNL     1      37.259 -10.385  -2.351  1.00  0.00     0.074 A 
HETATM   10  C   UNL     1      38.402 -10.875  -2.986  1.00  0.00     0.026 A 
HETATM   11  C   UNL     1      39.284 -11.697  -2.277  1.00  0.00     0.017 A 
BRANCH   9  12
HETATM   12  S   UNL     1      36.130  -9.354  -3.238  1.00  0.00     0.243 S 
HETATM   13  O   UNL     1      35.108  -8.912  -2.319  1.00  0.00    -0.206 OA
HETATM   14  O   UNL     1      36.874  -8.413  -4.047  1.00  0.00    -0.206 OA
BRANCH  12  15
HETATM   15  N   UNL     1      35.392 -10.424  -4.356  1.00  0.00    -0.203 NA
HETATM   16  C   UNL     1      34.841  -9.801  -5.601  1.00  0.00     0.135 C 
HETATM   17  C   UNL     1      33.447  -9.168  -5.392  1.00  0.00     0.250 C 
HETATM   18  N   UNL     1      32.489 -10.147  -4.719  1.00  0.00    -0.073 N 
HETATM   19  H   UNL     1      32.347 -10.933  -5.367  1.00  0.00     0.279 HD
HETATM   20  C   UNL     1      31.142  -9.526  -4.476  1.00  0.00     0.269 C 
HETATM   21  C   UNL     1      33.079 -10.720  -3.432  1.00  0.00     0.250 C 
HETATM   22  C   UNL     1      34.429 -11.387  -3.736  1.00  0.00     0.135 C 
ENDBRANCH  12  15
ENDBRANCH   9  12
ENDBRANCH   5   6
BRANCH   1  23
HETATM   23  C   UNL     1      41.259 -11.182   1.138  1.00  0.00     0.128 C 
HETATM   24  C   UNL     1      40.473 -10.745   2.363  1.00  0.00     0.027 C 
ENDBRANCH   1  23
BRANCH   2  25
HETATM   25  S   UNL     1      42.844 -13.794   2.200  1.00  0.00    -0.081 SA
BRANCH  25  26
HETATM   26  C   UNL     1      42.052 -14.137   3.796  1.00  0.00     0.185 C 
BRANCH  26  27
HETATM   27  C   UNL     1      42.130 -15.615   4.152  1.00  0.00     0.231 C 
HETATM   28  N   UNL     1      43.061 -16.303   3.391  1.00  0.00    -0.327 N 
HETATM   29  H   UNL     1      43.731 -15.727   2.883  1.00  0.00     0.169 HD
HETATM   30  O   UNL     1      41.410 -16.095   5.024  1.00  0.00    -0.272 OA
BRANCH  28  31
HETATM   31  C   UNL     1      43.291 -17.691   3.344  1.00  0.00     0.034 A 
HETATM   32  C   UNL     1      43.905 -18.269   4.464  1.00  0.00     0.032 A 
HETATM   33  C   UNL     1      44.209 -19.634   4.488  1.00  0.00     0.039 A 
HETATM   34  C   UNL     1      43.891 -20.420   3.389  1.00  0.00     0.065 A 
HETATM   35  C   UNL     1      43.273 -19.865   2.275  1.00  0.00     0.039 A 
HETATM   36  C   UNL     1      42.977 -18.499   2.250  1.00  0.00     0.032 A 
BRANCH  34  37
HETATM   37  O   UNL     1      44.176 -21.753   3.361  1.00  0.00    -0.361 OA
HETATM   38  H   UNL     1      44.546 -21.975   2.492  1.00  0.00     0.217 HD
ENDBRANCH  34  37
ENDBRANCH  28  31
ENDBRANCH  26  27
ENDBRANCH  25  26
ENDBRANCH   2  25
TORSDOF 9
ENDMDL
MODEL 8
REMARK VINA RESULT:      -7.6      2.492     11.102
REMARK  9 active torsions:
REMARK  status: ('A' for Active; 'I' for Inactive)
REMARK    1  A    between atoms: C_2  and  N_3 
REMARK    2  A    between atoms: C_4  and  S_5 
REMARK    3  A    between atoms: S_5  and  C_6 
REMARK    4  A    between atoms: C_6  and  C_7 
REMARK       I    between atoms: C_7  and  N_8 
REMARK    5  A    between atoms: N_8  and  C_9 
REMARK    6  A    between atoms: C_12  and  O_13 
REMARK    7  A    between atoms: C_19  and  C_20 
REMARK    8  A    between atoms: C_23  and  S_24 
REMARK    9  A    between atoms: S_24  and  N_25 
ROOT
HETATM    1  N   UNL     1      43.258 -10.217   7.491  1.00  0.00    -0.308 N 
HETATM    2  C   UNL     1      43.030  -8.884   7.712  1.00  0.00     0.192 A 
HETATM    3  N   UNL     1      42.120  -8.442   6.879  1.00  0.00    -0.122 NA
HETATM    4  N   UNL     1      41.697  -9.503   6.124  1.00  0.00    -0.128 NA
HETATM    5  C   UNL     1      42.362 -10.582   6.503  1.00  0.00     0.164 A 
ENDROOT
BRANCH   5   6
HETATM    6  C   UNL     1      42.193 -11.904   5.901  1.00  0.00     0.012 A 
HETATM    7  C   UNL     1      42.721 -12.142   4.623  1.00  0.00     0.017 A 
HETATM    8  C   UNL     1      42.566 -13.384   4.004  1.00  0.00     0.026 A 
HETATM    9  C   UNL     1      41.860 -14.394   4.662  1.00  0.00     0.074 A 
HETATM   10  C   UNL     1      41.307 -14.170   5.925  1.00  0.00     0.026 A 
HETATM   11  C   UNL     1      41.472 -12.924   6.537  1.00  0.00     0.017 A 
BRANCH   9  12
HETATM   12  S   UNL     1      41.651 -15.961   3.872  1.00  0.00     0.243 S 
HETATM   13  O   UNL     1      41.290 -16.929   4.881  1.00  0.00    -0.206 OA
HETATM   14  O   UNL     1      40.859 -15.792   2.672  1.00  0.00    -0.206 OA
BRANCH  12  15
HETATM   15  N   UNL     1      43.226 -16.353   3.319  1.00  0.00    -0.203 NA
HETATM   16  C   UNL     1      43.303 -17.133   2.043  1.00  0.00     0.135 C 
HETATM   17  C   UNL     1      43.073 -18.647   2.248  1.00  0.00     0.250 C 
HETATM   18  N   UNL     1      43.963 -19.197   3.359  1.00  0.00    -0.073 N 
HETATM   19  H   UNL     1      44.938 -19.100   3.049  1.00  0.00     0.279 HD
HETATM   20  C   UNL     1      43.716 -20.661   3.592  1.00  0.00     0.269 C 
HETATM   21  C   UNL     1      43.814 -18.395   4.651  1.00  0.00     0.250 C 
HETATM   22  C   UNL     1      44.122 -16.915   4.377  1.00  0.00     0.135 C 
ENDBRANCH  12  15
ENDBRANCH   9  12
ENDBRANCH   5   6
BRANCH   1  23
HETATM   23  C   UNL     1      44.327 -11.023   8.048  1.00  0.00     0.128 C 
HETATM   24  C   UNL     1      45.522 -11.183   7.123  1.00  0.00     0.027 C 
ENDBRANCH   1  23
BRANCH   2  25
HETATM   25  S   UNL     1      43.834  -7.947   8.920  1.00  0.00    -0.081 SA
BRANCH  25  26
HETATM   26  C   UNL     1      42.697  -6.545   9.111  1.00  0.00     0.185 C 
BRANCH  26  27
HETATM   27  C   UNL     1      42.310  -6.334  10.568  1.00  0.00     0.231 C 
HETATM   28  N   UNL     1      42.718  -7.373  11.388  1.00  0.00    -0.327 N 
HETATM   29  H   UNL     1      43.413  -8.004  10.991  1.00  0.00     0.169 HD
HETATM   30  O   UNL     1      41.691  -5.333  10.920  1.00  0.00    -0.272 OA
BRANCH  28  31
HETATM   31  C   UNL     1      42.406  -7.584  12.744  1.00  0.00     0.034 A 
HETATM   32  C   UNL     1      41.422  -8.544  13.025  1.00  0.00     0.032 A 
HETATM   33  C   UNL     1      41.019  -8.791  14.340  1.00  0.00     0.039 A 
HETATM   34  C   UNL     1      41.608  -8.078  15.376  1.00  0.00     0.065 A 
HETATM   35  C   UNL     1      42.591  -7.132  15.117  1.00  0.00     0.039 A 
HETATM   36  C   UNL     1      42.987  -6.881  13.800  1.00  0.00     0.032 A 
BRANCH  34  37
HETATM   37  O   UNL     1      41.241  -8.277  16.674  1.00  0.00    -0.361 OA
HETATM   38  H   UNL     1      42.039  -8.445  17.201  1.00  0.00     0.217 HD
ENDBRANCH  34  37
ENDBRANCH  28  31
ENDBRANCH  26  27
ENDBRANCH  25  26
ENDBRANCH   2  25
TORSDOF 9
ENDMDL
MODEL 9
REMARK VINA RESULT:      -7.5      2.244      2.850
REMARK  9 active torsions:
REMARK  status: ('A' for Active; 'I' for Inactive)
REMARK    1  A    between atoms: C_2  and  N_3 
REMARK    2  A    between atoms: C_4  and  S_5 
REMARK    3  A    between atoms: S_5  and  C_6 
REMARK    4  A    between atoms: C_6  and  C_7 
REMARK       I    between atoms: C_7  and  N_8 
REMARK    5  A    between atoms: N_8  and  C_9 
REMARK    6  A    between atoms: C_12  and  O_13 
REMARK    7  A    between atoms: C_19  and  C_20 
REMARK    8  A    between atoms: C_23  and  S_24 
REMARK    9  A    between atoms: S_24  and  N_25 
ROOT
HETATM    1  N   UNL     1      40.978 -12.052   3.191  1.00  0.00    -0.308 N 
HETATM    2  C   UNL     1      41.727 -13.001   2.546  1.00  0.00     0.192 A 
HETATM    3  N   UNL     1      42.662 -13.453   3.347  1.00  0.00    -0.122 NA
HETATM    4  N   UNL     1      42.505 -12.836   4.558  1.00  0.00    -0.128 NA
HETATM    5  C   UNL     1      41.477 -12.007   4.480  1.00  0.00     0.164 A 
ENDROOT
BRANCH   5   6
HETATM    6  C   UNL     1      41.024 -11.154   5.578  1.00  0.00     0.012 A 
HETATM    7  C   UNL     1      41.849 -10.103   6.008  1.00  0.00     0.017 A 
HETATM    8  C   UNL     1      41.463  -9.277   7.066  1.00  0.00     0.026 A 
HETATM    9  C   UNL     1      40.248  -9.515   7.712  1.00  0.00     0.074 A 
HETATM   10  C   UNL     1      39.423 -10.569   7.314  1.00  0.00     0.026 A 
HETATM   11  C   UNL     1      39.817 -11.388   6.251  1.00  0.00     0.017 A 
BRANCH   9  12
HETATM   12  S   UNL     1      39.766  -8.477   9.061  1.00  0.00     0.243 S 
HETATM   13  O   UNL     1      40.194  -7.130   8.767  1.00  0.00    -0.206 OA
HETATM   14  O   UNL     1      38.397  -8.772   9.426  1.00  0.00    -0.206 OA
BRANCH  12  15
HETATM   15  N   UNL     1      40.715  -9.047  10.371  1.00  0.00    -0.203 NA
HETATM   16  C   UNL     1      39.959  -9.546  11.564  1.00  0.00     0.135 C 
HETATM   17  C   UNL     1      39.480  -8.408  12.493  1.00  0.00     0.250 C 
HETATM   18  N   UNL     1      40.625  -7.460  12.843  1.00  0.00    -0.073 N 
HETATM   19  H   UNL     1      41.314  -7.996  13.386  1.00  0.00     0.279 HD
HETATM   20  C   UNL     1      40.159  -6.327  13.714  1.00  0.00     0.269 C 
HETATM   21  C   UNL     1      41.333  -6.945  11.591  1.00  0.00     0.250 C 
HETATM   22  C   UNL     1      41.835  -8.133  10.757  1.00  0.00     0.135 C 
ENDBRANCH  12  15
ENDBRANCH   9  12
ENDBRANCH   5   6
BRANCH   1  23
HETATM   23  C   UNL     1      39.996 -11.166   2.597  1.00  0.00     0.128 C 
HETATM   24  C   UNL     1      38.590 -11.740   2.563  1.00  0.00     0.027 C 
ENDBRANCH   1  23
BRANCH   2  25
HETATM   25  S   UNL     1      41.459 -13.511   0.918  1.00  0.00    -0.081 SA
BRANCH  25  26
HETATM   26  C   UNL     1      40.299 -14.886   1.152  1.00  0.00     0.185 C 
BRANCH  26  27
HETATM   27  C   UNL     1      40.773 -15.838   2.241  1.00  0.00     0.231 C 
HETATM   28  N   UNL     1      42.024 -16.373   1.981  1.00  0.00    -0.327 N 
HETATM   29  H   UNL     1      42.565 -15.902   1.256  1.00  0.00     0.169 HD
HETATM   30  O   UNL     1      40.072 -16.078   3.221  1.00  0.00    -0.272 OA
BRANCH  28  31
HETATM   31  C   UNL     1      42.699 -17.388   2.683  1.00  0.00     0.034 A 
HETATM   32  C   UNL     1      43.172 -17.066   3.963  1.00  0.00     0.032 A 
HETATM   33  C   UNL     1      43.889 -17.999   4.717  1.00  0.00     0.039 A 
HETATM   34  C   UNL     1      44.128 -19.260   4.188  1.00  0.00     0.065 A 
HETATM   35  C   UNL     1      43.657 -19.601   2.926  1.00  0.00     0.039 A 
HETATM   36  C   UNL     1      42.947 -18.663   2.170  1.00  0.00     0.032 A 
BRANCH  34  37
HETATM   37  O   UNL     1      44.830 -20.201   4.881  1.00  0.00    -0.361 OA
HETATM   38  H   UNL     1      45.401 -20.683   4.261  1.00  0.00     0.217 HD
ENDBRANCH  34  37
ENDBRANCH  28  31
ENDBRANCH  26  27
ENDBRANCH  25  26
ENDBRANCH   2  25
TORSDOF 9
ENDMDL
MODEL 10
REMARK VINA RESULT:      -7.4      3.209      4.964
REMARK  9 active torsions:
REMARK  status: ('A' for Active; 'I' for Inactive)
REMARK    1  A    between atoms: C_2  and  N_3 
REMARK    2  A    between atoms: C_4  and  S_5 
REMARK    3  A    between atoms: S_5  and  C_6 
REMARK    4  A    between atoms: C_6  and  C_7 
REMARK       I    between atoms: C_7  and  N_8 
REMARK    5  A    between atoms: N_8  and  C_9 
REMARK    6  A    between atoms: C_12  and  O_13 
REMARK    7  A    between atoms: C_19  and  C_20 
REMARK    8  A    between atoms: C_23  and  S_24 
REMARK    9  A    between atoms: S_24  and  N_25 
ROOT
HETATM    1  N   UNL     1      40.470  -9.708   7.427  1.00  0.00    -0.308 N 
HETATM    2  C   UNL     1      39.594 -10.486   6.717  1.00  0.00     0.192 A 
HETATM    3  N   UNL     1      38.614 -10.881   7.494  1.00  0.00    -0.122 NA
HETATM    4  N   UNL     1      38.810 -10.319   8.726  1.00  0.00    -0.128 NA
HETATM    5  C   UNL     1      39.915  -9.591   8.688  1.00  0.00     0.164 A 
ENDROOT
BRANCH   5   6
HETATM    6  C   UNL     1      40.456  -8.859   9.833  1.00  0.00     0.012 A 
HETATM    7  C   UNL     1      41.278  -9.536  10.746  1.00  0.00     0.017 A 
HETATM    8  C   UNL     1      41.800  -8.879  11.863  1.00  0.00     0.026 A 
HETATM    9  C   UNL     1      41.482  -7.536  12.078  1.00  0.00     0.074 A 
HETATM   10  C   UNL     1      40.648  -6.850  11.193  1.00  0.00     0.026 A 
HETATM   11  C   UNL     1      40.134  -7.517  10.076  1.00  0.00     0.017 A 
BRANCH   9  12
HETATM   12  S   UNL     1      42.132  -6.709  13.499  1.00  0.00     0.243 S 
HETATM   13  O   UNL     1      43.282  -7.448  13.963  1.00  0.00    -0.206 OA
HETATM   14  O   UNL     1      42.203  -5.288  13.235  1.00  0.00    -0.206 OA
BRANCH  12  15
HETATM   15  N   UNL     1      40.895  -6.887  14.674  1.00  0.00    -0.203 NA
HETATM   16  C   UNL     1      40.021  -5.692  14.897  1.00  0.00     0.135 C 
HETATM   17  C   UNL     1      40.663  -4.642  15.831  1.00  0.00     0.250 C 
HETATM   18  N   UNL     1      41.169  -5.282  17.121  1.00  0.00    -0.073 N 
HETATM   19  H   UNL     1      40.350  -5.645  17.626  1.00  0.00     0.279 HD
HETATM   20  C   UNL     1      41.831  -4.274  18.018  1.00  0.00     0.269 C 
HETATM   21  C   UNL     1      42.091  -6.467  16.838  1.00  0.00     0.250 C 
HETATM   22  C   UNL     1      41.358  -7.494  15.961  1.00  0.00     0.135 C 
ENDBRANCH  12  15
ENDBRANCH   9  12
ENDBRANCH   5   6
BRANCH   1  23
HETATM   23  C   UNL     1      41.779  -9.257   6.998  1.00  0.00     0.128 C 
HETATM   24  C   UNL     1      42.890 -10.262   7.252  1.00  0.00     0.027 C 
ENDBRANCH   1  23
BRANCH   2  25
HETATM   25  S   UNL     1      39.773 -10.875   5.043  1.00  0.00    -0.081 SA
BRANCH  25  26
HETATM   26  C   UNL     1      39.528 -12.673   5.057  1.00  0.00     0.185 C 
BRANCH  26  27
HETATM   27  C   UNL     1      40.767 -13.409   4.567  1.00  0.00     0.231 C 
HETATM   28  N   UNL     1      40.549 -14.763   4.376  1.00  0.00    -0.327 N 
HETATM   29  H   UNL     1      39.572 -15.054   4.343  1.00  0.00     0.169 HD
HETATM   30  O   UNL     1      41.827 -12.813   4.387  1.00  0.00    -0.272 OA
BRANCH  28  31
HETATM   31  C   UNL     1      41.493 -15.763   4.078  1.00  0.00     0.034 A 
HETATM   32  C   UNL     1      41.496 -16.260   2.767  1.00  0.00     0.032 A 
HETATM   33  C   UNL     1      42.371 -17.283   2.392  1.00  0.00     0.039 A 
HETATM   34  C   UNL     1      43.249 -17.805   3.333  1.00  0.00     0.065 A 
HETATM   35  C   UNL     1      43.267 -17.317   4.633  1.00  0.00     0.039 A 
HETATM   36  C   UNL     1      42.385 -16.299   5.008  1.00  0.00     0.032 A 
BRANCH  34  37
HETATM   37  O   UNL     1      44.116 -18.809   3.018  1.00  0.00    -0.361 OA
HETATM   38  H   UNL     1      43.785 -19.270   2.230  1.00  0.00     0.217 HD
ENDBRANCH  34  37
ENDBRANCH  28  31
ENDBRANCH  26  27
ENDBRANCH  25  26
ENDBRANCH   2  25
TORSDOF 9
ENDMDL
