MODEL 1
REMARK VINA RESULT:      -9.5      0.000      0.000
REMARK  5 active torsions:
REMARK  status: ('A' for Active; 'I' for Inactive)
REMARK    1  A    between atoms: C_2  and  C_3 
REMARK    2  A    between atoms: C_5  and  N_6 
REMARK       I    between atoms: N_6  and  C_7 
REMARK    3  A    between atoms: C_7  and  C_8 
REMARK    4  A    between atoms: C_16  and  C_17 
REMARK    5  A    between atoms: C_19  and  O_20 
ROOT
HETATM    1  C   UNL     1      42.681 -12.936   4.229  1.00  0.00     0.047 A 
HETATM    2  C   UNL     1      41.396 -12.632   3.739  1.00  0.00     0.008 A 
HETATM    3  C   UNL     1      40.696 -13.703   3.157  1.00  0.00     0.068 A 
HETATM    4  C   UNL     1      39.432 -13.471   2.633  1.00  0.00     0.032 A 
HETATM    5  C   UNL     1      38.830 -12.211   2.683  1.00  0.00     0.002 A 
HETATM    6  C   UNL     1      39.498 -11.153   3.281  1.00  0.00     0.001 A 
HETATM    7  C   UNL     1      40.771 -11.359   3.810  1.00  0.00     0.015 A 
HETATM    8  N   UNL     1      41.195 -14.950   3.085  1.00  0.00    -0.248 NA
HETATM    9  C   UNL     1      42.415 -15.235   3.609  1.00  0.00     0.069 A 
HETATM   10  C   UNL     1      43.178 -14.242   4.196  1.00  0.00     0.050 A 
ENDROOT
BRANCH   1  11
HETATM   11  C   UNL     1      43.615 -11.920   4.770  1.00  0.00     0.257 C 
HETATM   12  N   UNL     1      43.589 -11.803   6.147  1.00  0.00    -0.323 N 
HETATM   13  H   UNL     1      43.003 -12.458   6.651  1.00  0.00     0.169 HD
HETATM   14  O   UNL     1      44.250 -11.245   3.974  1.00  0.00    -0.267 OA
BRANCH  12  15
HETATM   15  C   UNL     1      44.239 -10.830   6.935  1.00  0.00     0.035 A 
HETATM   16  C   UNL     1      43.593  -9.743   7.529  1.00  0.00     0.044 A 
HETATM   17  C   UNL     1      44.302  -8.848   8.349  1.00  0.00     0.011 A 
HETATM   18  C   UNL     1      45.676  -9.030   8.546  1.00  0.00     0.015 A 
HETATM   19  C   UNL     1      46.328 -10.105   7.944  1.00  0.00     0.003 A 
HETATM   20  C   UNL     1      45.612 -11.003   7.150  1.00  0.00     0.029 A 
BRANCH  17  21
HETATM   21  C   UNL     1      43.557  -7.729   9.001  1.00  0.00     0.155 C 
HETATM   22  C   UNL     1      43.207  -7.841  10.462  1.00  0.00     0.096 C 
HETATM   23  O   UNL     1      43.235  -6.738   8.349  1.00  0.00    -0.293 OA
ENDBRANCH  17  21
ENDBRANCH  12  15
ENDBRANCH   1  11
BRANCH   9  24
HETATM   24  C   UNL     1      42.855 -16.647   3.498  1.00  0.00    -0.005 A 
HETATM   25  C   UNL     1      43.360 -17.374   4.599  1.00  0.00     0.050 A 
HETATM   26  C   UNL     1      43.760 -18.710   4.480  1.00  0.00     0.069 A 
HETATM   27  C   UNL     1      43.679 -19.340   3.239  1.00  0.00     0.037 A 
HETATM   28  C   UNL     1      43.197 -18.651   2.131  1.00  0.00     0.004 A 
HETATM   29  C   UNL     1      42.789 -17.322   2.263  1.00  0.00     0.014 A 
BRANCH  26  30
HETATM   30  O   UNL     1      44.251 -19.494   5.487  1.00  0.00    -0.356 OA
HETATM   31  C   UNL     1      44.252 -20.900   5.271  1.00  0.00     0.210 C 
ENDBRANCH  26  30
ENDBRANCH   9  24
TORSDOF 5
ENDMDL
MODEL 2
REMARK VINA RESULT:      -9.2      2.165      8.674
REMARK  5 active torsions:
REMARK  status: ('A' for Active; 'I' for Inactive)
REMARK    1  A    between atoms: C_2  and  C_3 
REMARK    2  A    between atoms: C_5  and  N_6 
REMARK       I    between atoms: N_6  and  C_7 
REMARK    3  A    between atoms: C_7  and  C_8 
REMARK    4  A    between atoms: C_16  and  C_17 
REMARK    5  A    between atoms: C_19  and  O_20 
ROOT
HETATM    1  C   UNL     1      42.992 -13.810   5.480  1.00  0.00     0.047 A 
HETATM    2  C   UNL     1      42.652 -13.153   4.280  1.00  0.00     0.008 A 
HETATM    3  C   UNL     1      42.926 -11.775   4.242  1.00  0.00     0.068 A 
HETATM    4  C   UNL     1      42.597 -11.059   3.099  1.00  0.00     0.032 A 
HETATM    5  C   UNL     1      42.021 -11.670   1.983  1.00  0.00     0.002 A 
HETATM    6  C   UNL     1      41.773 -13.035   1.998  1.00  0.00     0.001 A 
HETATM    7  C   UNL     1      42.089 -13.775   3.135  1.00  0.00     0.015 A 
HETATM    8  N   UNL     1      43.496 -11.114   5.265  1.00  0.00    -0.248 NA
HETATM    9  C   UNL     1      43.863 -11.774   6.394  1.00  0.00     0.069 A 
HETATM   10  C   UNL     1      43.627 -13.131   6.522  1.00  0.00     0.050 A 
ENDROOT
BRANCH   1  11
HETATM   11  C   UNL     1      42.675 -15.232   5.754  1.00  0.00     0.257 C 
HETATM   12  N   UNL     1      43.690 -16.112   5.430  1.00  0.00    -0.323 N 
HETATM   13  H   UNL     1      44.563 -15.705   5.111  1.00  0.00     0.169 HD
HETATM   14  O   UNL     1      41.554 -15.501   6.159  1.00  0.00    -0.267 OA
BRANCH  12  15
HETATM   15  C   UNL     1      43.634 -17.521   5.429  1.00  0.00     0.035 A 
HETATM   16  C   UNL     1      43.681 -18.307   4.274  1.00  0.00     0.044 A 
HETATM   17  C   UNL     1      43.677 -19.709   4.362  1.00  0.00     0.011 A 
HETATM   18  C   UNL     1      43.594 -20.324   5.616  1.00  0.00     0.015 A 
HETATM   19  C   UNL     1      43.533 -19.546   6.770  1.00  0.00     0.003 A 
HETATM   20  C   UNL     1      43.561 -18.153   6.676  1.00  0.00     0.029 A 
BRANCH  17  21
HETATM   21  C   UNL     1      43.777 -20.506   3.102  1.00  0.00     0.155 C 
HETATM   22  C   UNL     1      43.298 -19.893   1.812  1.00  0.00     0.096 C 
HETATM   23  O   UNL     1      44.241 -21.644   3.125  1.00  0.00    -0.293 OA
ENDBRANCH  17  21
ENDBRANCH  12  15
ENDBRANCH   1  11
BRANCH   9  24
HETATM   24  C   UNL     1      44.507 -10.952   7.446  1.00  0.00    -0.005 A 
HETATM   25  C   UNL     1      43.885 -10.682   8.685  1.00  0.00     0.050 A 
HETATM   26  C   UNL     1      44.511  -9.914   9.673  1.00  0.00     0.069 A 
HETATM   27  C   UNL     1      45.775  -9.380   9.427  1.00  0.00     0.037 A 
HETATM   28  C   UNL     1      46.412  -9.616   8.213  1.00  0.00     0.004 A 
HETATM   29  C   UNL     1      45.784 -10.394   7.238  1.00  0.00     0.014 A 
BRANCH  26  30
HETATM   30  O   UNL     1      43.993  -9.609  10.902  1.00  0.00    -0.356 OA
HETATM   31  C   UNL     1      42.650 -10.004  11.154  1.00  0.00     0.210 C 
ENDBRANCH  26  30
ENDBRANCH   9  24
TORSDOF 5
ENDMDL
MODEL 3
REMARK VINA RESULT:      -9.2      3.256      7.182
REMARK  5 active torsions:
REMARK  status: ('A' for Active; 'I' for Inactive)
REMARK    1  A    between atoms: C_2  and  C_3 
REMARK    2  A    between atoms: C_5  and  N_6 
REMARK       I    between atoms: N_6  and  C_7 
REMARK    3  A    between atoms: C_7  and  C_8 
REMARK    4  A    between atoms: C_16  and  C_17 
REMARK    5  A    between atoms: C_19  and  O_20 
ROOT
HETATM    1  C   UNL     1      41.929 -14.583   3.752  1.00  0.00     0.047 A 
HETATM    2  C   UNL     1      42.536 -13.734   4.699  1.00  0.00     0.008 A 
HETATM    3  C   UNL     1      43.351 -14.369   5.652  1.00  0.00     0.068 A 
HETATM    4  C   UNL     1      43.964 -13.596   6.629  1.00  0.00     0.032 A 
HETATM    5  C   UNL     1      43.810 -12.209   6.680  1.00  0.00     0.002 A 
HETATM    6  C   UNL     1      43.032 -11.568   5.728  1.00  0.00     0.001 A 
HETATM    7  C   UNL     1      42.401 -12.321   4.740  1.00  0.00     0.015 A 
HETATM    8  N   UNL     1      43.568 -15.696   5.661  1.00  0.00    -0.248 NA
HETATM    9  C   UNL     1      43.014 -16.491   4.710  1.00  0.00     0.069 A 
HETATM   10  C   UNL     1      42.193 -15.954   3.735  1.00  0.00     0.050 A 
ENDROOT
BRANCH   1  11
HETATM   11  C   UNL     1      40.947 -14.117   2.743  1.00  0.00     0.257 C 
HETATM   12  N   UNL     1      41.507 -13.757   1.532  1.00  0.00    -0.323 N 
HETATM   13  H   UNL     1      42.503 -13.912   1.425  1.00  0.00     0.169 HD
HETATM   14  O   UNL     1      39.777 -14.024   3.084  1.00  0.00    -0.267 OA
BRANCH  12  15
HETATM   15  C   UNL     1      40.861 -13.137   0.442  1.00  0.00     0.035 A 
HETATM   16  C   UNL     1      39.957 -13.784  -0.405  1.00  0.00     0.044 A 
HETATM   17  C   UNL     1      39.312 -13.079  -1.436  1.00  0.00     0.011 A 
HETATM   18  C   UNL     1      39.602 -11.725  -1.635  1.00  0.00     0.015 A 
HETATM   19  C   UNL     1      40.513 -11.078  -0.802  1.00  0.00     0.003 A 
HETATM   20  C   UNL     1      41.133 -11.779   0.234  1.00  0.00     0.029 A 
BRANCH  17  21
HETATM   21  C   UNL     1      38.317 -13.802  -2.284  1.00  0.00     0.155 C 
HETATM   22  C   UNL     1      38.743 -15.062  -2.992  1.00  0.00     0.096 C 
HETATM   23  O   UNL     1      37.173 -13.369  -2.401  1.00  0.00    -0.293 OA
ENDBRANCH  17  21
ENDBRANCH  12  15
ENDBRANCH   1  11
BRANCH   9  24
HETATM   24  C   UNL     1      43.342 -17.935   4.801  1.00  0.00    -0.005 A 
HETATM   25  C   UNL     1      43.514 -18.747   3.658  1.00  0.00     0.050 A 
HETATM   26  C   UNL     1      43.835 -20.106   3.762  1.00  0.00     0.069 A 
HETATM   27  C   UNL     1      43.969 -20.684   5.023  1.00  0.00     0.037 A 
HETATM   28  C   UNL     1      43.794 -19.916   6.169  1.00  0.00     0.004 A 
HETATM   29  C   UNL     1      43.486 -18.559   6.056  1.00  0.00     0.014 A 
BRANCH  26  30
HETATM   30  O   UNL     1      44.030 -20.966   2.716  1.00  0.00    -0.356 OA
HETATM   31  C   UNL     1      43.606 -20.529   1.431  1.00  0.00     0.210 C 
ENDBRANCH  26  30
ENDBRANCH   9  24
TORSDOF 5
ENDMDL
MODEL 4
REMARK VINA RESULT:      -9.2      2.759      5.310
REMARK  5 active torsions:
REMARK  status: ('A' for Active; 'I' for Inactive)
REMARK    1  A    between atoms: C_2  and  C_3 
REMARK    2  A    between atoms: C_5  and  N_6 
REMARK       I    between atoms: N_6  and  C_7 
REMARK    3  A    between atoms: C_7  and  C_8 
REMARK    4  A    between atoms: C_16  and  C_17 
REMARK    5  A    between atoms: C_19  and  O_20 
ROOT
HETATM    1  C   UNL     1      42.826 -14.567   4.315  1.00  0.00     0.047 A 
HETATM    2  C   UNL     1      43.231 -15.906   4.147  1.00  0.00     0.008 A 
HETATM    3  C   UNL     1      42.848 -16.510   2.937  1.00  0.00     0.068 A 
HETATM    4  C   UNL     1      43.193 -17.836   2.713  1.00  0.00     0.032 A 
HETATM    5  C   UNL     1      43.924 -18.578   3.645  1.00  0.00     0.002 A 
HETATM    6  C   UNL     1      44.332 -17.984   4.829  1.00  0.00     0.001 A 
HETATM    7  C   UNL     1      43.994 -16.656   5.081  1.00  0.00     0.015 A 
HETATM    8  N   UNL     1      42.161 -15.861   1.980  1.00  0.00    -0.248 NA
HETATM    9  C   UNL     1      41.824 -14.556   2.139  1.00  0.00     0.069 A 
HETATM   10  C   UNL     1      42.154 -13.881   3.300  1.00  0.00     0.050 A 
ENDROOT
BRANCH   1  11
HETATM   11  C   UNL     1      43.033 -13.798   5.566  1.00  0.00     0.257 C 
HETATM   12  N   UNL     1      43.789 -12.652   5.409  1.00  0.00    -0.323 N 
HETATM   13  H   UNL     1      44.063 -12.412   4.463  1.00  0.00     0.169 HD
HETATM   14  O   UNL     1      42.594 -14.268   6.605  1.00  0.00    -0.267 OA
BRANCH  12  15
HETATM   15  C   UNL     1      44.283 -11.807   6.424  1.00  0.00     0.035 A 
HETATM   16  C   UNL     1      43.490 -11.239   7.425  1.00  0.00     0.044 A 
HETATM   17  C   UNL     1      44.068 -10.452   8.436  1.00  0.00     0.011 A 
HETATM   18  C   UNL     1      45.446 -10.210   8.422  1.00  0.00     0.015 A 
HETATM   19  C   UNL     1      46.239 -10.763   7.418  1.00  0.00     0.003 A 
HETATM   20  C   UNL     1      45.661 -11.562   6.431  1.00  0.00     0.029 A 
BRANCH  17  21
HETATM   21  C   UNL     1      43.186  -9.906   9.512  1.00  0.00     0.155 C 
HETATM   22  C   UNL     1      43.501 -10.233  10.948  1.00  0.00     0.096 C 
HETATM   23  O   UNL     1      42.219  -9.206   9.222  1.00  0.00    -0.293 OA
ENDBRANCH  17  21
ENDBRANCH  12  15
ENDBRANCH   1  11
BRANCH   9  24
HETATM   24  C   UNL     1      41.091 -13.933   1.010  1.00  0.00    -0.005 A 
HETATM   25  C   UNL     1      40.336 -14.689   0.087  1.00  0.00     0.050 A 
HETATM   26  C   UNL     1      39.639 -14.085  -0.967  1.00  0.00     0.069 A 
HETATM   27  C   UNL     1      39.706 -12.702  -1.127  1.00  0.00     0.037 A 
HETATM   28  C   UNL     1      40.450 -11.928  -0.243  1.00  0.00     0.004 A 
HETATM   29  C   UNL     1      41.131 -12.538   0.812  1.00  0.00     0.014 A 
BRANCH  26  30
HETATM   30  O   UNL     1      38.877 -14.731  -1.900  1.00  0.00    -0.356 OA
HETATM   31  C   UNL     1      38.532 -14.001  -3.071  1.00  0.00     0.210 C 
ENDBRANCH  26  30
ENDBRANCH   9  24
TORSDOF 5
ENDMDL
MODEL 5
REMARK VINA RESULT:      -9.1      3.540      8.683
REMARK  5 active torsions:
REMARK  status: ('A' for Active; 'I' for Inactive)
REMARK    1  A    between atoms: C_2  and  C_3 
REMARK    2  A    between atoms: C_5  and  N_6 
REMARK       I    between atoms: N_6  and  C_7 
REMARK    3  A    between atoms: C_7  and  C_8 
REMARK    4  A    between atoms: C_16  and  C_17 
REMARK    5  A    between atoms: C_19  and  O_20 
ROOT
HETATM    1  C   UNL     1      41.552 -15.312   2.711  1.00  0.00     0.047 A 
HETATM    2  C   UNL     1      42.372 -16.431   2.958  1.00  0.00     0.008 A 
HETATM    3  C   UNL     1      43.287 -16.294   4.016  1.00  0.00     0.068 A 
HETATM    4  C   UNL     1      44.142 -17.349   4.302  1.00  0.00     0.032 A 
HETATM    5  C   UNL     1      44.107 -18.546   3.582  1.00  0.00     0.002 A 
HETATM    6  C   UNL     1      43.188 -18.704   2.555  1.00  0.00     0.001 A 
HETATM    7  C   UNL     1      42.322 -17.658   2.245  1.00  0.00     0.015 A 
HETATM    8  N   UNL     1      43.372 -15.184   4.770  1.00  0.00    -0.248 NA
HETATM    9  C   UNL     1      42.539 -14.135   4.550  1.00  0.00     0.069 A 
HETATM   10  C   UNL     1      41.610 -14.178   3.526  1.00  0.00     0.050 A 
ENDROOT
BRANCH   1  11
HETATM   11  C   UNL     1      40.610 -15.221   1.570  1.00  0.00     0.257 C 
HETATM   12  N   UNL     1      41.074 -14.463   0.511  1.00  0.00    -0.323 N 
HETATM   13  H   UNL     1      42.021 -14.110   0.583  1.00  0.00     0.169 HD
HETATM   14  O   UNL     1      39.512 -15.745   1.691  1.00  0.00    -0.267 OA
BRANCH  12  15
HETATM   15  C   UNL     1      40.356 -14.067  -0.636  1.00  0.00     0.035 A 
HETATM   16  C   UNL     1      40.437 -12.796  -1.211  1.00  0.00     0.044 A 
HETATM   17  C   UNL     1      39.732 -12.497  -2.390  1.00  0.00     0.011 A 
HETATM   18  C   UNL     1      38.918 -13.472  -2.976  1.00  0.00     0.015 A 
HETATM   19  C   UNL     1      38.823 -14.737  -2.399  1.00  0.00     0.003 A 
HETATM   20  C   UNL     1      39.544 -15.034  -1.241  1.00  0.00     0.029 A 
BRANCH  17  21
HETATM   21  C   UNL     1      39.888 -11.138  -2.993  1.00  0.00     0.155 C 
HETATM   22  C   UNL     1      38.707 -10.204  -2.999  1.00  0.00     0.096 C 
HETATM   23  O   UNL     1      40.965 -10.797  -3.477  1.00  0.00    -0.293 OA
ENDBRANCH  17  21
ENDBRANCH  12  15
ENDBRANCH   1  11
BRANCH   9  24
HETATM   24  C   UNL     1      42.703 -12.973   5.457  1.00  0.00    -0.005 A 
HETATM   25  C   UNL     1      43.810 -12.839   6.324  1.00  0.00     0.050 A 
HETATM   26  C   UNL     1      43.957 -11.730   7.166  1.00  0.00     0.069 A 
HETATM   27  C   UNL     1      42.977 -10.738   7.169  1.00  0.00     0.037 A 
HETATM   28  C   UNL     1      41.868 -10.845   6.336  1.00  0.00     0.004 A 
HETATM   29  C   UNL     1      41.737 -11.948   5.491  1.00  0.00     0.014 A 
BRANCH  26  30
HETATM   30  O   UNL     1      44.995 -11.509   8.029  1.00  0.00    -0.356 OA
HETATM   31  C   UNL     1      46.087 -10.737   7.543  1.00  0.00     0.210 C 
ENDBRANCH  26  30
ENDBRANCH   9  24
TORSDOF 5
ENDMDL
MODEL 6
REMARK VINA RESULT:      -9.0      3.678      8.512
REMARK  5 active torsions:
REMARK  status: ('A' for Active; 'I' for Inactive)
REMARK    1  A    between atoms: C_2  and  C_3 
REMARK    2  A    between atoms: C_5  and  N_6 
REMARK       I    between atoms: N_6  and  C_7 
REMARK    3  A    between atoms: C_7  and  C_8 
REMARK    4  A    between atoms: C_16  and  C_17 
REMARK    5  A    between atoms: C_19  and  O_20 
ROOT
HETATM    1  C   UNL     1      40.864 -13.783   2.698  1.00  0.00     0.047 A 
HETATM    2  C   UNL     1      41.088 -12.426   3.004  1.00  0.00     0.008 A 
HETATM    3  C   UNL     1      40.680 -11.505   2.024  1.00  0.00     0.068 A 
HETATM    4  C   UNL     1      40.890 -10.151   2.248  1.00  0.00     0.032 A 
HETATM    5  C   UNL     1      41.478  -9.679   3.424  1.00  0.00     0.002 A 
HETATM    6  C   UNL     1      41.858 -10.576   4.411  1.00  0.00     0.001 A 
HETATM    7  C   UNL     1      41.663 -11.940   4.209  1.00  0.00     0.015 A 
HETATM    8  N   UNL     1      40.090 -11.875   0.873  1.00  0.00    -0.248 NA
HETATM    9  C   UNL     1      39.836 -13.184   0.618  1.00  0.00     0.069 A 
HETATM   10  C   UNL     1      40.208 -14.161   1.524  1.00  0.00     0.050 A 
ENDROOT
BRANCH   1  11
HETATM   11  C   UNL     1      41.329 -14.903   3.550  1.00  0.00     0.257 C 
HETATM   12  N   UNL     1      42.493 -15.504   3.110  1.00  0.00    -0.323 N 
HETATM   13  H   UNL     1      42.948 -15.085   2.307  1.00  0.00     0.169 HD
HETATM   14  O   UNL     1      40.626 -15.235   4.493  1.00  0.00    -0.267 OA
BRANCH  12  15
HETATM   15  C   UNL     1      43.092 -16.679   3.612  1.00  0.00     0.035 A 
HETATM   16  C   UNL     1      43.058 -17.915   2.962  1.00  0.00     0.044 A 
HETATM   17  C   UNL     1      43.730 -19.026   3.500  1.00  0.00     0.011 A 
HETATM   18  C   UNL     1      44.412 -18.900   4.715  1.00  0.00     0.015 A 
HETATM   19  C   UNL     1      44.437 -17.673   5.375  1.00  0.00     0.003 A 
HETATM   20  C   UNL     1      43.787 -16.568   4.822  1.00  0.00     0.029 A 
BRANCH  17  21
HETATM   21  C   UNL     1      43.705 -20.314   2.744  1.00  0.00     0.155 C 
HETATM   22  C   UNL     1      43.328 -20.295   1.285  1.00  0.00     0.096 C 
HETATM   23  O   UNL     1      43.985 -21.369   3.309  1.00  0.00    -0.293 OA
ENDBRANCH  17  21
ENDBRANCH  12  15
ENDBRANCH   1  11
BRANCH   9  24
HETATM   24  C   UNL     1      39.158 -13.475  -0.668  1.00  0.00    -0.005 A 
HETATM   25  C   UNL     1      38.179 -12.620  -1.221  1.00  0.00     0.050 A 
HETATM   26  C   UNL     1      37.557 -12.903  -2.442  1.00  0.00     0.069 A 
HETATM   27  C   UNL     1      37.894 -14.069  -3.128  1.00  0.00     0.037 A 
HETATM   28  C   UNL     1      38.846 -14.940  -2.607  1.00  0.00     0.004 A 
HETATM   29  C   UNL     1      39.470 -14.642  -1.394  1.00  0.00     0.014 A 
BRANCH  26  30
HETATM   30  O   UNL     1      36.609 -12.133  -3.058  1.00  0.00    -0.356 OA
HETATM   31  C   UNL     1      36.625 -10.739  -2.775  1.00  0.00     0.210 C 
ENDBRANCH  26  30
ENDBRANCH   9  24
TORSDOF 5
ENDMDL
MODEL 7
REMARK VINA RESULT:      -8.9      2.885      7.090
REMARK  5 active torsions:
REMARK  status: ('A' for Active; 'I' for Inactive)
REMARK    1  A    between atoms: C_2  and  C_3 
REMARK    2  A    between atoms: C_5  and  N_6 
REMARK       I    between atoms: N_6  and  C_7 
REMARK    3  A    between atoms: C_7  and  C_8 
REMARK    4  A    between atoms: C_16  and  C_17 
REMARK    5  A    between atoms: C_19  and  O_20 
ROOT
HETATM    1  C   UNL     1      42.388 -13.735   3.369  1.00  0.00     0.047 A 
HETATM    2  C   UNL     1      42.815 -13.289   4.636  1.00  0.00     0.008 A 
HETATM    3  C   UNL     1      43.366 -14.275   5.474  1.00  0.00     0.068 A 
HETATM    4  C   UNL     1      43.788 -13.912   6.745  1.00  0.00     0.032 A 
HETATM    5  C   UNL     1      43.698 -12.597   7.208  1.00  0.00     0.002 A 
HETATM    6  C   UNL     1      43.184 -11.610   6.379  1.00  0.00     0.001 A 
HETATM    7  C   UNL     1      42.748 -11.949   5.100  1.00  0.00     0.015 A 
HETATM    8  N   UNL     1      43.505 -15.559   5.100  1.00  0.00    -0.248 NA
HETATM    9  C   UNL     1      43.135 -15.959   3.856  1.00  0.00     0.069 A 
HETATM   10  C   UNL     1      42.578 -15.059   2.965  1.00  0.00     0.050 A 
ENDROOT
BRANCH   1  11
HETATM   11  C   UNL     1      41.679 -12.873   2.393  1.00  0.00     0.257 C 
HETATM   12  N   UNL     1      40.497 -13.409   1.918  1.00  0.00    -0.323 N 
HETATM   13  H   UNL     1      40.196 -14.287   2.327  1.00  0.00     0.169 HD
HETATM   14  O   UNL     1      42.220 -11.833   2.049  1.00  0.00    -0.267 OA
BRANCH  12  15
HETATM   15  C   UNL     1      39.686 -12.908   0.879  1.00  0.00     0.035 A 
HETATM   16  C   UNL     1      39.770 -13.327  -0.452  1.00  0.00     0.044 A 
HETATM   17  C   UNL     1      38.886 -12.818  -1.419  1.00  0.00     0.011 A 
HETATM   18  C   UNL     1      37.934 -11.860  -1.052  1.00  0.00     0.015 A 
HETATM   19  C   UNL     1      37.856 -11.428   0.270  1.00  0.00     0.003 A 
HETATM   20  C   UNL     1      38.722 -11.955   1.231  1.00  0.00     0.029 A 
BRANCH  17  21
HETATM   21  C   UNL     1      38.982 -13.333  -2.819  1.00  0.00     0.155 C 
HETATM   22  C   UNL     1      37.994 -14.371  -3.283  1.00  0.00     0.096 C 
HETATM   23  O   UNL     1      39.858 -12.915  -3.572  1.00  0.00    -0.293 OA
ENDBRANCH  17  21
ENDBRANCH  12  15
ENDBRANCH   1  11
BRANCH   9  24
HETATM   24  C   UNL     1      43.358 -17.391   3.541  1.00  0.00    -0.005 A 
HETATM   25  C   UNL     1      43.987 -18.277   4.444  1.00  0.00     0.050 A 
HETATM   26  C   UNL     1      44.179 -19.629   4.136  1.00  0.00     0.069 A 
HETATM   27  C   UNL     1      43.759 -20.116   2.900  1.00  0.00     0.037 A 
HETATM   28  C   UNL     1      43.147 -19.268   1.982  1.00  0.00     0.004 A 
HETATM   29  C   UNL     1      42.948 -17.924   2.303  1.00  0.00     0.014 A 
BRANCH  26  30
HETATM   30  O   UNL     1      44.766 -20.561   4.947  1.00  0.00    -0.356 OA
HETATM   31  C   UNL     1      44.005 -21.028   6.054  1.00  0.00     0.210 C 
ENDBRANCH  26  30
ENDBRANCH   9  24
TORSDOF 5
ENDMDL
MODEL 8
REMARK VINA RESULT:      -8.8      1.591      2.058
REMARK  5 active torsions:
REMARK  status: ('A' for Active; 'I' for Inactive)
REMARK    1  A    between atoms: C_2  and  C_3 
REMARK    2  A    between atoms: C_5  and  N_6 
REMARK       I    between atoms: N_6  and  C_7 
REMARK    3  A    between atoms: C_7  and  C_8 
REMARK    4  A    between atoms: C_16  and  C_17 
REMARK    5  A    between atoms: C_19  and  O_20 
ROOT
HETATM    1  C   UNL     1      42.725 -12.873   3.446  1.00  0.00     0.047 A 
HETATM    2  C   UNL     1      42.009 -12.550   2.277  1.00  0.00     0.008 A 
HETATM    3  C   UNL     1      41.734 -13.626   1.415  1.00  0.00     0.068 A 
HETATM    4  C   UNL     1      41.050 -13.378   0.233  1.00  0.00     0.032 A 
HETATM    5  C   UNL     1      40.612 -12.097  -0.115  1.00  0.00     0.002 A 
HETATM    6  C   UNL     1      40.852 -11.033   0.742  1.00  0.00     0.001 A 
HETATM    7  C   UNL     1      41.541 -11.254   1.932  1.00  0.00     0.015 A 
HETATM    8  N   UNL     1      42.103 -14.891   1.683  1.00  0.00    -0.248 NA
HETATM    9  C   UNL     1      42.749 -15.190   2.839  1.00  0.00     0.069 A 
HETATM   10  C   UNL     1      43.066 -14.195   3.745  1.00  0.00     0.050 A 
ENDROOT
BRANCH   1  11
HETATM   11  C   UNL     1      43.208 -11.862   4.417  1.00  0.00     0.257 C 
HETATM   12  N   UNL     1      42.389 -11.697   5.518  1.00  0.00    -0.323 N 
HETATM   13  H   UNL     1      41.593 -12.320   5.593  1.00  0.00     0.169 HD
HETATM   14  O   UNL     1      44.216 -11.231   4.133  1.00  0.00    -0.267 OA
BRANCH  12  15
HETATM   15  C   UNL     1      42.496 -10.715   6.525  1.00  0.00     0.035 A 
HETATM   16  C   UNL     1      43.685 -10.397   7.187  1.00  0.00     0.044 A 
HETATM   17  C   UNL     1      43.720  -9.364   8.139  1.00  0.00     0.011 A 
HETATM   18  C   UNL     1      42.546  -8.667   8.449  1.00  0.00     0.015 A 
HETATM   19  C   UNL     1      41.355  -8.989   7.801  1.00  0.00     0.003 A 
HETATM   20  C   UNL     1      41.333 -10.001   6.839  1.00  0.00     0.029 A 
BRANCH  17  21
HETATM   21  C   UNL     1      45.025  -9.030   8.786  1.00  0.00     0.155 C 
HETATM   22  C   UNL     1      45.393  -9.711  10.078  1.00  0.00     0.096 C 
HETATM   23  O   UNL     1      45.779  -8.209   8.269  1.00  0.00    -0.293 OA
ENDBRANCH  17  21
ENDBRANCH  12  15
ENDBRANCH   1  11
BRANCH   9  24
HETATM   24  C   UNL     1      43.084 -16.620   3.044  1.00  0.00    -0.005 A 
HETATM   25  C   UNL     1      43.402 -17.151   4.314  1.00  0.00     0.050 A 
HETATM   26  C   UNL     1      43.704 -18.506   4.491  1.00  0.00     0.069 A 
HETATM   27  C   UNL     1      43.715 -19.356   3.387  1.00  0.00     0.037 A 
HETATM   28  C   UNL     1      43.418 -18.864   2.120  1.00  0.00     0.004 A 
HETATM   29  C   UNL     1      43.105 -17.514   1.954  1.00  0.00     0.014 A 
BRANCH  26  30
HETATM   30  O   UNL     1      44.013 -19.111   5.679  1.00  0.00    -0.356 OA
HETATM   31  C   UNL     1      43.954 -20.531   5.717  1.00  0.00     0.210 C 
ENDBRANCH  26  30
ENDBRANCH   9  24
TORSDOF 5
ENDMDL
MODEL 9
REMARK VINA RESULT:      -8.7      3.446      7.375
REMARK  5 active torsions:
REMARK  status: ('A' for Active; 'I' for Inactive)
REMARK    1  A    between atoms: C_2  and  C_3 
REMARK    2  A    between atoms: C_5  and  N_6 
REMARK       I    between atoms: N_6  and  C_7 
REMARK    3  A    between atoms: C_7  and  C_8 
REMARK    4  A    between atoms: C_16  and  C_17 
REMARK    5  A    between atoms: C_19  and  O_20 
ROOT
HETATM    1  C   UNL     1      41.567 -14.150   2.896  1.00  0.00     0.047 A 
HETATM    2  C   UNL     1      42.148 -13.111   3.650  1.00  0.00     0.008 A 
HETATM    3  C   UNL     1      43.018 -13.517   4.676  1.00  0.00     0.068 A 
HETATM    4  C   UNL     1      43.610 -12.547   5.474  1.00  0.00     0.032 A 
HETATM    5  C   UNL     1      43.382 -11.184   5.274  1.00  0.00     0.002 A 
HETATM    6  C   UNL     1      42.548 -10.770   4.245  1.00  0.00     0.001 A 
HETATM    7  C   UNL     1      41.937 -11.723   3.434  1.00  0.00     0.015 A 
HETATM    8  N   UNL     1      43.307 -14.807   4.923  1.00  0.00    -0.248 NA
HETATM    9  C   UNL     1      42.776 -15.792   4.153  1.00  0.00     0.069 A 
HETATM   10  C   UNL     1      41.905 -15.486   3.124  1.00  0.00     0.050 A 
ENDROOT
BRANCH   1  11
HETATM   11  C   UNL     1      40.538 -13.929   1.851  1.00  0.00     0.257 C 
HETATM   12  N   UNL     1      41.012 -14.039   0.558  1.00  0.00    -0.323 N 
HETATM   13  H   UNL     1      41.978 -14.326   0.448  1.00  0.00     0.169 HD
HETATM   14  O   UNL     1      39.416 -13.606   2.212  1.00  0.00    -0.267 OA
BRANCH  12  15
HETATM   15  C   UNL     1      40.323 -13.734  -0.635  1.00  0.00     0.035 A 
HETATM   16  C   UNL     1      40.409 -12.508  -1.299  1.00  0.00     0.044 A 
HETATM   17  C   UNL     1      39.734 -12.303  -2.515  1.00  0.00     0.011 A 
HETATM   18  C   UNL     1      38.944 -13.326  -3.049  1.00  0.00     0.015 A 
HETATM   19  C   UNL     1      38.844 -14.547  -2.384  1.00  0.00     0.003 A 
HETATM   20  C   UNL     1      39.535 -14.751  -1.188  1.00  0.00     0.029 A 
BRANCH  17  21
HETATM   21  C   UNL     1      39.896 -10.991  -3.211  1.00  0.00     0.155 C 
HETATM   22  C   UNL     1      38.679 -10.133  -3.440  1.00  0.00     0.096 C 
HETATM   23  O   UNL     1      41.006 -10.625  -3.591  1.00  0.00    -0.293 OA
ENDBRANCH  17  21
ENDBRANCH  12  15
ENDBRANCH   1  11
BRANCH   9  24
HETATM   24  C   UNL     1      43.184 -17.175   4.498  1.00  0.00    -0.005 A 
HETATM   25  C   UNL     1      43.511 -18.137   3.516  1.00  0.00     0.050 A 
HETATM   26  C   UNL     1      43.905 -19.436   3.859  1.00  0.00     0.069 A 
HETATM   27  C   UNL     1      43.959 -19.803   5.202  1.00  0.00     0.037 A 
HETATM   28  C   UNL     1      43.632 -18.884   6.195  1.00  0.00     0.004 A 
HETATM   29  C   UNL     1      43.252 -17.587   5.844  1.00  0.00     0.014 A 
BRANCH  26  30
HETATM   30  O   UNL     1      44.248 -20.428   2.982  1.00  0.00    -0.356 OA
HETATM   31  C   UNL     1      43.552 -20.465   1.742  1.00  0.00     0.210 C 
ENDBRANCH  26  30
ENDBRANCH   9  24
TORSDOF 5
ENDMDL
MODEL 10
REMARK VINA RESULT:      -8.7      1.800      8.374
REMARK  5 active torsions:
REMARK  status: ('A' for Active; 'I' for Inactive)
REMARK    1  A    between atoms: C_2  and  C_3 
REMARK    2  A    between atoms: C_5  and  N_6 
REMARK       I    between atoms: N_6  and  C_7 
REMARK    3  A    between atoms: C_7  and  C_8 
REMARK    4  A    between atoms: C_16  and  C_17 
REMARK    5  A    between atoms: C_19  and  O_20 
ROOT
HETATM    1  C   UNL     1      42.136 -13.186   5.599  1.00  0.00     0.047 A 
HETATM    2  C   UNL     1      41.167 -12.378   4.972  1.00  0.00     0.008 A 
HETATM    3  C   UNL     1      41.177 -11.021   5.337  1.00  0.00     0.068 A 
HETATM    4  C   UNL     1      40.236 -10.169   4.775  1.00  0.00     0.032 A 
HETATM    5  C   UNL     1      39.294 -10.618   3.846  1.00  0.00     0.002 A 
HETATM    6  C   UNL     1      39.294 -11.948   3.455  1.00  0.00     0.001 A 
HETATM    7  C   UNL     1      40.224 -12.825   4.008  1.00  0.00     0.015 A 
HETATM    8  N   UNL     1      42.061 -10.504   6.209  1.00  0.00    -0.248 NA
HETATM    9  C   UNL     1      43.020 -11.289   6.765  1.00  0.00     0.069 A 
HETATM   10  C   UNL     1      43.083 -12.638   6.468  1.00  0.00     0.050 A 
ENDROOT
BRANCH   1  11
HETATM   11  C   UNL     1      42.209 -14.657   5.432  1.00  0.00     0.257 C 
HETATM   12  N   UNL     1      43.147 -15.077   4.509  1.00  0.00    -0.323 N 
HETATM   13  H   UNL     1      43.734 -14.361   4.096  1.00  0.00     0.169 HD
HETATM   14  O   UNL     1      41.409 -15.344   6.051  1.00  0.00    -0.267 OA
BRANCH  12  15
HETATM   15  C   UNL     1      43.343 -16.386   4.022  1.00  0.00     0.035 A 
HETATM   16  C   UNL     1      43.671 -17.481   4.826  1.00  0.00     0.044 A 
HETATM   17  C   UNL     1      43.793 -18.766   4.271  1.00  0.00     0.011 A 
HETATM   18  C   UNL     1      43.614 -18.946   2.896  1.00  0.00     0.015 A 
HETATM   19  C   UNL     1      43.300 -17.856   2.087  1.00  0.00     0.003 A 
HETATM   20  C   UNL     1      43.158 -16.586   2.648  1.00  0.00     0.029 A 
BRANCH  17  21
HETATM   21  C   UNL     1      44.098 -19.913   5.180  1.00  0.00     0.155 C 
HETATM   22  C   UNL     1      43.436 -19.966   6.532  1.00  0.00     0.096 C 
HETATM   23  O   UNL     1      44.880 -20.792   4.825  1.00  0.00    -0.293 OA
ENDBRANCH  17  21
ENDBRANCH  12  15
ENDBRANCH   1  11
BRANCH   9  24
HETATM   24  C   UNL     1      43.957 -10.610   7.692  1.00  0.00    -0.005 A 
HETATM   25  C   UNL     1      43.586 -10.227   9.001  1.00  0.00     0.050 A 
HETATM   26  C   UNL     1      44.487  -9.598   9.868  1.00  0.00     0.069 A 
HETATM   27  C   UNL     1      45.780  -9.319   9.428  1.00  0.00     0.037 A 
HETATM   28  C   UNL     1      46.175  -9.672   8.141  1.00  0.00     0.004 A 
HETATM   29  C   UNL     1      45.273 -10.311   7.288  1.00  0.00     0.014 A 
BRANCH  26  30
HETATM   30  O   UNL     1      44.223  -9.201  11.150  1.00  0.00    -0.356 OA
HETATM   31  C   UNL     1      43.201  -9.903  11.847  1.00  0.00     0.210 C 
ENDBRANCH  26  30
ENDBRANCH   9  24
TORSDOF 5
ENDMDL
