MODEL 1
REMARK VINA RESULT:      -7.7      0.000      0.000
REMARK  14 active torsions:
REMARK  status: ('A' for Active; 'I' for Inactive)
REMARK    1  A    between atoms: C_2  and  O_3 
REMARK    2  A    between atoms: O_3  and  C_4 
REMARK    3  A    between atoms: C_5  and  O_6 
REMARK    4  A    between atoms: C_9  and  C_10 
REMARK    5  A    between atoms: N_11  and  C_12 
REMARK    6  A    between atoms: C_12  and  C_13 
REMARK    7  A    between atoms: C_13  and  C_14 
REMARK    8  A    between atoms: C_14  and  N_15 
REMARK    9  A    between atoms: C_21  and  O_22 
REMARK   10  A    between atoms: C_23  and  C_24 
REMARK   11  A    between atoms: C_24  and  C_25 
REMARK   12  A    between atoms: C_29  and  O_30 
REMARK   13  A    between atoms: O_30  and  C_31 
REMARK   14  A    between atoms: C_31  and  C_32 
ROOT
HETATM    1  C   UNL     1      40.995 -12.369   0.916  1.00  0.00     0.161 A 
HETATM    2  N   UNL     1      40.556 -11.059   0.437  1.00  0.00    -0.333 N 
HETATM    3  C   UNL     1      39.403 -11.169  -0.319  1.00  0.00     0.278 A 
HETATM    4  O   UNL     1      38.776 -10.282  -0.870  1.00  0.00    -0.265 OA
HETATM    5  C   UNL     1      39.043 -12.600  -0.387  1.00  0.00     0.146 A 
HETATM    6  C   UNL     1      39.997 -13.271   0.265  1.00  0.00     0.059 A 
ENDROOT
BRANCH   6   7
HETATM    7  C   UNL     1      40.163 -14.734   0.348  1.00  0.00     0.193 C 
HETATM    8  O   UNL     1      39.509 -15.456  -0.398  1.00  0.00    -0.287 OA
BRANCH   7   9
HETATM    9  C   UNL     1      41.039 -15.337   1.393  1.00  0.00     0.015 A 
HETATM   10  C   UNL     1      40.473 -15.637   2.638  1.00  0.00     0.025 A 
HETATM   11  C   UNL     1      41.257 -16.155   3.684  1.00  0.00    -0.028 A 
HETATM   12  C   UNL     1      40.623 -16.454   5.015  1.00  0.00     0.051 C 
HETATM   13  C   UNL     1      42.629 -16.380   3.477  1.00  0.00     0.074 A 
HETATM   14  C   UNL     1      43.197 -16.064   2.241  1.00  0.00     0.038 A 
HETATM   15  C   UNL     1      42.412 -15.535   1.210  1.00  0.00     0.018 A 
BRANCH  13  16
HETATM   16  O   UNL     1      43.318 -16.889   4.546  1.00  0.00    -0.350 OA
BRANCH  16  17
HETATM   17  C   UNL     1      44.324 -17.869   4.282  1.00  0.00     0.179 C 
BRANCH  17  18
HETATM   18  C   UNL     1      43.652 -19.235   4.083  1.00  0.00     0.002 C 
HETATM   19  C   UNL     1      43.755 -19.702   2.629  1.00  0.00     0.011 C 
HETATM   20  C   UNL     1      44.269 -20.272   5.018  1.00  0.00     0.011 C 
ENDBRANCH  17  18
ENDBRANCH  16  17
ENDBRANCH  13  16
ENDBRANCH   7   9
ENDBRANCH   6   7
BRANCH   1  21
HETATM   21  C   UNL     1      41.008 -12.381   2.434  1.00  0.00    -0.028 A 
HETATM   22  C   UNL     1      39.830 -12.269   3.193  1.00  0.00     0.012 A 
HETATM   23  C   UNL     1      39.876 -12.255   4.590  1.00  0.00     0.040 A 
HETATM   24  C   UNL     1      41.101 -12.374   5.247  1.00  0.00     0.099 A 
HETATM   25  C   UNL     1      42.280 -12.533   4.514  1.00  0.00     0.102 A 
HETATM   26  C   UNL     1      42.228 -12.511   3.116  1.00  0.00     0.049 A 
BRANCH  24  27
HETATM   27  O   UNL     1      41.131 -12.308   6.611  1.00  0.00    -0.358 OA
HETATM   28  H   UNL     1      40.238 -12.453   6.963  1.00  0.00     0.218 HD
ENDBRANCH  24  27
BRANCH  25  29
HETATM   29  O   UNL     1      43.539 -12.682   5.033  1.00  0.00    -0.349 OA
BRANCH  29  30
HETATM   30  C   UNL     1      44.243 -11.458   5.271  1.00  0.00     0.171 C 
HETATM   31  C   UNL     1      44.896 -11.549   6.639  1.00  0.00     0.034 C 
ENDBRANCH  29  30
ENDBRANCH  25  29
ENDBRANCH   1  21
BRANCH   5  32
HETATM   32  O   UNL     1      37.982 -13.083  -1.089  1.00  0.00    -0.355 OA
HETATM   33  H   UNL     1      38.221 -13.987  -1.377  1.00  0.00     0.218 HD
ENDBRANCH   5  32
BRANCH   2  34
HETATM   34  C   UNL     1      41.502  -9.958   0.326  1.00  0.00     0.129 C 
BRANCH  34  35
HETATM   35  C   UNL     1      41.963  -9.641  -1.097  1.00  0.00     0.048 C 
BRANCH  35  36
HETATM   36  C   UNL     1      42.703  -8.311  -1.168  1.00  0.00     0.235 C 
BRANCH  36  37
HETATM   37  N   UNL     1      42.654  -7.755  -2.580  1.00  0.00    -0.079 N 
HETATM   38  H   UNL     1      43.414  -8.191  -3.119  1.00  0.00     0.278 HD
HETATM   39  C   UNL     1      41.364  -8.084  -3.287  1.00  0.00     0.269 C 
HETATM   40  C   UNL     1      42.919  -6.273  -2.599  1.00  0.00     0.269 C 
ENDBRANCH  36  37
ENDBRANCH  35  36
ENDBRANCH  34  35
ENDBRANCH   2  34
TORSDOF 14
ENDMDL
MODEL 2
REMARK VINA RESULT:      -7.7      2.567      7.610
REMARK  14 active torsions:
REMARK  status: ('A' for Active; 'I' for Inactive)
REMARK    1  A    between atoms: C_2  and  O_3 
REMARK    2  A    between atoms: O_3  and  C_4 
REMARK    3  A    between atoms: C_5  and  O_6 
REMARK    4  A    between atoms: C_9  and  C_10 
REMARK    5  A    between atoms: N_11  and  C_12 
REMARK    6  A    between atoms: C_12  and  C_13 
REMARK    7  A    between atoms: C_13  and  C_14 
REMARK    8  A    between atoms: C_14  and  N_15 
REMARK    9  A    between atoms: C_21  and  O_22 
REMARK   10  A    between atoms: C_23  and  C_24 
REMARK   11  A    between atoms: C_24  and  C_25 
REMARK   12  A    between atoms: C_29  and  O_30 
REMARK   13  A    between atoms: O_30  and  C_31 
REMARK   14  A    between atoms: C_31  and  C_32 
ROOT
HETATM    1  C   UNL     1      42.304 -14.215   3.964  1.00  0.00     0.161 A 
HETATM    2  N   UNL     1      42.377 -13.217   5.030  1.00  0.00    -0.333 N 
HETATM    3  C   UNL     1      41.146 -12.621   5.236  1.00  0.00     0.278 A 
HETATM    4  O   UNL     1      40.854 -11.751   6.036  1.00  0.00    -0.265 OA
HETATM    5  C   UNL     1      40.195 -13.206   4.268  1.00  0.00     0.146 A 
HETATM    6  C   UNL     1      40.888 -14.061   3.512  1.00  0.00     0.059 A 
ENDROOT
BRANCH   6   7
HETATM    7  C   UNL     1      40.416 -14.781   2.314  1.00  0.00     0.193 C 
HETATM    8  O   UNL     1      40.142 -15.974   2.400  1.00  0.00    -0.287 OA
BRANCH   7   9
HETATM    9  C   UNL     1      40.366 -14.096   0.991  1.00  0.00     0.015 A 
HETATM   10  C   UNL     1      39.719 -14.747  -0.067  1.00  0.00     0.025 A 
HETATM   11  C   UNL     1      39.685 -14.180  -1.353  1.00  0.00    -0.028 A 
HETATM   12  C   UNL     1      38.995 -14.911  -2.472  1.00  0.00     0.051 C 
HETATM   13  C   UNL     1      40.306 -12.940  -1.582  1.00  0.00     0.074 A 
HETATM   14  C   UNL     1      40.967 -12.300  -0.531  1.00  0.00     0.038 A 
HETATM   15  C   UNL     1      41.008 -12.878   0.742  1.00  0.00     0.018 A 
BRANCH  13  16
HETATM   16  O   UNL     1      40.224 -12.459  -2.862  1.00  0.00    -0.350 OA
BRANCH  16  17
HETATM   17  C   UNL     1      41.064 -11.359  -3.213  1.00  0.00     0.179 C 
BRANCH  17  18
HETATM   18  C   UNL     1      40.196 -10.107  -3.406  1.00  0.00     0.002 C 
HETATM   19  C   UNL     1      38.705 -10.449  -3.370  1.00  0.00     0.011 C 
HETATM   20  C   UNL     1      40.527  -9.062  -2.343  1.00  0.00     0.011 C 
ENDBRANCH  17  18
ENDBRANCH  16  17
ENDBRANCH  13  16
ENDBRANCH   7   9
ENDBRANCH   6   7
BRANCH   1  21
HETATM   21  C   UNL     1      42.679 -15.580   4.515  1.00  0.00    -0.028 A 
HETATM   22  C   UNL     1      42.449 -15.934   5.856  1.00  0.00     0.012 A 
HETATM   23  C   UNL     1      42.830 -17.188   6.341  1.00  0.00     0.040 A 
HETATM   24  C   UNL     1      43.429 -18.112   5.485  1.00  0.00     0.099 A 
HETATM   25  C   UNL     1      43.627 -17.799   4.138  1.00  0.00     0.102 A 
HETATM   26  C   UNL     1      43.273 -16.529   3.669  1.00  0.00     0.049 A 
BRANCH  24  27
HETATM   27  O   UNL     1      43.841 -19.314   5.989  1.00  0.00    -0.358 OA
HETATM   28  H   UNL     1      43.411 -20.035   5.503  1.00  0.00     0.218 HD
ENDBRANCH  24  27
BRANCH  25  29
HETATM   29  O   UNL     1      44.181 -18.620   3.191  1.00  0.00    -0.349 OA
BRANCH  29  30
HETATM   30  C   UNL     1      43.261 -19.133   2.222  1.00  0.00     0.171 C 
HETATM   31  C   UNL     1      43.709 -20.533   1.841  1.00  0.00     0.034 C 
ENDBRANCH  29  30
ENDBRANCH  25  29
ENDBRANCH   1  21
BRANCH   5  32
HETATM   32  O   UNL     1      38.894 -12.822   4.155  1.00  0.00    -0.355 OA
HETATM   33  H   UNL     1      38.617 -12.499   5.036  1.00  0.00     0.218 HD
ENDBRANCH   5  32
BRANCH   2  34
HETATM   34  C   UNL     1      43.649 -12.601   5.381  1.00  0.00     0.129 C 
BRANCH  34  35
HETATM   35  C   UNL     1      44.048 -12.731   6.851  1.00  0.00     0.048 C 
BRANCH  35  36
HETATM   36  C   UNL     1      44.542 -11.408   7.422  1.00  0.00     0.235 C 
BRANCH  36  37
HETATM   37  N   UNL     1      43.480 -10.787   8.311  1.00  0.00    -0.079 N 
HETATM   38  H   UNL     1      42.697 -11.451   8.380  1.00  0.00     0.278 HD
HETATM   39  C   UNL     1      43.973 -10.537   9.714  1.00  0.00     0.269 C 
HETATM   40  C   UNL     1      42.916  -9.530   7.704  1.00  0.00     0.269 C 
ENDBRANCH  36  37
ENDBRANCH  35  36
ENDBRANCH  34  35
ENDBRANCH   2  34
TORSDOF 14
ENDMDL
MODEL 3
REMARK VINA RESULT:      -7.7      2.346      5.241
REMARK  14 active torsions:
REMARK  status: ('A' for Active; 'I' for Inactive)
REMARK    1  A    between atoms: C_2  and  O_3 
REMARK    2  A    between atoms: O_3  and  C_4 
REMARK    3  A    between atoms: C_5  and  O_6 
REMARK    4  A    between atoms: C_9  and  C_10 
REMARK    5  A    between atoms: N_11  and  C_12 
REMARK    6  A    between atoms: C_12  and  C_13 
REMARK    7  A    between atoms: C_13  and  C_14 
REMARK    8  A    between atoms: C_14  and  N_15 
REMARK    9  A    between atoms: C_21  and  O_22 
REMARK   10  A    between atoms: C_23  and  C_24 
REMARK   11  A    between atoms: C_24  and  C_25 
REMARK   12  A    between atoms: C_29  and  O_30 
REMARK   13  A    between atoms: O_30  and  C_31 
REMARK   14  A    between atoms: C_31  and  C_32 
ROOT
HETATM    1  C   UNL     1      40.465 -11.454   2.055  1.00  0.00     0.161 A 
HETATM    2  N   UNL     1      39.427 -10.449   2.283  1.00  0.00    -0.333 N 
HETATM    3  C   UNL     1      39.896  -9.425   3.085  1.00  0.00     0.278 A 
HETATM    4  O   UNL     1      39.299  -8.437   3.474  1.00  0.00    -0.265 OA
HETATM    5  C   UNL     1      41.295  -9.738   3.444  1.00  0.00     0.146 A 
HETATM    6  C   UNL     1      41.577 -10.927   2.904  1.00  0.00     0.059 A 
ENDROOT
BRANCH   6   7
HETATM    7  C   UNL     1      42.795 -11.733   3.103  1.00  0.00     0.193 C 
HETATM    8  O   UNL     1      43.881 -11.168   3.193  1.00  0.00    -0.287 OA
BRANCH   7   9
HETATM    9  C   UNL     1      42.726 -13.223   3.098  1.00  0.00     0.015 A 
HETATM   10  C   UNL     1      42.178 -13.862   4.217  1.00  0.00     0.025 A 
HETATM   11  C   UNL     1      42.135 -15.265   4.299  1.00  0.00    -0.028 A 
HETATM   12  C   UNL     1      41.555 -15.924   5.520  1.00  0.00     0.051 C 
HETATM   13  C   UNL     1      42.644 -16.039   3.241  1.00  0.00     0.074 A 
HETATM   14  C   UNL     1      43.206 -15.400   2.133  1.00  0.00     0.038 A 
HETATM   15  C   UNL     1      43.258 -14.003   2.067  1.00  0.00     0.018 A 
BRANCH  13  16
HETATM   16  O   UNL     1      42.559 -17.396   3.400  1.00  0.00    -0.350 OA
BRANCH  16  17
HETATM   17  C   UNL     1      42.875 -18.218   2.275  1.00  0.00     0.179 C 
BRANCH  17  18
HETATM   18  C   UNL     1      44.003 -19.185   2.662  1.00  0.00     0.002 C 
HETATM   19  C   UNL     1      44.128 -19.320   4.181  1.00  0.00     0.011 C 
HETATM   20  C   UNL     1      43.770 -20.554   2.025  1.00  0.00     0.011 C 
ENDBRANCH  17  18
ENDBRANCH  16  17
ENDBRANCH  13  16
ENDBRANCH   7   9
ENDBRANCH   6   7
BRANCH   1  21
HETATM   21  C   UNL     1      40.758 -11.558   0.569  1.00  0.00    -0.028 A 
HETATM   22  C   UNL     1      41.338 -10.501  -0.155  1.00  0.00     0.012 A 
HETATM   23  C   UNL     1      41.570 -10.617  -1.528  1.00  0.00     0.040 A 
HETATM   24  C   UNL     1      41.245 -11.800  -2.192  1.00  0.00     0.099 A 
HETATM   25  C   UNL     1      40.711 -12.880  -1.484  1.00  0.00     0.102 A 
HETATM   26  C   UNL     1      40.450 -12.743  -0.117  1.00  0.00     0.049 A 
BRANCH  24  27
HETATM   27  O   UNL     1      41.433 -11.876  -3.543  1.00  0.00    -0.358 OA
HETATM   28  H   UNL     1      40.578 -11.994  -3.984  1.00  0.00     0.218 HD
ENDBRANCH  24  27
BRANCH  25  29
HETATM   29  O   UNL     1      40.370 -14.099  -2.008  1.00  0.00    -0.349 OA
BRANCH  29  30
HETATM   30  C   UNL     1      39.006 -14.483  -1.808  1.00  0.00     0.171 C 
HETATM   31  C   UNL     1      38.422 -14.871  -3.155  1.00  0.00     0.034 C 
ENDBRANCH  29  30
ENDBRANCH  25  29
ENDBRANCH   1  21
BRANCH   5  32
HETATM   32  O   UNL     1      42.059  -8.966   4.263  1.00  0.00    -0.355 OA
HETATM   33  H   UNL     1      41.796  -9.179   5.180  1.00  0.00     0.218 HD
ENDBRANCH   5  32
BRANCH   2  34
HETATM   34  C   UNL     1      38.020 -10.796   2.144  1.00  0.00     0.129 C 
BRANCH  34  35
HETATM   35  C   UNL     1      37.298 -10.117   0.979  1.00  0.00     0.048 C 
BRANCH  35  36
HETATM   36  C   UNL     1      37.199 -11.034  -0.235  1.00  0.00     0.235 C 
BRANCH  36  37
HETATM   37  N   UNL     1      37.930 -10.424  -1.417  1.00  0.00    -0.079 N 
HETATM   38  H   UNL     1      38.939 -10.566  -1.273  1.00  0.00     0.278 HD
HETATM   39  C   UNL     1      37.573 -11.088  -2.724  1.00  0.00     0.269 C 
HETATM   40  C   UNL     1      37.718  -8.936  -1.491  1.00  0.00     0.269 C 
ENDBRANCH  36  37
ENDBRANCH  35  36
ENDBRANCH  34  35
ENDBRANCH   2  34
TORSDOF 14
ENDMDL
MODEL 4
REMARK VINA RESULT:      -7.5      1.680      2.301
REMARK  14 active torsions:
REMARK  status: ('A' for Active; 'I' for Inactive)
REMARK    1  A    between atoms: C_2  and  O_3 
REMARK    2  A    between atoms: O_3  and  C_4 
REMARK    3  A    between atoms: C_5  and  O_6 
REMARK    4  A    between atoms: C_9  and  C_10 
REMARK    5  A    between atoms: N_11  and  C_12 
REMARK    6  A    between atoms: C_12  and  C_13 
REMARK    7  A    between atoms: C_13  and  C_14 
REMARK    8  A    between atoms: C_14  and  N_15 
REMARK    9  A    between atoms: C_21  and  O_22 
REMARK   10  A    between atoms: C_23  and  C_24 
REMARK   11  A    between atoms: C_24  and  C_25 
REMARK   12  A    between atoms: C_29  and  O_30 
REMARK   13  A    between atoms: O_30  and  C_31 
REMARK   14  A    between atoms: C_31  and  C_32 
ROOT
HETATM    1  C   UNL     1      40.656 -13.252   0.006  1.00  0.00     0.161 A 
HETATM    2  N   UNL     1      40.559 -12.525  -1.260  1.00  0.00    -0.333 N 
HETATM    3  C   UNL     1      39.850 -13.253  -2.197  1.00  0.00     0.278 A 
HETATM    4  O   UNL     1      39.589 -12.951  -3.347  1.00  0.00    -0.265 OA
HETATM    5  C   UNL     1      39.461 -14.535  -1.572  1.00  0.00     0.146 A 
HETATM    6  C   UNL     1      39.985 -14.541  -0.343  1.00  0.00     0.059 A 
ENDROOT
BRANCH   6   7
HETATM    7  C   UNL     1      40.000 -15.661   0.616  1.00  0.00     0.193 C 
HETATM    8  O   UNL     1      39.158 -16.548   0.517  1.00  0.00    -0.287 OA
BRANCH   7   9
HETATM    9  C   UNL     1      40.964 -15.669   1.754  1.00  0.00     0.015 A 
HETATM   10  C   UNL     1      40.448 -15.710   3.056  1.00  0.00     0.025 A 
HETATM   11  C   UNL     1      41.301 -15.664   4.173  1.00  0.00    -0.028 A 
HETATM   12  C   UNL     1      40.717 -15.694   5.559  1.00  0.00     0.051 C 
HETATM   13  C   UNL     1      42.691 -15.578   3.983  1.00  0.00     0.074 A 
HETATM   14  C   UNL     1      43.203 -15.519   2.685  1.00  0.00     0.038 A 
HETATM   15  C   UNL     1      42.346 -15.552   1.579  1.00  0.00     0.018 A 
BRANCH  13  16
HETATM   16  O   UNL     1      43.448 -15.541   5.124  1.00  0.00    -0.350 OA
BRANCH  16  17
HETATM   17  C   UNL     1      44.366 -16.612   5.347  1.00  0.00     0.179 C 
BRANCH  17  18
HETATM   18  C   UNL     1      43.639 -17.947   5.131  1.00  0.00     0.002 C 
HETATM   19  C   UNL     1      44.419 -18.862   4.184  1.00  0.00     0.011 C 
HETATM   20  C   UNL     1      43.404 -18.646   6.469  1.00  0.00     0.011 C 
ENDBRANCH  17  18
ENDBRANCH  16  17
ENDBRANCH  13  16
ENDBRANCH   7   9
ENDBRANCH   6   7
BRANCH   1  21
HETATM   21  C   UNL     1      40.001 -12.443   1.112  1.00  0.00    -0.028 A 
HETATM   22  C   UNL     1      38.643 -12.079   1.068  1.00  0.00     0.012 A 
HETATM   23  C   UNL     1      38.076 -11.310   2.088  1.00  0.00     0.040 A 
HETATM   24  C   UNL     1      38.854 -10.912   3.175  1.00  0.00     0.099 A 
HETATM   25  C   UNL     1      40.193 -11.301   3.262  1.00  0.00     0.102 A 
HETATM   26  C   UNL     1      40.762 -12.041   2.220  1.00  0.00     0.049 A 
BRANCH  24  27
HETATM   27  O   UNL     1      38.294 -10.119   4.137  1.00  0.00    -0.358 OA
HETATM   28  H   UNL     1      37.711 -10.653   4.699  1.00  0.00     0.218 HD
ENDBRANCH  24  27
BRANCH  25  29
HETATM   29  O   UNL     1      41.057 -10.998   4.281  1.00  0.00    -0.349 OA
BRANCH  29  30
HETATM   30  C   UNL     1      41.952 -12.053   4.649  1.00  0.00     0.171 C 
HETATM   31  C   UNL     1      43.344 -11.463   4.791  1.00  0.00     0.034 C 
ENDBRANCH  29  30
ENDBRANCH  25  29
ENDBRANCH   1  21
BRANCH   5  32
HETATM   32  O   UNL     1      38.786 -15.522  -2.221  1.00  0.00    -0.355 OA
HETATM   33  H   UNL     1      38.458 -16.138  -1.537  1.00  0.00     0.218 HD
ENDBRANCH   5  32
BRANCH   2  34
HETATM   34  C   UNL     1      41.529 -11.492  -1.594  1.00  0.00     0.129 C 
BRANCH  34  35
HETATM   35  C   UNL     1      40.978 -10.066  -1.607  1.00  0.00     0.048 C 
BRANCH  35  36
HETATM   36  C   UNL     1      42.080  -9.033  -1.405  1.00  0.00     0.235 C 
BRANCH  36  37
HETATM   37  N   UNL     1      41.843  -8.253  -0.124  1.00  0.00    -0.079 N 
HETATM   38  H   UNL     1      42.610  -8.471   0.526  1.00  0.00     0.278 HD
HETATM   39  C   UNL     1      41.859  -6.761  -0.343  1.00  0.00     0.269 C 
HETATM   40  C   UNL     1      40.573  -8.685   0.559  1.00  0.00     0.269 C 
ENDBRANCH  36  37
ENDBRANCH  35  36
ENDBRANCH  34  35
ENDBRANCH   2  34
TORSDOF 14
ENDMDL
MODEL 5
REMARK VINA RESULT:      -7.5      2.344      4.965
REMARK  14 active torsions:
REMARK  status: ('A' for Active; 'I' for Inactive)
REMARK    1  A    between atoms: C_2  and  O_3 
REMARK    2  A    between atoms: O_3  and  C_4 
REMARK    3  A    between atoms: C_5  and  O_6 
REMARK    4  A    between atoms: C_9  and  C_10 
REMARK    5  A    between atoms: N_11  and  C_12 
REMARK    6  A    between atoms: C_12  and  C_13 
REMARK    7  A    between atoms: C_13  and  C_14 
REMARK    8  A    between atoms: C_14  and  N_15 
REMARK    9  A    between atoms: C_21  and  O_22 
REMARK   10  A    between atoms: C_23  and  C_24 
REMARK   11  A    between atoms: C_24  and  C_25 
REMARK   12  A    between atoms: C_29  and  O_30 
REMARK   13  A    between atoms: O_30  and  C_31 
REMARK   14  A    between atoms: C_31  and  C_32 
ROOT
HETATM    1  C   UNL     1      40.314 -11.727   2.051  1.00  0.00     0.161 A 
HETATM    2  N   UNL     1      39.220 -10.775   2.240  1.00  0.00    -0.333 N 
HETATM    3  C   UNL     1      39.646  -9.663   2.941  1.00  0.00     0.278 A 
HETATM    4  O   UNL     1      38.998  -8.687   3.275  1.00  0.00    -0.265 OA
HETATM    5  C   UNL     1      41.074  -9.857   3.270  1.00  0.00     0.146 A 
HETATM    6  C   UNL     1      41.416 -11.064   2.813  1.00  0.00     0.059 A 
ENDROOT
BRANCH   6   7
HETATM    7  C   UNL     1      42.692 -11.773   3.027  1.00  0.00     0.193 C 
HETATM    8  O   UNL     1      43.734 -11.128   3.083  1.00  0.00    -0.287 OA
BRANCH   7   9
HETATM    9  C   UNL     1      42.730 -13.263   3.076  1.00  0.00     0.015 A 
HETATM   10  C   UNL     1      42.295 -13.896   4.247  1.00  0.00     0.025 A 
HETATM   11  C   UNL     1      42.357 -15.295   4.378  1.00  0.00    -0.028 A 
HETATM   12  C   UNL     1      41.896 -15.946   5.653  1.00  0.00     0.051 C 
HETATM   13  C   UNL     1      42.860 -16.070   3.319  1.00  0.00     0.074 A 
HETATM   14  C   UNL     1      43.311 -15.435   2.159  1.00  0.00     0.038 A 
HETATM   15  C   UNL     1      43.258 -14.042   2.042  1.00  0.00     0.018 A 
BRANCH  13  16
HETATM   16  O   UNL     1      42.884 -17.423   3.529  1.00  0.00    -0.350 OA
BRANCH  16  17
HETATM   17  C   UNL     1      42.910 -18.273   2.380  1.00  0.00     0.179 C 
BRANCH  17  18
HETATM   18  C   UNL     1      43.963 -19.370   2.593  1.00  0.00     0.002 C 
HETATM   19  C   UNL     1      44.098 -19.737   4.072  1.00  0.00     0.011 C 
HETATM   20  C   UNL     1      43.614 -20.608   1.768  1.00  0.00     0.011 C 
ENDBRANCH  17  18
ENDBRANCH  16  17
ENDBRANCH  13  16
ENDBRANCH   7   9
ENDBRANCH   6   7
BRANCH   1  21
HETATM   21  C   UNL     1      40.564 -11.931   0.567  1.00  0.00    -0.028 A 
HETATM   22  C   UNL     1      40.332 -13.164  -0.068  1.00  0.00     0.012 A 
HETATM   23  C   UNL     1      40.599 -13.329  -1.429  1.00  0.00     0.040 A 
HETATM   24  C   UNL     1      41.081 -12.257  -2.180  1.00  0.00     0.099 A 
HETATM   25  C   UNL     1      41.276 -11.010  -1.580  1.00  0.00     0.102 A 
HETATM   26  C   UNL     1      41.039 -10.862  -0.209  1.00  0.00     0.049 A 
BRANCH  24  27
HETATM   27  O   UNL     1      41.383 -12.452  -3.498  1.00  0.00    -0.358 OA
HETATM   28  H   UNL     1      40.569 -12.431  -4.024  1.00  0.00     0.218 HD
ENDBRANCH  24  27
BRANCH  25  29
HETATM   29  O   UNL     1      41.722  -9.875  -2.205  1.00  0.00    -0.349 OA
BRANCH  29  30
HETATM   30  C   UNL     1      41.818  -8.720  -1.364  1.00  0.00     0.171 C 
HETATM   31  C   UNL     1      43.120  -8.009  -1.686  1.00  0.00     0.034 C 
ENDBRANCH  29  30
ENDBRANCH  25  29
ENDBRANCH   1  21
BRANCH   5  32
HETATM   32  O   UNL     1      41.812  -8.974   3.997  1.00  0.00    -0.355 OA
HETATM   33  H   UNL     1      42.374  -9.502   4.597  1.00  0.00     0.218 HD
ENDBRANCH   5  32
BRANCH   2  34
HETATM   34  C   UNL     1      37.835 -11.221   2.182  1.00  0.00     0.129 C 
BRANCH  34  35
HETATM   35  C   UNL     1      37.184 -11.134   0.801  1.00  0.00     0.048 C 
BRANCH  35  36
HETATM   36  C   UNL     1      37.497  -9.812   0.111  1.00  0.00     0.235 C 
BRANCH  36  37
HETATM   37  N   UNL     1      37.282  -9.935  -1.387  1.00  0.00    -0.079 N 
HETATM   38  H   UNL     1      36.305  -9.683  -1.589  1.00  0.00     0.278 HD
HETATM   39  C   UNL     1      38.155  -8.993  -2.177  1.00  0.00     0.269 C 
HETATM   40  C   UNL     1      37.457 -11.355  -1.855  1.00  0.00     0.269 C 
ENDBRANCH  36  37
ENDBRANCH  35  36
ENDBRANCH  34  35
ENDBRANCH   2  34
TORSDOF 14
ENDMDL
MODEL 6
REMARK VINA RESULT:      -7.4      3.160      8.556
REMARK  14 active torsions:
REMARK  status: ('A' for Active; 'I' for Inactive)
REMARK    1  A    between atoms: C_2  and  O_3 
REMARK    2  A    between atoms: O_3  and  C_4 
REMARK    3  A    between atoms: C_5  and  O_6 
REMARK    4  A    between atoms: C_9  and  C_10 
REMARK    5  A    between atoms: N_11  and  C_12 
REMARK    6  A    between atoms: C_12  and  C_13 
REMARK    7  A    between atoms: C_13  and  C_14 
REMARK    8  A    between atoms: C_14  and  N_15 
REMARK    9  A    between atoms: C_21  and  O_22 
REMARK   10  A    between atoms: C_23  and  C_24 
REMARK   11  A    between atoms: C_24  and  C_25 
REMARK   12  A    between atoms: C_29  and  O_30 
REMARK   13  A    between atoms: O_30  and  C_31 
REMARK   14  A    between atoms: C_31  and  C_32 
ROOT
HETATM    1  C   UNL     1      42.332 -14.251   3.414  1.00  0.00     0.161 A 
HETATM    2  N   UNL     1      41.869 -15.527   3.959  1.00  0.00    -0.333 N 
HETATM    3  C   UNL     1      41.993 -15.552   5.336  1.00  0.00     0.278 A 
HETATM    4  O   UNL     1      41.708 -16.455   6.102  1.00  0.00    -0.265 OA
HETATM    5  C   UNL     1      42.580 -14.263   5.759  1.00  0.00     0.146 A 
HETATM    6  C   UNL     1      42.826 -13.566   4.647  1.00  0.00     0.059 A 
ENDROOT
BRANCH   6   7
HETATM    7  C   UNL     1      43.544 -12.282   4.539  1.00  0.00     0.193 C 
HETATM    8  O   UNL     1      43.897 -11.883   3.433  1.00  0.00    -0.287 OA
BRANCH   7   9
HETATM    9  C   UNL     1      43.925 -11.523   5.764  1.00  0.00     0.015 A 
HETATM   10  C   UNL     1      42.992 -10.628   6.303  1.00  0.00     0.025 A 
HETATM   11  C   UNL     1      43.309  -9.841   7.424  1.00  0.00    -0.028 A 
HETATM   12  C   UNL     1      42.292  -8.877   7.972  1.00  0.00     0.051 C 
HETATM   13  C   UNL     1      44.579  -9.955   8.016  1.00  0.00     0.074 A 
HETATM   14  C   UNL     1      45.514 -10.834   7.467  1.00  0.00     0.038 A 
HETATM   15  C   UNL     1      45.195 -11.604   6.343  1.00  0.00     0.018 A 
BRANCH  13  16
HETATM   16  O   UNL     1      44.804  -9.155   9.105  1.00  0.00    -0.350 OA
BRANCH  16  17
HETATM   17  C   UNL     1      45.019  -9.793  10.365  1.00  0.00     0.179 C 
BRANCH  17  18
HETATM   18  C   UNL     1      43.697  -9.820  11.145  1.00  0.00     0.002 C 
HETATM   19  C   UNL     1      43.575 -11.088  11.993  1.00  0.00     0.011 C 
HETATM   20  C   UNL     1      43.574  -8.579  12.025  1.00  0.00     0.011 C 
ENDBRANCH  17  18
ENDBRANCH  16  17
ENDBRANCH  13  16
ENDBRANCH   7   9
ENDBRANCH   6   7
BRANCH   1  21
HETATM   21  C   UNL     1      41.192 -13.562   2.686  1.00  0.00    -0.028 A 
HETATM   22  C   UNL     1      40.092 -13.012   3.368  1.00  0.00     0.012 A 
HETATM   23  C   UNL     1      39.044 -12.409   2.667  1.00  0.00     0.040 A 
HETATM   24  C   UNL     1      39.092 -12.329   1.275  1.00  0.00     0.099 A 
HETATM   25  C   UNL     1      40.196 -12.827   0.580  1.00  0.00     0.102 A 
HETATM   26  C   UNL     1      41.225 -13.460   1.286  1.00  0.00     0.049 A 
BRANCH  24  27
HETATM   27  O   UNL     1      38.035 -11.780   0.606  1.00  0.00    -0.358 OA
HETATM   28  H   UNL     1      37.426 -12.483   0.329  1.00  0.00     0.218 HD
ENDBRANCH  24  27
BRANCH  25  29
HETATM   29  O   UNL     1      40.377 -12.793  -0.778  1.00  0.00    -0.349 OA
BRANCH  29  30
HETATM   30  C   UNL     1      39.877 -13.934  -1.484  1.00  0.00     0.171 C 
HETATM   31  C   UNL     1      38.961 -13.440  -2.588  1.00  0.00     0.034 C 
ENDBRANCH  29  30
ENDBRANCH  25  29
ENDBRANCH   1  21
BRANCH   5  32
HETATM   32  O   UNL     1      42.883 -13.956   7.050  1.00  0.00    -0.355 OA
HETATM   33  H   UNL     1      43.039 -12.991   7.082  1.00  0.00     0.218 HD
ENDBRANCH   5  32
BRANCH   2  34
HETATM   34  C   UNL     1      41.834 -16.717   3.122  1.00  0.00     0.129 C 
BRANCH  34  35
HETATM   35  C   UNL     1      43.200 -17.224   2.658  1.00  0.00     0.048 C 
BRANCH  35  36
HETATM   36  C   UNL     1      43.192 -18.729   2.416  1.00  0.00     0.235 C 
BRANCH  36  37
HETATM   37  N   UNL     1      44.200 -19.414   3.322  1.00  0.00    -0.079 N 
HETATM   38  H   UNL     1      45.132 -19.299   2.903  1.00  0.00     0.278 HD
HETATM   39  C   UNL     1      44.254 -18.799   4.698  1.00  0.00     0.269 C 
HETATM   40  C   UNL     1      43.952 -20.897   3.402  1.00  0.00     0.269 C 
ENDBRANCH  36  37
ENDBRANCH  35  36
ENDBRANCH  34  35
ENDBRANCH   2  34
TORSDOF 14
ENDMDL
MODEL 7
REMARK VINA RESULT:      -7.4      4.056      8.221
REMARK  14 active torsions:
REMARK  status: ('A' for Active; 'I' for Inactive)
REMARK    1  A    between atoms: C_2  and  O_3 
REMARK    2  A    between atoms: O_3  and  C_4 
REMARK    3  A    between atoms: C_5  and  O_6 
REMARK    4  A    between atoms: C_9  and  C_10 
REMARK    5  A    between atoms: N_11  and  C_12 
REMARK    6  A    between atoms: C_12  and  C_13 
REMARK    7  A    between atoms: C_13  and  C_14 
REMARK    8  A    between atoms: C_14  and  N_15 
REMARK    9  A    between atoms: C_21  and  O_22 
REMARK   10  A    between atoms: C_23  and  C_24 
REMARK   11  A    between atoms: C_24  and  C_25 
REMARK   12  A    between atoms: C_29  and  O_30 
REMARK   13  A    between atoms: O_30  and  C_31 
REMARK   14  A    between atoms: C_31  and  C_32 
ROOT
HETATM    1  C   UNL     1      41.084 -13.437   5.419  1.00  0.00     0.161 A 
HETATM    2  N   UNL     1      41.206 -14.812   4.936  1.00  0.00    -0.333 N 
HETATM    3  C   UNL     1      40.424 -15.015   3.815  1.00  0.00     0.278 A 
HETATM    4  O   UNL     1      40.286 -16.036   3.165  1.00  0.00    -0.265 OA
HETATM    5  C   UNL     1      39.718 -13.749   3.522  1.00  0.00     0.146 A 
HETATM    6  C   UNL     1      40.056 -12.886   4.484  1.00  0.00     0.059 A 
ENDROOT
BRANCH   6   7
HETATM    7  C   UNL     1      39.498 -11.541   4.714  1.00  0.00     0.193 C 
HETATM    8  O   UNL     1      38.751 -11.049   3.874  1.00  0.00    -0.287 OA
BRANCH   7   9
HETATM    9  C   UNL     1      39.911 -10.744   5.904  1.00  0.00     0.015 A 
HETATM   10  C   UNL     1      39.205 -10.928   7.100  1.00  0.00     0.025 A 
HETATM   11  C   UNL     1      39.509 -10.168   8.243  1.00  0.00    -0.028 A 
HETATM   12  C   UNL     1      38.724 -10.378   9.509  1.00  0.00     0.051 C 
HETATM   13  C   UNL     1      40.537  -9.212   8.189  1.00  0.00     0.074 A 
HETATM   14  C   UNL     1      41.228  -9.016   6.990  1.00  0.00     0.038 A 
HETATM   15  C   UNL     1      40.910  -9.767   5.854  1.00  0.00     0.018 A 
BRANCH  13  16
HETATM   16  O   UNL     1      40.769  -8.518   9.346  1.00  0.00    -0.350 OA
BRANCH  16  17
HETATM   17  C   UNL     1      41.685  -9.082  10.287  1.00  0.00     0.179 C 
BRANCH  17  18
HETATM   18  C   UNL     1      42.520  -7.955  10.911  1.00  0.00     0.002 C 
HETATM   19  C   UNL     1      43.609  -8.510  11.832  1.00  0.00     0.011 C 
HETATM   20  C   UNL     1      43.140  -7.086   9.819  1.00  0.00     0.011 C 
ENDBRANCH  17  18
ENDBRANCH  16  17
ENDBRANCH  13  16
ENDBRANCH   7   9
ENDBRANCH   6   7
BRANCH   1  21
HETATM   21  C   UNL     1      42.442 -12.759   5.385  1.00  0.00    -0.028 A 
HETATM   22  C   UNL     1      43.042 -12.348   4.181  1.00  0.00     0.012 A 
HETATM   23  C   UNL     1      44.305 -11.752   4.179  1.00  0.00     0.040 A 
HETATM   24  C   UNL     1      44.978 -11.540   5.383  1.00  0.00     0.099 A 
HETATM   25  C   UNL     1      44.382 -11.899   6.594  1.00  0.00     0.102 A 
HETATM   26  C   UNL     1      43.131 -12.527   6.585  1.00  0.00     0.049 A 
BRANCH  24  27
HETATM   27  O   UNL     1      46.233 -11.002   5.355  1.00  0.00    -0.358 OA
HETATM   28  H   UNL     1      46.336 -10.458   4.558  1.00  0.00     0.218 HD
ENDBRANCH  24  27
BRANCH  25  29
HETATM   29  O   UNL     1      44.922 -11.728   7.841  1.00  0.00    -0.349 OA
BRANCH  29  30
HETATM   30  C   UNL     1      44.499 -10.544   8.526  1.00  0.00     0.171 C 
HETATM   31  C   UNL     1      45.693  -9.613   8.640  1.00  0.00     0.034 C 
ENDBRANCH  29  30
ENDBRANCH  25  29
ENDBRANCH   1  21
BRANCH   5  32
HETATM   32  O   UNL     1      38.825 -13.596   2.507  1.00  0.00    -0.355 OA
HETATM   33  H   UNL     1      38.268 -12.825   2.734  1.00  0.00     0.218 HD
ENDBRANCH   5  32
BRANCH   2  34
HETATM   34  C   UNL     1      41.635 -15.875   5.834  1.00  0.00     0.129 C 
BRANCH  34  35
HETATM   35  C   UNL     1      43.065 -16.369   5.616  1.00  0.00     0.048 C 
BRANCH  35  36
HETATM   36  C   UNL     1      43.232 -17.822   6.046  1.00  0.00     0.235 C 
BRANCH  36  37
HETATM   37  N   UNL     1      44.107 -18.568   5.055  1.00  0.00    -0.079 N 
HETATM   38  H   UNL     1      45.084 -18.289   5.222  1.00  0.00     0.278 HD
HETATM   39  C   UNL     1      44.039 -20.064   5.234  1.00  0.00     0.269 C 
HETATM   40  C   UNL     1      43.792 -18.178   3.636  1.00  0.00     0.269 C 
ENDBRANCH  36  37
ENDBRANCH  35  36
ENDBRANCH  34  35
ENDBRANCH   2  34
TORSDOF 14
ENDMDL
MODEL 8
REMARK VINA RESULT:      -7.3      1.549      2.415
REMARK  14 active torsions:
REMARK  status: ('A' for Active; 'I' for Inactive)
REMARK    1  A    between atoms: C_2  and  O_3 
REMARK    2  A    between atoms: O_3  and  C_4 
REMARK    3  A    between atoms: C_5  and  O_6 
REMARK    4  A    between atoms: C_9  and  C_10 
REMARK    5  A    between atoms: N_11  and  C_12 
REMARK    6  A    between atoms: C_12  and  C_13 
REMARK    7  A    between atoms: C_13  and  C_14 
REMARK    8  A    between atoms: C_14  and  N_15 
REMARK    9  A    between atoms: C_21  and  O_22 
REMARK   10  A    between atoms: C_23  and  C_24 
REMARK   11  A    between atoms: C_24  and  C_25 
REMARK   12  A    between atoms: C_29  and  O_30 
REMARK   13  A    between atoms: O_30  and  C_31 
REMARK   14  A    between atoms: C_31  and  C_32 
ROOT
HETATM    1  C   UNL     1      40.806 -12.250   0.993  1.00  0.00     0.161 A 
HETATM    2  N   UNL     1      40.324 -10.923   0.612  1.00  0.00    -0.333 N 
HETATM    3  C   UNL     1      39.187 -11.014  -0.169  1.00  0.00     0.278 A 
HETATM    4  O   UNL     1      38.534 -10.109  -0.659  1.00  0.00    -0.265 OA
HETATM    5  C   UNL     1      38.883 -12.448  -0.358  1.00  0.00     0.146 A 
HETATM    6  C   UNL     1      39.852 -13.133   0.255  1.00  0.00     0.059 A 
ENDROOT
BRANCH   6   7
HETATM    7  C   UNL     1      40.073 -14.591   0.223  1.00  0.00     0.193 C 
HETATM    8  O   UNL     1      39.471 -15.271  -0.602  1.00  0.00    -0.287 OA
BRANCH   7   9
HETATM    9  C   UNL     1      40.940 -15.246   1.244  1.00  0.00     0.015 A 
HETATM   10  C   UNL     1      40.367 -15.589   2.475  1.00  0.00     0.025 A 
HETATM   11  C   UNL     1      41.143 -16.158   3.500  1.00  0.00    -0.028 A 
HETATM   12  C   UNL     1      40.503 -16.502   4.818  1.00  0.00     0.051 C 
HETATM   13  C   UNL     1      42.513 -16.391   3.287  1.00  0.00     0.074 A 
HETATM   14  C   UNL     1      43.087 -16.033   2.065  1.00  0.00     0.038 A 
HETATM   15  C   UNL     1      42.310 -15.453   1.055  1.00  0.00     0.018 A 
BRANCH  13  16
HETATM   16  O   UNL     1      43.193 -16.951   4.335  1.00  0.00    -0.350 OA
BRANCH  16  17
HETATM   17  C   UNL     1      43.957 -18.131   4.077  1.00  0.00     0.179 C 
BRANCH  17  18
HETATM   18  C   UNL     1      44.177 -18.884   5.397  1.00  0.00     0.002 C 
HETATM   19  C   UNL     1      43.286 -18.332   6.511  1.00  0.00     0.011 C 
HETATM   20  C   UNL     1      43.923 -20.378   5.205  1.00  0.00     0.011 C 
ENDBRANCH  17  18
ENDBRANCH  16  17
ENDBRANCH  13  16
ENDBRANCH   7   9
ENDBRANCH   6   7
BRANCH   1  21
HETATM   21  C   UNL     1      40.798 -12.384   2.505  1.00  0.00    -0.028 A 
HETATM   22  C   UNL     1      39.604 -12.417   3.247  1.00  0.00     0.012 A 
HETATM   23  C   UNL     1      39.630 -12.512   4.640  1.00  0.00     0.040 A 
HETATM   24  C   UNL     1      40.850 -12.598   5.310  1.00  0.00     0.099 A 
HETATM   25  C   UNL     1      42.048 -12.613   4.591  1.00  0.00     0.102 A 
HETATM   26  C   UNL     1      42.015 -12.482   3.198  1.00  0.00     0.049 A 
BRANCH  24  27
HETATM   27  O   UNL     1      40.856 -12.640   6.676  1.00  0.00    -0.358 OA
HETATM   28  H   UNL     1      41.213 -11.809   7.025  1.00  0.00     0.218 HD
ENDBRANCH  24  27
BRANCH  25  29
HETATM   29  O   UNL     1      43.307 -12.714   5.122  1.00  0.00    -0.349 OA
BRANCH  29  30
HETATM   30  C   UNL     1      44.128 -11.553   4.955  1.00  0.00     0.171 C 
HETATM   31  C   UNL     1      44.978 -11.394   6.202  1.00  0.00     0.034 C 
ENDBRANCH  29  30
ENDBRANCH  25  29
ENDBRANCH   1  21
BRANCH   5  32
HETATM   32  O   UNL     1      37.851 -12.911  -1.114  1.00  0.00    -0.355 OA
HETATM   33  H   UNL     1      37.681 -13.830  -0.828  1.00  0.00     0.218 HD
ENDBRANCH   5  32
BRANCH   2  34
HETATM   34  C   UNL     1      41.229  -9.782   0.606  1.00  0.00     0.129 C 
BRANCH  34  35
HETATM   35  C   UNL     1      40.716  -8.545   1.345  1.00  0.00     0.048 C 
BRANCH  35  36
HETATM   36  C   UNL     1      40.395  -8.850   2.803  1.00  0.00     0.235 C 
BRANCH  36  37
HETATM   37  N   UNL     1      39.409  -7.834   3.350  1.00  0.00    -0.079 N 
HETATM   38  H   UNL     1      38.893  -7.433   2.555  1.00  0.00     0.278 HD
HETATM   39  C   UNL     1      38.390  -8.453   4.272  1.00  0.00     0.269 C 
HETATM   40  C   UNL     1      40.115  -6.684   4.018  1.00  0.00     0.269 C 
ENDBRANCH  36  37
ENDBRANCH  35  36
ENDBRANCH  34  35
ENDBRANCH   2  34
TORSDOF 14
ENDMDL
MODEL 9
REMARK VINA RESULT:      -7.3      4.223      8.777
REMARK  14 active torsions:
REMARK  status: ('A' for Active; 'I' for Inactive)
REMARK    1  A    between atoms: C_2  and  O_3 
REMARK    2  A    between atoms: O_3  and  C_4 
REMARK    3  A    between atoms: C_5  and  O_6 
REMARK    4  A    between atoms: C_9  and  C_10 
REMARK    5  A    between atoms: N_11  and  C_12 
REMARK    6  A    between atoms: C_12  and  C_13 
REMARK    7  A    between atoms: C_13  and  C_14 
REMARK    8  A    between atoms: C_14  and  N_15 
REMARK    9  A    between atoms: C_21  and  O_22 
REMARK   10  A    between atoms: C_23  and  C_24 
REMARK   11  A    between atoms: C_24  and  C_25 
REMARK   12  A    between atoms: C_29  and  O_30 
REMARK   13  A    between atoms: O_30  and  C_31 
REMARK   14  A    between atoms: C_31  and  C_32 
ROOT
HETATM    1  C   UNL     1      41.694 -12.999   4.895  1.00  0.00     0.161 A 
HETATM    2  N   UNL     1      41.195 -14.345   5.173  1.00  0.00    -0.333 N 
HETATM    3  C   UNL     1      41.817 -14.884   6.284  1.00  0.00     0.278 A 
HETATM    4  O   UNL     1      41.646 -15.980   6.788  1.00  0.00    -0.265 OA
HETATM    5  C   UNL     1      42.795 -13.892   6.779  1.00  0.00     0.146 A 
HETATM    6  C   UNL     1      42.756 -12.856   5.937  1.00  0.00     0.059 A 
ENDROOT
BRANCH   6   7
HETATM    7  C   UNL     1      43.650 -11.683   5.921  1.00  0.00     0.193 C 
HETATM    8  O   UNL     1      44.491 -11.581   5.034  1.00  0.00    -0.287 OA
BRANCH   7   9
HETATM    9  C   UNL     1      43.601 -10.680   7.024  1.00  0.00     0.015 A 
HETATM   10  C   UNL     1      44.540 -10.788   8.057  1.00  0.00     0.025 A 
HETATM   11  C   UNL     1      44.513  -9.909   9.154  1.00  0.00    -0.028 A 
HETATM   12  C   UNL     1      45.526 -10.059  10.256  1.00  0.00     0.051 C 
HETATM   13  C   UNL     1      43.532  -8.905   9.215  1.00  0.00     0.074 A 
HETATM   14  C   UNL     1      42.584  -8.810   8.193  1.00  0.00     0.038 A 
HETATM   15  C   UNL     1      42.610  -9.697   7.112  1.00  0.00     0.018 A 
BRANCH  13  16
HETATM   16  O   UNL     1      43.579  -8.091  10.315  1.00  0.00    -0.350 OA
BRANCH  16  17
HETATM   17  C   UNL     1      42.479  -8.140  11.225  1.00  0.00     0.179 C 
BRANCH  17  18
HETATM   18  C   UNL     1      42.977  -8.645  12.587  1.00  0.00     0.002 C 
HETATM   19  C   UNL     1      43.214  -7.488  13.560  1.00  0.00     0.011 C 
HETATM   20  C   UNL     1      41.984  -9.643  13.179  1.00  0.00     0.011 C 
ENDBRANCH  17  18
ENDBRANCH  16  17
ENDBRANCH  13  16
ENDBRANCH   7   9
ENDBRANCH   6   7
BRANCH   1  21
HETATM   21  C   UNL     1      40.551 -12.003   4.973  1.00  0.00    -0.028 A 
HETATM   22  C   UNL     1      40.059 -11.337   3.836  1.00  0.00     0.012 A 
HETATM   23  C   UNL     1      39.025 -10.405   3.944  1.00  0.00     0.040 A 
HETATM   24  C   UNL     1      38.453 -10.140   5.189  1.00  0.00     0.099 A 
HETATM   25  C   UNL     1      38.894 -10.822   6.325  1.00  0.00     0.102 A 
HETATM   26  C   UNL     1      39.954 -11.729   6.214  1.00  0.00     0.049 A 
BRANCH  24  27
HETATM   27  O   UNL     1      37.477  -9.188   5.281  1.00  0.00    -0.358 OA
HETATM   28  H   UNL     1      36.623  -9.572   5.027  1.00  0.00     0.218 HD
ENDBRANCH  24  27
BRANCH  25  29
HETATM   29  O   UNL     1      38.407 -10.672   7.597  1.00  0.00    -0.349 OA
BRANCH  29  30
HETATM   30  C   UNL     1      39.198  -9.843   8.454  1.00  0.00     0.171 C 
HETATM   31  C   UNL     1      38.896 -10.227   9.891  1.00  0.00     0.034 C 
ENDBRANCH  29  30
ENDBRANCH  25  29
ENDBRANCH   1  21
BRANCH   5  32
HETATM   32  O   UNL     1      43.621 -14.105   7.839  1.00  0.00    -0.355 OA
HETATM   33  H   UNL     1      44.314 -13.416   7.801  1.00  0.00     0.218 HD
ENDBRANCH   5  32
BRANCH   2  34
HETATM   34  C   UNL     1      40.580 -15.138   4.119  1.00  0.00     0.129 C 
BRANCH  34  35
HETATM   35  C   UNL     1      41.296 -16.450   3.794  1.00  0.00     0.048 C 
BRANCH  35  36
HETATM   36  C   UNL     1      42.436 -16.241   2.805  1.00  0.00     0.235 C 
BRANCH  36  37
HETATM   37  N   UNL     1      43.504 -17.303   3.000  1.00  0.00    -0.079 N 
HETATM   38  H   UNL     1      44.367 -16.972   2.547  1.00  0.00     0.278 HD
HETATM   39  C   UNL     1      43.830 -17.536   4.454  1.00  0.00     0.269 C 
HETATM   40  C   UNL     1      43.135 -18.591   2.315  1.00  0.00     0.269 C 
ENDBRANCH  36  37
ENDBRANCH  35  36
ENDBRANCH  34  35
ENDBRANCH   2  34
TORSDOF 14
ENDMDL
MODEL 10
REMARK VINA RESULT:      -7.3      1.418      2.613
REMARK  14 active torsions:
REMARK  status: ('A' for Active; 'I' for Inactive)
REMARK    1  A    between atoms: C_2  and  O_3 
REMARK    2  A    between atoms: O_3  and  C_4 
REMARK    3  A    between atoms: C_5  and  O_6 
REMARK    4  A    between atoms: C_9  and  C_10 
REMARK    5  A    between atoms: N_11  and  C_12 
REMARK    6  A    between atoms: C_12  and  C_13 
REMARK    7  A    between atoms: C_13  and  C_14 
REMARK    8  A    between atoms: C_14  and  N_15 
REMARK    9  A    between atoms: C_21  and  O_22 
REMARK   10  A    between atoms: C_23  and  C_24 
REMARK   11  A    between atoms: C_24  and  C_25 
REMARK   12  A    between atoms: C_29  and  O_30 
REMARK   13  A    between atoms: O_30  and  C_31 
REMARK   14  A    between atoms: C_31  and  C_32 
ROOT
HETATM    1  C   UNL     1      40.986 -12.038   0.743  1.00  0.00     0.161 A 
HETATM    2  N   UNL     1      40.518 -10.704   0.367  1.00  0.00    -0.333 N 
HETATM    3  C   UNL     1      39.270 -10.766  -0.224  1.00  0.00     0.278 A 
HETATM    4  O   UNL     1      38.595  -9.849  -0.658  1.00  0.00    -0.265 OA
HETATM    5  C   UNL     1      38.867 -12.186  -0.282  1.00  0.00     0.146 A 
HETATM    6  C   UNL     1      39.884 -12.898   0.211  1.00  0.00     0.059 A 
ENDROOT
BRANCH   6   7
HETATM    7  C   UNL     1      40.023 -14.366   0.229  1.00  0.00     0.193 C 
HETATM    8  O   UNL     1      39.605 -15.019  -0.722  1.00  0.00    -0.287 OA
BRANCH   7   9
HETATM    9  C   UNL     1      40.573 -15.059   1.429  1.00  0.00     0.015 A 
HETATM   10  C   UNL     1      41.849 -15.631   1.334  1.00  0.00     0.025 A 
HETATM   11  C   UNL     1      42.402 -16.346   2.411  1.00  0.00    -0.028 A 
HETATM   12  C   UNL     1      43.768 -16.962   2.275  1.00  0.00     0.051 C 
HETATM   13  C   UNL     1      41.668 -16.487   3.601  1.00  0.00     0.074 A 
HETATM   14  C   UNL     1      40.389 -15.932   3.688  1.00  0.00     0.038 A 
HETATM   15  C   UNL     1      39.840 -15.234   2.607  1.00  0.00     0.018 A 
BRANCH  13  16
HETATM   16  O   UNL     1      42.281 -17.196   4.600  1.00  0.00    -0.350 OA
BRANCH  16  17
HETATM   17  C   UNL     1      42.059 -16.774   5.946  1.00  0.00     0.179 C 
BRANCH  17  18
HETATM   18  C   UNL     1      43.169 -15.796   6.355  1.00  0.00     0.002 C 
HETATM   19  C   UNL     1      43.017 -15.353   7.812  1.00  0.00     0.011 C 
HETATM   20  C   UNL     1      44.542 -16.427   6.133  1.00  0.00     0.011 C 
ENDBRANCH  17  18
ENDBRANCH  16  17
ENDBRANCH  13  16
ENDBRANCH   7   9
ENDBRANCH   6   7
BRANCH   1  21
HETATM   21  C   UNL     1      41.208 -12.099   2.243  1.00  0.00    -0.028 A 
HETATM   22  C   UNL     1      42.449 -12.453   2.802  1.00  0.00     0.012 A 
HETATM   23  C   UNL     1      42.615 -12.528   4.187  1.00  0.00     0.040 A 
HETATM   24  C   UNL     1      41.548 -12.228   5.034  1.00  0.00     0.099 A 
HETATM   25  C   UNL     1      40.319 -11.830   4.502  1.00  0.00     0.102 A 
HETATM   26  C   UNL     1      40.151 -11.791   3.114  1.00  0.00     0.049 A 
BRANCH  24  27
HETATM   27  O   UNL     1      41.716 -12.356   6.383  1.00  0.00    -0.358 OA
HETATM   28  H   UNL     1      42.198 -11.586   6.725  1.00  0.00     0.218 HD
ENDBRANCH  24  27
BRANCH  25  29
HETATM   29  O   UNL     1      39.202 -11.489   5.219  1.00  0.00    -0.349 OA
BRANCH  29  30
HETATM   30  C   UNL     1      38.722 -10.159   4.994  1.00  0.00     0.171 C 
HETATM   31  C   UNL     1      39.512  -9.216   5.885  1.00  0.00     0.034 C 
ENDBRANCH  29  30
ENDBRANCH  25  29
ENDBRANCH   1  21
BRANCH   5  32
HETATM   32  O   UNL     1      37.707 -12.624  -0.844  1.00  0.00    -0.355 OA
HETATM   33  H   UNL     1      37.950 -13.096  -1.664  1.00  0.00     0.218 HD
ENDBRANCH   5  32
BRANCH   2  34
HETATM   34  C   UNL     1      41.467  -9.621   0.157  1.00  0.00     0.129 C 
BRANCH  34  35
HETATM   35  C   UNL     1      42.124  -9.594  -1.224  1.00  0.00     0.048 C 
BRANCH  35  36
HETATM   36  C   UNL     1      42.687  -8.217  -1.555  1.00  0.00     0.235 C 
BRANCH  36  37
HETATM   37  N   UNL     1      42.018  -7.658  -2.798  1.00  0.00    -0.079 N 
HETATM   38  H   UNL     1      41.790  -8.448  -3.417  1.00  0.00     0.278 HD
HETATM   39  C   UNL     1      40.722  -6.951  -2.490  1.00  0.00     0.269 C 
HETATM   40  C   UNL     1      42.950  -6.767  -3.574  1.00  0.00     0.269 C 
ENDBRANCH  36  37
ENDBRANCH  35  36
ENDBRANCH  34  35
ENDBRANCH   2  34
TORSDOF 14
ENDMDL
