MODEL 1
REMARK VINA RESULT:      -8.3      0.000      0.000
REMARK  5 active torsions:
REMARK  status: ('A' for Active; 'I' for Inactive)
REMARK    1  A    between atoms: C_6  and  N_7 
REMARK       I    between atoms: N_7  and  C_8 
REMARK    2  A    between atoms: C_8  and  C_9 
REMARK    3  A    between atoms: C_9  and  N_10 
REMARK    4  A    between atoms: C_12  and  C_13 
REMARK    5  A    between atoms: C_14  and  O_15 
ROOT
HETATM    1  N   UNL     1      42.255 -15.125   4.515  1.00  0.00    -0.325 N 
HETATM    2  C   UNL     1      41.349 -14.941   5.540  1.00  0.00     0.239 C 
HETATM    3  O   UNL     1      40.899 -15.789   6.305  1.00  0.00    -0.271 OA
HETATM    4  H   UNL     1      42.811 -14.317   4.261  1.00  0.00     0.169 HD
ENDROOT
BRANCH   2   5
HETATM    5  C   UNL     1      40.929 -13.490   5.704  1.00  0.00     0.222 C 
BRANCH   5   6
HETATM    6  N   UNL     1      42.008 -12.803   6.443  1.00  0.00    -0.389 N 
HETATM    7  H   UNL     1      42.071 -13.042   7.450  1.00  0.00     0.159 HD
HETATM    8  C   UNL     1      42.818 -11.912   5.994  1.00  0.00     0.097 C 
BRANCH   8   9
HETATM    9  C   UNL     1      43.851 -11.261   6.819  1.00  0.00     0.012 A 
HETATM   10  C   UNL     1      43.546 -10.463   7.931  1.00  0.00     0.077 A 
HETATM   11  C   UNL     1      44.564  -9.879   8.682  1.00  0.00     0.037 A 
HETATM   12  C   UNL     1      45.895 -10.089   8.318  1.00  0.00     0.003 A 
HETATM   13  C   UNL     1      46.206 -10.881   7.211  1.00  0.00     0.001 A 
HETATM   14  C   UNL     1      45.187 -11.469   6.460  1.00  0.00     0.016 A 
BRANCH  10  15
HETATM   15  O   UNL     1      42.236 -10.262   8.279  1.00  0.00    -0.360 OA
HETATM   16  H   UNL     1      41.905 -11.075   8.715  1.00  0.00     0.217 HD
ENDBRANCH  10  15
ENDBRANCH   8   9
ENDBRANCH   5   6
ENDBRANCH   2   5
BRANCH   1  17
HETATM   17  C   UNL     1      42.735 -16.351   3.982  1.00  0.00     0.046 A 
HETATM   18  C   UNL     1      43.744 -17.136   4.580  1.00  0.00    -0.034 A 
HETATM   19  C   UNL     1      44.130 -18.347   3.963  1.00  0.00     0.015 A 
HETATM   20  C   UNL     1      44.434 -16.823   5.880  1.00  0.00     0.050 C 
HETATM   21  C   UNL     1      43.506 -18.817   2.808  1.00  0.00    -0.061 A 
HETATM   22  C   UNL     1      43.888 -20.136   2.201  1.00  0.00     0.048 C 
HETATM   23  C   UNL     1      42.474 -18.064   2.254  1.00  0.00     0.015 A 
HETATM   24  C   UNL     1      42.083 -16.838   2.818  1.00  0.00    -0.034 A 
HETATM   25  C   UNL     1      40.975 -16.084   2.125  1.00  0.00     0.050 C 
ENDBRANCH   1  17
TORSDOF 5
ENDMDL
MODEL 2
REMARK VINA RESULT:      -8.0      0.412      1.906
REMARK  5 active torsions:
REMARK  status: ('A' for Active; 'I' for Inactive)
REMARK    1  A    between atoms: C_6  and  N_7 
REMARK       I    between atoms: N_7  and  C_8 
REMARK    2  A    between atoms: C_8  and  C_9 
REMARK    3  A    between atoms: C_9  and  N_10 
REMARK    4  A    between atoms: C_12  and  C_13 
REMARK    5  A    between atoms: C_14  and  O_15 
ROOT
HETATM    1  N   UNL     1      41.935 -14.781   4.549  1.00  0.00    -0.325 N 
HETATM    2  C   UNL     1      40.949 -14.563   5.490  1.00  0.00     0.239 C 
HETATM    3  O   UNL     1      40.342 -15.402   6.149  1.00  0.00    -0.271 OA
HETATM    4  H   UNL     1      42.590 -14.021   4.405  1.00  0.00     0.169 HD
ENDROOT
BRANCH   2   5
HETATM    5  C   UNL     1      40.657 -13.088   5.709  1.00  0.00     0.222 C 
BRANCH   5   6
HETATM    6  N   UNL     1      41.802 -12.520   6.451  1.00  0.00    -0.389 N 
HETATM    7  H   UNL     1      41.879 -12.827   7.438  1.00  0.00     0.159 HD
HETATM    8  C   UNL     1      42.655 -11.657   6.030  1.00  0.00     0.097 C 
BRANCH   8   9
HETATM    9  C   UNL     1      43.754 -11.128   6.857  1.00  0.00     0.012 A 
HETATM   10  C   UNL     1      43.537 -10.402   8.036  1.00  0.00     0.077 A 
HETATM   11  C   UNL     1      44.614  -9.933   8.786  1.00  0.00     0.037 A 
HETATM   12  C   UNL     1      45.916 -10.187   8.352  1.00  0.00     0.003 A 
HETATM   13  C   UNL     1      46.140 -10.907   7.177  1.00  0.00     0.001 A 
HETATM   14  C   UNL     1      45.061 -11.380   6.427  1.00  0.00     0.016 A 
BRANCH  10  15
HETATM   15  O   UNL     1      42.254 -10.157   8.453  1.00  0.00    -0.360 OA
HETATM   16  H   UNL     1      42.106 -10.642   9.292  1.00  0.00     0.217 HD
ENDBRANCH  10  15
ENDBRANCH   8   9
ENDBRANCH   5   6
ENDBRANCH   2   5
BRANCH   1  17
HETATM   17  C   UNL     1      42.347 -16.018   3.984  1.00  0.00     0.046 A 
HETATM   18  C   UNL     1      41.828 -16.557   2.788  1.00  0.00    -0.034 A 
HETATM   19  C   UNL     1      42.327 -17.791   2.315  1.00  0.00     0.015 A 
HETATM   20  C   UNL     1      40.796 -15.897   1.912  1.00  0.00     0.050 C 
HETATM   21  C   UNL     1      43.356 -18.468   2.969  1.00  0.00    -0.061 A 
HETATM   22  C   UNL     1      43.915 -19.748   2.418  1.00  0.00     0.048 C 
HETATM   23  C   UNL     1      43.901 -17.904   4.118  1.00  0.00     0.015 A 
HETATM   24  C   UNL     1      43.410 -16.694   4.639  1.00  0.00    -0.034 A 
HETATM   25  C   UNL     1      44.049 -16.180   5.906  1.00  0.00     0.050 C 
ENDBRANCH   1  17
TORSDOF 5
ENDMDL
MODEL 3
REMARK VINA RESULT:      -7.7      3.286      5.041
REMARK  5 active torsions:
REMARK  status: ('A' for Active; 'I' for Inactive)
REMARK    1  A    between atoms: C_6  and  N_7 
REMARK       I    between atoms: N_7  and  C_8 
REMARK    2  A    between atoms: C_8  and  C_9 
REMARK    3  A    between atoms: C_9  and  N_10 
REMARK    4  A    between atoms: C_12  and  C_13 
REMARK    5  A    between atoms: C_14  and  O_15 
ROOT
HETATM    1  N   UNL     1      43.183 -14.983   4.149  1.00  0.00    -0.325 N 
HETATM    2  C   UNL     1      42.077 -14.406   4.741  1.00  0.00     0.239 C 
HETATM    3  O   UNL     1      41.123 -14.975   5.263  1.00  0.00    -0.271 OA
HETATM    4  H   UNL     1      44.027 -14.422   4.140  1.00  0.00     0.169 HD
ENDROOT
BRANCH   2   5
HETATM    5  C   UNL     1      42.133 -12.887   4.743  1.00  0.00     0.222 C 
BRANCH   5   6
HETATM    6  N   UNL     1      42.060 -12.445   3.335  1.00  0.00    -0.389 N 
HETATM    7  H   UNL     1      42.908 -11.963   2.983  1.00  0.00     0.159 HD
HETATM    8  C   UNL     1      41.056 -12.535   2.538  1.00  0.00     0.097 C 
BRANCH   8   9
HETATM    9  C   UNL     1      41.071 -12.039   1.150  1.00  0.00     0.012 A 
HETATM   10  C   UNL     1      41.568 -10.777   0.799  1.00  0.00     0.077 A 
HETATM   11  C   UNL     1      41.566 -10.362  -0.531  1.00  0.00     0.037 A 
HETATM   12  C   UNL     1      41.060 -11.212  -1.516  1.00  0.00     0.003 A 
HETATM   13  C   UNL     1      40.561 -12.469  -1.173  1.00  0.00     0.001 A 
HETATM   14  C   UNL     1      40.566 -12.887   0.159  1.00  0.00     0.016 A 
BRANCH  10  15
HETATM   15  O   UNL     1      42.061  -9.949   1.775  1.00  0.00    -0.360 OA
HETATM   16  H   UNL     1      42.582  -9.241   1.341  1.00  0.00     0.217 HD
ENDBRANCH  10  15
ENDBRANCH   8   9
ENDBRANCH   5   6
ENDBRANCH   2   5
BRANCH   1  17
HETATM   17  C   UNL     1      43.391 -16.352   3.834  1.00  0.00     0.046 A 
HETATM   18  C   UNL     1      43.841 -17.321   4.757  1.00  0.00    -0.034 A 
HETATM   19  C   UNL     1      43.997 -18.658   4.331  1.00  0.00     0.015 A 
HETATM   20  C   UNL     1      44.130 -17.066   6.212  1.00  0.00     0.050 C 
HETATM   21  C   UNL     1      43.669 -19.062   3.037  1.00  0.00    -0.061 A 
HETATM   22  C   UNL     1      43.785 -20.499   2.620  1.00  0.00     0.048 C 
HETATM   23  C   UNL     1      43.175 -18.112   2.147  1.00  0.00     0.015 A 
HETATM   24  C   UNL     1      43.035 -16.765   2.523  1.00  0.00    -0.034 A 
HETATM   25  C   UNL     1      42.518 -15.809   1.476  1.00  0.00     0.050 C 
ENDBRANCH   1  17
TORSDOF 5
ENDMDL
MODEL 4
REMARK VINA RESULT:      -7.5      3.554      6.539
REMARK  5 active torsions:
REMARK  status: ('A' for Active; 'I' for Inactive)
REMARK    1  A    between atoms: C_6  and  N_7 
REMARK       I    between atoms: N_7  and  C_8 
REMARK    2  A    between atoms: C_8  and  C_9 
REMARK    3  A    between atoms: C_9  and  N_10 
REMARK    4  A    between atoms: C_12  and  C_13 
REMARK    5  A    between atoms: C_14  and  O_15 
ROOT
HETATM    1  N   UNL     1      42.867 -14.618   3.663  1.00  0.00    -0.325 N 
HETATM    2  C   UNL     1      41.611 -14.057   3.778  1.00  0.00     0.239 C 
HETATM    3  O   UNL     1      40.638 -14.512   4.374  1.00  0.00    -0.271 OA
HETATM    4  H   UNL     1      43.631 -13.971   3.508  1.00  0.00     0.169 HD
ENDROOT
BRANCH   2   5
HETATM    5  C   UNL     1      41.502 -12.706   3.093  1.00  0.00     0.222 C 
BRANCH   5   6
HETATM    6  N   UNL     1      40.554 -12.858   1.970  1.00  0.00    -0.389 N 
HETATM    7  H   UNL     1      39.556 -12.924   2.245  1.00  0.00     0.159 HD
HETATM    8  C   UNL     1      40.834 -12.981   0.722  1.00  0.00     0.097 C 
BRANCH   8   9
HETATM    9  C   UNL     1      39.814 -13.156  -0.327  1.00  0.00     0.012 A 
HETATM   10  C   UNL     1      38.809 -12.212  -0.575  1.00  0.00     0.077 A 
HETATM   11  C   UNL     1      37.875 -12.424  -1.587  1.00  0.00     0.037 A 
HETATM   12  C   UNL     1      37.944 -13.588  -2.354  1.00  0.00     0.003 A 
HETATM   13  C   UNL     1      38.941 -14.534  -2.111  1.00  0.00     0.001 A 
HETATM   14  C   UNL     1      39.880 -14.321  -1.100  1.00  0.00     0.016 A 
BRANCH  10  15
HETATM   15  O   UNL     1      38.749 -11.072   0.185  1.00  0.00    -0.360 OA
HETATM   16  H   UNL     1      39.658 -10.849   0.475  1.00  0.00     0.217 HD
ENDBRANCH  10  15
ENDBRANCH   8   9
ENDBRANCH   5   6
ENDBRANCH   2   5
BRANCH   1  17
HETATM   17  C   UNL     1      43.279 -15.925   4.038  1.00  0.00     0.046 A 
HETATM   18  C   UNL     1      43.606 -16.307   5.357  1.00  0.00    -0.034 A 
HETATM   19  C   UNL     1      43.990 -17.643   5.611  1.00  0.00     0.015 A 
HETATM   20  C   UNL     1      43.534 -15.413   6.565  1.00  0.00     0.050 C 
HETATM   21  C   UNL     1      44.004 -18.609   4.606  1.00  0.00    -0.061 A 
HETATM   22  C   UNL     1      44.356 -20.037   4.908  1.00  0.00     0.048 C 
HETATM   23  C   UNL     1      43.628 -18.238   3.318  1.00  0.00     0.015 A 
HETATM   24  C   UNL     1      43.272 -16.912   3.017  1.00  0.00    -0.034 A 
HETATM   25  C   UNL     1      42.908 -16.606   1.585  1.00  0.00     0.050 C 
ENDBRANCH   1  17
TORSDOF 5
ENDMDL
MODEL 5
REMARK VINA RESULT:      -7.4      1.415      1.834
REMARK  5 active torsions:
REMARK  status: ('A' for Active; 'I' for Inactive)
REMARK    1  A    between atoms: C_6  and  N_7 
REMARK       I    between atoms: N_7  and  C_8 
REMARK    2  A    between atoms: C_8  and  C_9 
REMARK    3  A    between atoms: C_9  and  N_10 
REMARK    4  A    between atoms: C_12  and  C_13 
REMARK    5  A    between atoms: C_14  and  O_15 
ROOT
HETATM    1  N   UNL     1      42.241 -14.044   5.233  1.00  0.00    -0.325 N 
HETATM    2  C   UNL     1      40.993 -13.769   5.755  1.00  0.00     0.239 C 
HETATM    3  O   UNL     1      40.121 -14.572   6.076  1.00  0.00    -0.271 OA
HETATM    4  H   UNL     1      42.957 -13.347   5.401  1.00  0.00     0.169 HD
ENDROOT
BRANCH   2   5
HETATM    5  C   UNL     1      40.752 -12.284   5.962  1.00  0.00     0.222 C 
BRANCH   5   6
HETATM    6  N   UNL     1      41.900 -11.757   6.728  1.00  0.00    -0.389 N 
HETATM    7  H   UNL     1      42.266 -12.392   7.462  1.00  0.00     0.159 HD
HETATM    8  C   UNL     1      42.440 -10.595   6.627  1.00  0.00     0.097 C 
BRANCH   8   9
HETATM    9  C   UNL     1      43.572 -10.148   7.458  1.00  0.00     0.012 A 
HETATM   10  C   UNL     1      44.668 -10.969   7.755  1.00  0.00     0.077 A 
HETATM   11  C   UNL     1      45.717 -10.492   8.539  1.00  0.00     0.037 A 
HETATM   12  C   UNL     1      45.668  -9.187   9.032  1.00  0.00     0.003 A 
HETATM   13  C   UNL     1      44.578  -8.364   8.743  1.00  0.00     0.001 A 
HETATM   14  C   UNL     1      43.529  -8.840   7.955  1.00  0.00     0.016 A 
BRANCH  10  15
HETATM   15  O   UNL     1      44.706 -12.249   7.266  1.00  0.00    -0.360 OA
HETATM   16  H   UNL     1      45.330 -12.769   7.815  1.00  0.00     0.217 HD
ENDBRANCH  10  15
ENDBRANCH   8   9
ENDBRANCH   5   6
ENDBRANCH   2   5
BRANCH   1  17
HETATM   17  C   UNL     1      42.740 -15.290   4.769  1.00  0.00     0.046 A 
HETATM   18  C   UNL     1      43.152 -16.344   5.612  1.00  0.00    -0.034 A 
HETATM   19  C   UNL     1      43.619 -17.546   5.034  1.00  0.00     0.015 A 
HETATM   20  C   UNL     1      43.092 -16.329   7.116  1.00  0.00     0.050 C 
HETATM   21  C   UNL     1      43.635 -17.741   3.654  1.00  0.00    -0.061 A 
HETATM   22  C   UNL     1      44.077 -19.047   3.061  1.00  0.00     0.048 C 
HETATM   23  C   UNL     1      43.176 -16.718   2.830  1.00  0.00     0.015 A 
HETATM   24  C   UNL     1      42.735 -15.495   3.364  1.00  0.00    -0.034 A 
HETATM   25  C   UNL     1      42.285 -14.439   2.385  1.00  0.00     0.050 C 
ENDBRANCH   1  17
TORSDOF 5
ENDMDL
MODEL 6
REMARK VINA RESULT:      -7.4      1.934      7.166
REMARK  5 active torsions:
REMARK  status: ('A' for Active; 'I' for Inactive)
REMARK    1  A    between atoms: C_6  and  N_7 
REMARK       I    between atoms: N_7  and  C_8 
REMARK    2  A    between atoms: C_8  and  C_9 
REMARK    3  A    between atoms: C_9  and  N_10 
REMARK    4  A    between atoms: C_12  and  C_13 
REMARK    5  A    between atoms: C_14  and  O_15 
ROOT
HETATM    1  N   UNL     1      42.386 -13.966   4.065  1.00  0.00    -0.325 N 
HETATM    2  C   UNL     1      41.043 -14.065   3.762  1.00  0.00     0.239 C 
HETATM    3  O   UNL     1      40.116 -13.419   4.243  1.00  0.00    -0.271 OA
HETATM    4  H   UNL     1      43.029 -14.248   3.335  1.00  0.00     0.169 HD
ENDROOT
BRANCH   2   5
HETATM    5  C   UNL     1      40.756 -15.085   2.673  1.00  0.00     0.222 C 
BRANCH   5   6
HETATM    6  N   UNL     1      41.447 -16.335   3.050  1.00  0.00    -0.389 N 
HETATM    7  H   UNL     1      41.145 -16.747   3.953  1.00  0.00     0.159 HD
HETATM    8  C   UNL     1      42.407 -16.916   2.425  1.00  0.00     0.097 C 
BRANCH   8   9
HETATM    9  C   UNL     1      43.054 -18.154   2.897  1.00  0.00     0.012 A 
HETATM   10  C   UNL     1      43.791 -18.221   4.087  1.00  0.00     0.077 A 
HETATM   11  C   UNL     1      44.374 -19.420   4.490  1.00  0.00     0.037 A 
HETATM   12  C   UNL     1      44.224 -20.559   3.697  1.00  0.00     0.003 A 
HETATM   13  C   UNL     1      43.493 -20.499   2.508  1.00  0.00     0.001 A 
HETATM   14  C   UNL     1      42.906 -19.298   2.106  1.00  0.00     0.016 A 
BRANCH  10  15
HETATM   15  O   UNL     1      43.933 -17.096   4.858  1.00  0.00    -0.360 OA
HETATM   16  H   UNL     1      43.072 -16.629   4.881  1.00  0.00     0.217 HD
ENDBRANCH  10  15
ENDBRANCH   8   9
ENDBRANCH   5   6
ENDBRANCH   2   5
BRANCH   1  17
HETATM   17  C   UNL     1      42.992 -13.242   5.126  1.00  0.00     0.046 A 
HETATM   18  C   UNL     1      43.050 -13.691   6.463  1.00  0.00    -0.034 A 
HETATM   19  C   UNL     1      43.694 -12.889   7.431  1.00  0.00     0.015 A 
HETATM   20  C   UNL     1      42.519 -15.008   6.962  1.00  0.00     0.050 C 
HETATM   21  C   UNL     1      44.321 -11.690   7.095  1.00  0.00    -0.061 A 
HETATM   22  C   UNL     1      45.052 -10.881   8.127  1.00  0.00     0.048 C 
HETATM   23  C   UNL     1      44.308 -11.279   5.765  1.00  0.00     0.015 A 
HETATM   24  C   UNL     1      43.650 -12.032   4.777  1.00  0.00    -0.034 A 
HETATM   25  C   UNL     1      43.667 -11.487   3.370  1.00  0.00     0.050 C 
ENDBRANCH   1  17
TORSDOF 5
ENDMDL
MODEL 7
REMARK VINA RESULT:      -7.2      1.988      3.299
REMARK  5 active torsions:
REMARK  status: ('A' for Active; 'I' for Inactive)
REMARK    1  A    between atoms: C_6  and  N_7 
REMARK       I    between atoms: N_7  and  C_8 
REMARK    2  A    between atoms: C_8  and  C_9 
REMARK    3  A    between atoms: C_9  and  N_10 
REMARK    4  A    between atoms: C_12  and  C_13 
REMARK    5  A    between atoms: C_14  and  O_15 
ROOT
HETATM    1  N   UNL     1      42.613 -13.075   5.139  1.00  0.00    -0.325 N 
HETATM    2  C   UNL     1      41.410 -12.558   5.576  1.00  0.00     0.239 C 
HETATM    3  O   UNL     1      40.385 -13.175   5.853  1.00  0.00    -0.271 OA
HETATM    4  H   UNL     1      43.436 -12.520   5.342  1.00  0.00     0.169 HD
ENDROOT
BRANCH   2   5
HETATM    5  C   UNL     1      41.442 -11.049   5.745  1.00  0.00     0.222 C 
BRANCH   5   6
HETATM    6  N   UNL     1      41.999 -10.770   7.084  1.00  0.00    -0.389 N 
HETATM    7  H   UNL     1      41.958 -11.564   7.750  1.00  0.00     0.159 HD
HETATM    8  C   UNL     1      42.460  -9.653   7.522  1.00  0.00     0.097 C 
BRANCH   8   9
HETATM    9  C   UNL     1      42.974  -9.464   8.891  1.00  0.00     0.012 A 
HETATM   10  C   UNL     1      43.714 -10.443   9.566  1.00  0.00     0.077 A 
HETATM   11  C   UNL     1      44.184 -10.208  10.857  1.00  0.00     0.037 A 
HETATM   12  C   UNL     1      43.909  -8.988  11.477  1.00  0.00     0.003 A 
HETATM   13  C   UNL     1      43.171  -8.009  10.811  1.00  0.00     0.001 A 
HETATM   14  C   UNL     1      42.703  -8.243   9.517  1.00  0.00     0.016 A 
BRANCH  10  15
HETATM   15  O   UNL     1      43.977 -11.638   8.948  1.00  0.00    -0.360 OA
HETATM   16  H   UNL     1      44.269 -12.279   9.631  1.00  0.00     0.217 HD
ENDBRANCH  10  15
ENDBRANCH   8   9
ENDBRANCH   5   6
ENDBRANCH   2   5
BRANCH   1  17
HETATM   17  C   UNL     1      42.895 -14.405   4.726  1.00  0.00     0.046 A 
HETATM   18  C   UNL     1      42.928 -14.829   3.381  1.00  0.00    -0.034 A 
HETATM   19  C   UNL     1      43.235 -16.177   3.091  1.00  0.00     0.015 A 
HETATM   20  C   UNL     1      42.708 -13.943   2.184  1.00  0.00     0.050 C 
HETATM   21  C   UNL     1      43.561 -17.090   4.094  1.00  0.00    -0.061 A 
HETATM   22  C   UNL     1      43.944 -18.502   3.762  1.00  0.00     0.048 C 
HETATM   23  C   UNL     1      43.580 -16.651   5.415  1.00  0.00     0.015 A 
HETATM   24  C   UNL     1      43.248 -15.327   5.747  1.00  0.00    -0.034 A 
HETATM   25  C   UNL     1      43.271 -14.958   7.211  1.00  0.00     0.050 C 
ENDBRANCH   1  17
TORSDOF 5
ENDMDL
MODEL 8
REMARK VINA RESULT:      -7.1      3.153      5.124
REMARK  5 active torsions:
REMARK  status: ('A' for Active; 'I' for Inactive)
REMARK    1  A    between atoms: C_6  and  N_7 
REMARK       I    between atoms: N_7  and  C_8 
REMARK    2  A    between atoms: C_8  and  C_9 
REMARK    3  A    between atoms: C_9  and  N_10 
REMARK    4  A    between atoms: C_12  and  C_13 
REMARK    5  A    between atoms: C_14  and  O_15 
ROOT
HETATM    1  N   UNL     1      42.271 -15.298   4.635  1.00  0.00    -0.325 N 
HETATM    2  C   UNL     1      41.250 -15.080   5.537  1.00  0.00     0.239 C 
HETATM    3  O   UNL     1      40.537 -15.920   6.080  1.00  0.00    -0.271 OA
HETATM    4  H   UNL     1      42.993 -14.588   4.599  1.00  0.00     0.169 HD
ENDROOT
BRANCH   2   5
HETATM    5  C   UNL     1      41.065 -13.611   5.878  1.00  0.00     0.222 C 
BRANCH   5   6
HETATM    6  N   UNL     1      40.880 -12.886   4.605  1.00  0.00    -0.389 N 
HETATM    7  H   UNL     1      41.672 -12.276   4.329  1.00  0.00     0.159 HD
HETATM    8  C   UNL     1      39.837 -12.880   3.854  1.00  0.00     0.097 C 
BRANCH   8   9
HETATM    9  C   UNL     1      39.736 -12.099   2.607  1.00  0.00     0.012 A 
HETATM   10  C   UNL     1      40.760 -12.058   1.651  1.00  0.00     0.077 A 
HETATM   11  C   UNL     1      40.607 -11.310   0.485  1.00  0.00     0.037 A 
HETATM   12  C   UNL     1      39.427 -10.595   0.276  1.00  0.00     0.003 A 
HETATM   13  C   UNL     1      38.404 -10.629   1.226  1.00  0.00     0.001 A 
HETATM   14  C   UNL     1      38.555 -11.381   2.392  1.00  0.00     0.016 A 
BRANCH  10  15
HETATM   15  O   UNL     1      41.915 -12.763   1.867  1.00  0.00    -0.360 OA
HETATM   16  H   UNL     1      41.699 -13.547   2.412  1.00  0.00     0.217 HD
ENDBRANCH  10  15
ENDBRANCH   8   9
ENDBRANCH   5   6
ENDBRANCH   2   5
BRANCH   1  17
HETATM   17  C   UNL     1      42.616 -16.510   3.979  1.00  0.00     0.046 A 
HETATM   18  C   UNL     1      42.039 -16.951   2.769  1.00  0.00    -0.034 A 
HETATM   19  C   UNL     1      42.474 -18.170   2.203  1.00  0.00     0.015 A 
HETATM   20  C   UNL     1      41.007 -16.198   1.973  1.00  0.00     0.050 C 
HETATM   21  C   UNL     1      43.496 -18.925   2.776  1.00  0.00    -0.061 A 
HETATM   22  C   UNL     1      43.986 -20.186   2.127  1.00  0.00     0.048 C 
HETATM   23  C   UNL     1      44.099 -18.457   3.940  1.00  0.00     0.015 A 
HETATM   24  C   UNL     1      43.673 -17.266   4.553  1.00  0.00    -0.034 A 
HETATM   25  C   UNL     1      44.371 -16.860   5.828  1.00  0.00     0.050 C 
ENDBRANCH   1  17
TORSDOF 5
ENDMDL
MODEL 9
REMARK VINA RESULT:      -7.1      2.284      8.462
REMARK  5 active torsions:
REMARK  status: ('A' for Active; 'I' for Inactive)
REMARK    1  A    between atoms: C_6  and  N_7 
REMARK       I    between atoms: N_7  and  C_8 
REMARK    2  A    between atoms: C_8  and  C_9 
REMARK    3  A    between atoms: C_9  and  N_10 
REMARK    4  A    between atoms: C_12  and  C_13 
REMARK    5  A    between atoms: C_14  and  O_15 
ROOT
HETATM    1  N   UNL     1      43.103  -9.950   7.212  1.00  0.00    -0.325 N 
HETATM    2  C   UNL     1      43.392 -11.171   6.636  1.00  0.00     0.239 C 
HETATM    3  O   UNL     1      43.660 -12.225   7.206  1.00  0.00    -0.271 OA
HETATM    4  H   UNL     1      42.531  -9.322   6.661  1.00  0.00     0.169 HD
ENDROOT
BRANCH   2   5
HETATM    5  C   UNL     1      43.318 -11.141   5.119  1.00  0.00     0.222 C 
BRANCH   5   6
HETATM    6  N   UNL     1      43.424 -12.537   4.648  1.00  0.00    -0.389 N 
HETATM    7  H   UNL     1      44.191 -13.088   5.076  1.00  0.00     0.159 HD
HETATM    8  C   UNL     1      42.723 -13.110   3.736  1.00  0.00     0.097 C 
BRANCH   8   9
HETATM    9  C   UNL     1      42.921 -14.508   3.314  1.00  0.00     0.012 A 
HETATM   10  C   UNL     1      42.906 -15.583   4.213  1.00  0.00     0.077 A 
HETATM   11  C   UNL     1      43.090 -16.887   3.758  1.00  0.00     0.037 A 
HETATM   12  C   UNL     1      43.293 -17.118   2.396  1.00  0.00     0.003 A 
HETATM   13  C   UNL     1      43.311 -16.052   1.495  1.00  0.00     0.001 A 
HETATM   14  C   UNL     1      43.123 -14.745   1.950  1.00  0.00     0.016 A 
BRANCH  10  15
HETATM   15  O   UNL     1      42.707 -15.345   5.548  1.00  0.00    -0.360 OA
HETATM   16  H   UNL     1      43.563 -15.072   5.942  1.00  0.00     0.217 HD
ENDBRANCH  10  15
ENDBRANCH   8   9
ENDBRANCH   5   6
ENDBRANCH   2   5
BRANCH   1  17
HETATM   17  C   UNL     1      43.230  -9.575   8.576  1.00  0.00     0.046 A 
HETATM   18  C   UNL     1      44.457  -9.495   9.268  1.00  0.00    -0.034 A 
HETATM   19  C   UNL     1      44.460  -9.095  10.622  1.00  0.00     0.015 A 
HETATM   20  C   UNL     1      45.813  -9.754   8.667  1.00  0.00     0.050 C 
HETATM   21  C   UNL     1      43.289  -8.725  11.283  1.00  0.00    -0.061 A 
HETATM   22  C   UNL     1      43.319  -8.244  12.704  1.00  0.00     0.048 C 
HETATM   23  C   UNL     1      42.088  -8.754  10.579  1.00  0.00     0.015 A 
HETATM   24  C   UNL     1      42.039  -9.177   9.240  1.00  0.00    -0.034 A 
HETATM   25  C   UNL     1      40.684  -9.200   8.575  1.00  0.00     0.050 C 
ENDBRANCH   1  17
TORSDOF 5
ENDMDL
MODEL 10
REMARK VINA RESULT:      -7.0      1.633      7.989
REMARK  5 active torsions:
REMARK  status: ('A' for Active; 'I' for Inactive)
REMARK    1  A    between atoms: C_6  and  N_7 
REMARK       I    between atoms: N_7  and  C_8 
REMARK    2  A    between atoms: C_8  and  C_9 
REMARK    3  A    between atoms: C_9  and  N_10 
REMARK    4  A    between atoms: C_12  and  C_13 
REMARK    5  A    between atoms: C_14  and  O_15 
ROOT
HETATM    1  N   UNL     1      42.663 -11.443   5.542  1.00  0.00    -0.325 N 
HETATM    2  C   UNL     1      42.081 -12.684   5.381  1.00  0.00     0.239 C 
HETATM    3  O   UNL     1      41.520 -13.365   6.234  1.00  0.00    -0.271 OA
HETATM    4  H   UNL     1      42.711 -10.862   4.713  1.00  0.00     0.169 HD
ENDROOT
BRANCH   2   5
HETATM    5  C   UNL     1      42.149 -13.187   3.949  1.00  0.00     0.222 C 
BRANCH   5   6
HETATM    6  N   UNL     1      42.457 -14.631   4.006  1.00  0.00    -0.389 N 
HETATM    7  H   UNL     1      42.191 -15.101   4.892  1.00  0.00     0.159 HD
HETATM    8  C   UNL     1      43.066 -15.335   3.121  1.00  0.00     0.097 C 
BRANCH   8   9
HETATM    9  C   UNL     1      43.353 -16.772   3.281  1.00  0.00     0.012 A 
HETATM   10  C   UNL     1      43.928 -17.309   4.440  1.00  0.00     0.077 A 
HETATM   11  C   UNL     1      44.169 -18.678   4.541  1.00  0.00     0.037 A 
HETATM   12  C   UNL     1      43.836 -19.515   3.474  1.00  0.00     0.003 A 
HETATM   13  C   UNL     1      43.265 -18.987   2.315  1.00  0.00     0.001 A 
HETATM   14  C   UNL     1      43.020 -17.616   2.215  1.00  0.00     0.016 A 
BRANCH  10  15
HETATM   15  O   UNL     1      44.252 -16.478   5.481  1.00  0.00    -0.360 OA
HETATM   16  H   UNL     1      43.607 -15.740   5.497  1.00  0.00     0.217 HD
ENDBRANCH  10  15
ENDBRANCH   8   9
ENDBRANCH   5   6
ENDBRANCH   2   5
BRANCH   1  17
HETATM   17  C   UNL     1      42.920 -10.747   6.754  1.00  0.00     0.046 A 
HETATM   18  C   UNL     1      41.968  -9.958   7.434  1.00  0.00    -0.034 A 
HETATM   19  C   UNL     1      42.335  -9.325   8.642  1.00  0.00     0.015 A 
HETATM   20  C   UNL     1      40.537  -9.762   7.009  1.00  0.00     0.050 C 
HETATM   21  C   UNL     1      43.596  -9.499   9.211  1.00  0.00    -0.061 A 
HETATM   22  C   UNL     1      43.948  -8.866  10.526  1.00  0.00     0.048 C 
HETATM   23  C   UNL     1      44.513 -10.322   8.563  1.00  0.00     0.015 A 
HETATM   24  C   UNL     1      44.197 -10.944   7.343  1.00  0.00    -0.034 A 
HETATM   25  C   UNL     1      45.270 -11.793   6.706  1.00  0.00     0.050 C 
ENDBRANCH   1  17
TORSDOF 5
ENDMDL
