MODEL 1
REMARK VINA RESULT:      -8.1      0.000      0.000
REMARK  8 active torsions:
REMARK  status: ('A' for Active; 'I' for Inactive)
REMARK    1  A    between atoms: C_8  and  C_9 
REMARK       I    between atoms: C_9  and  N_10 
REMARK    2  A    between atoms: N_10  and  N_11 
REMARK    3  A    between atoms: N_11  and  C_12 
REMARK    4  A    between atoms: C_12  and  N_13 
REMARK    5  A    between atoms: N_13  and  C_14 
REMARK    6  A    between atoms: C_15  and  O_16 
REMARK    7  A    between atoms: C_19  and  O_20 
REMARK    8  A    between atoms: C_26  and  C_27 
ROOT
HETATM    1  C   UNL     1      42.065 -11.844   5.687  1.00  0.00     0.275 C 
HETATM    2  N   UNL     1      41.991 -13.206   5.463  1.00  0.00    -0.263 N 
HETATM    3  O   UNL     1      41.332 -11.039   5.115  1.00  0.00    -0.266 OA
HETATM    4  H   UNL     1      42.796 -13.789   5.691  1.00  0.00     0.190 HD
ENDROOT
BRANCH   2   5
HETATM    5  N   UNL     1      41.131 -13.678   4.456  1.00  0.00    -0.273 N 
HETATM    6  H   UNL     1      40.234 -13.191   4.418  1.00  0.00     0.189 HD
BRANCH   5   7
HETATM    7  C   UNL     1      41.636 -14.163   3.277  1.00  0.00     0.191 C 
HETATM    8  S   UNL     1      40.838 -14.075   1.802  1.00  0.00    -0.039 SA
BRANCH   7   9
HETATM    9  N   UNL     1      42.849 -14.780   3.316  1.00  0.00    -0.330 N 
HETATM   10  H   UNL     1      43.643 -14.149   3.220  1.00  0.00     0.168 HD
BRANCH   9  11
HETATM   11  C   UNL     1      43.224 -16.134   3.480  1.00  0.00     0.068 A 
HETATM   12  C   UNL     1      43.621 -16.534   4.775  1.00  0.00     0.097 A 
HETATM   13  C   UNL     1      43.999 -17.863   5.014  1.00  0.00     0.075 A 
HETATM   14  C   UNL     1      43.967 -18.798   3.978  1.00  0.00     0.070 A 
HETATM   15  C   UNL     1      43.531 -18.406   2.712  1.00  0.00     0.039 A 
HETATM   16  C   UNL     1      43.154 -17.084   2.462  1.00  0.00     0.035 A 
BRANCH  12  17
HETATM   17  O   UNL     1      43.605 -15.538   5.726  1.00  0.00    -0.354 OA
HETATM   18  C   UNL     1      43.477 -15.934   7.086  1.00  0.00     0.210 C 
ENDBRANCH  12  17
BRANCH  14  19
HETATM   19  O   UNL     1      44.307 -20.119   4.076  1.00  0.00    -0.356 OA
HETATM   20  C   UNL     1      44.067 -20.756   5.324  1.00  0.00     0.210 C 
ENDBRANCH  14  19
ENDBRANCH   9  11
ENDBRANCH   7   9
ENDBRANCH   5   7
ENDBRANCH   2   5
BRANCH   1  21
HETATM   21  C   UNL     1      43.104 -11.445   6.613  1.00  0.00     0.098 A 
HETATM   22  C   UNL     1      43.206 -10.293   7.371  1.00  0.00     0.138 A 
HETATM   23  N   UNL     1      42.455  -9.165   7.446  1.00  0.00    -0.370 N 
HETATM   24  N   UNL     1      44.345 -10.442   8.121  1.00  0.00    -0.240 N 
HETATM   25  C   UNL     1      42.780  -8.066   8.349  1.00  0.00     0.081 C 
HETATM   26  H   UNL     1      41.780  -8.930   6.718  1.00  0.00     0.161 HD
HETATM   27  C   UNL     1      41.808  -8.070   9.523  1.00  0.00     0.032 C 
HETATM   28  C   UNL     1      44.265  -8.071   8.734  1.00  0.00     0.061 C 
HETATM   29  C   UNL     1      44.857  -9.455   9.048  1.00  0.00     0.221 C 
HETATM   30  N   UNL     1      45.050 -11.547   7.826  1.00  0.00    -0.181 NA
HETATM   31  C   UNL     1      44.283 -12.165   6.923  1.00  0.00     0.160 A 
BRANCH  29  32
HETATM   32  C   UNL     1      44.642  -9.909  10.473  1.00  0.00     0.409 C 
HETATM   33  F   UNL     1      45.644 -10.667  10.959  1.00  0.00    -0.169 F 
HETATM   34  F   UNL     1      44.469  -8.873  11.325  1.00  0.00    -0.169 F 
HETATM   35  F   UNL     1      43.510 -10.657  10.555  1.00  0.00    -0.169 F 
ENDBRANCH  29  32
ENDBRANCH   1  21
TORSDOF 8
ENDMDL
MODEL 2
REMARK VINA RESULT:      -7.9      4.846      8.672
REMARK  8 active torsions:
REMARK  status: ('A' for Active; 'I' for Inactive)
REMARK    1  A    between atoms: C_8  and  C_9 
REMARK       I    between atoms: C_9  and  N_10 
REMARK    2  A    between atoms: N_10  and  N_11 
REMARK    3  A    between atoms: N_11  and  C_12 
REMARK    4  A    between atoms: C_12  and  N_13 
REMARK    5  A    between atoms: N_13  and  C_14 
REMARK    6  A    between atoms: C_15  and  O_16 
REMARK    7  A    between atoms: C_19  and  O_20 
REMARK    8  A    between atoms: C_26  and  C_27 
ROOT
HETATM    1  C   UNL     1      40.853 -15.402   4.302  1.00  0.00     0.275 C 
HETATM    2  N   UNL     1      40.208 -14.440   3.547  1.00  0.00    -0.263 N 
HETATM    3  O   UNL     1      40.714 -15.491   5.520  1.00  0.00    -0.266 OA
HETATM    4  H   UNL     1      40.585 -14.195   2.632  1.00  0.00     0.190 HD
ENDROOT
BRANCH   2   5
HETATM    5  N   UNL     1      39.462 -13.450   4.211  1.00  0.00    -0.273 N 
HETATM    6  H   UNL     1      38.745 -13.824   4.836  1.00  0.00     0.189 HD
BRANCH   5   7
HETATM    7  C   UNL     1      40.038 -12.255   4.557  1.00  0.00     0.191 C 
HETATM    8  S   UNL     1      40.084 -10.906   3.558  1.00  0.00    -0.039 SA
BRANCH   7   9
HETATM    9  N   UNL     1      40.635 -12.172   5.778  1.00  0.00    -0.330 N 
HETATM   10  H   UNL     1      40.007 -12.337   6.563  1.00  0.00     0.168 HD
BRANCH   9  11
HETATM   11  C   UNL     1      41.968 -11.913   6.170  1.00  0.00     0.068 A 
HETATM   12  C   UNL     1      42.229 -10.655   6.756  1.00  0.00     0.097 A 
HETATM   13  C   UNL     1      43.527 -10.331   7.176  1.00  0.00     0.075 A 
HETATM   14  C   UNL     1      44.562 -11.257   7.031  1.00  0.00     0.070 A 
HETATM   15  C   UNL     1      44.288 -12.514   6.492  1.00  0.00     0.039 A 
HETATM   16  C   UNL     1      42.999 -12.847   6.068  1.00  0.00     0.035 A 
BRANCH  12  17
HETATM   17  O   UNL     1      41.138  -9.822   6.864  1.00  0.00    -0.354 OA
HETATM   18  C   UNL     1      40.991  -9.089   8.074  1.00  0.00     0.210 C 
ENDBRANCH  12  17
BRANCH  14  19
HETATM   19  O   UNL     1      45.866 -11.070   7.397  1.00  0.00    -0.356 OA
HETATM   20  C   UNL     1      46.215  -9.790   7.910  1.00  0.00     0.210 C 
ENDBRANCH  14  19
ENDBRANCH   9  11
ENDBRANCH   7   9
ENDBRANCH   5   7
ENDBRANCH   2   5
BRANCH   1  21
HETATM   21  C   UNL     1      41.738 -16.263   3.544  1.00  0.00     0.098 A 
HETATM   22  C   UNL     1      42.638 -17.209   3.998  1.00  0.00     0.138 A 
HETATM   23  N   UNL     1      43.044 -17.581   5.239  1.00  0.00    -0.370 N 
HETATM   24  N   UNL     1      43.171 -17.784   2.872  1.00  0.00    -0.240 N 
HETATM   25  C   UNL     1      44.031 -18.632   5.458  1.00  0.00     0.081 C 
HETATM   26  H   UNL     1      42.865 -16.992   6.052  1.00  0.00     0.161 HD
HETATM   27  C   UNL     1      43.330 -19.886   5.967  1.00  0.00     0.032 C 
HETATM   28  C   UNL     1      44.920 -18.839   4.225  1.00  0.00     0.061 C 
HETATM   29  C   UNL     1      44.186 -18.817   2.875  1.00  0.00     0.221 C 
HETATM   30  N   UNL     1      42.772 -17.207   1.726  1.00  0.00    -0.181 NA
HETATM   31  C   UNL     1      41.885 -16.296   2.137  1.00  0.00     0.160 A 
BRANCH  29  32
HETATM   32  C   UNL     1      43.586 -20.145   2.476  1.00  0.00     0.409 C 
HETATM   33  F   UNL     1      44.018 -21.182   3.220  1.00  0.00    -0.169 F 
HETATM   34  F   UNL     1      42.235 -20.140   2.535  1.00  0.00    -0.169 F 
HETATM   35  F   UNL     1      43.907 -20.429   1.186  1.00  0.00    -0.169 F 
ENDBRANCH  29  32
ENDBRANCH   1  21
TORSDOF 8
ENDMDL
MODEL 3
REMARK VINA RESULT:      -7.6      4.311      6.863
REMARK  8 active torsions:
REMARK  status: ('A' for Active; 'I' for Inactive)
REMARK    1  A    between atoms: C_8  and  C_9 
REMARK       I    between atoms: C_9  and  N_10 
REMARK    2  A    between atoms: N_10  and  N_11 
REMARK    3  A    between atoms: N_11  and  C_12 
REMARK    4  A    between atoms: C_12  and  N_13 
REMARK    5  A    between atoms: N_13  and  C_14 
REMARK    6  A    between atoms: C_15  and  O_16 
REMARK    7  A    between atoms: C_19  and  O_20 
REMARK    8  A    between atoms: C_26  and  C_27 
ROOT
HETATM    1  C   UNL     1      43.274 -11.737   4.011  1.00  0.00     0.275 C 
HETATM    2  N   UNL     1      42.096 -11.052   3.774  1.00  0.00    -0.263 N 
HETATM    3  O   UNL     1      44.317 -11.487   3.411  1.00  0.00    -0.266 OA
HETATM    4  H   UNL     1      41.212 -11.486   4.035  1.00  0.00     0.190 HD
ENDROOT
BRANCH   2   5
HETATM    5  N   UNL     1      42.059 -10.118   2.723  1.00  0.00    -0.273 N 
HETATM    6  H   UNL     1      42.948  -9.641   2.564  1.00  0.00     0.189 HD
BRANCH   5   7
HETATM    7  C   UNL     1      41.250 -10.322   1.635  1.00  0.00     0.191 C 
HETATM    8  S   UNL     1      39.751  -9.594   1.425  1.00  0.00    -0.039 SA
BRANCH   7   9
HETATM    9  N   UNL     1      41.681 -11.194   0.682  1.00  0.00    -0.330 N 
HETATM   10  H   UNL     1      42.675 -11.123   0.469  1.00  0.00     0.168 HD
BRANCH   9  11
HETATM   11  C   UNL     1      41.016 -12.194  -0.064  1.00  0.00     0.068 A 
HETATM   12  C   UNL     1      40.444 -13.260   0.665  1.00  0.00     0.097 A 
HETATM   13  C   UNL     1      39.763 -14.284  -0.007  1.00  0.00     0.075 A 
HETATM   14  C   UNL     1      39.634 -14.246  -1.396  1.00  0.00     0.070 A 
HETATM   15  C   UNL     1      40.163 -13.168  -2.105  1.00  0.00     0.039 A 
HETATM   16  C   UNL     1      40.846 -12.142  -1.446  1.00  0.00     0.035 A 
BRANCH  12  17
HETATM   17  O   UNL     1      40.618 -13.195   2.029  1.00  0.00    -0.354 OA
HETATM   18  C   UNL     1      39.454 -13.277   2.843  1.00  0.00     0.210 C 
ENDBRANCH  12  17
BRANCH  14  19
HETATM   19  O   UNL     1      38.996 -15.175  -2.171  1.00  0.00    -0.356 OA
HETATM   20  C   UNL     1      38.286 -14.693  -3.305  1.00  0.00     0.210 C 
ENDBRANCH  14  19
ENDBRANCH   9  11
ENDBRANCH   7   9
ENDBRANCH   5   7
ENDBRANCH   2   5
BRANCH   1  21
HETATM   21  C   UNL     1      43.162 -12.800   4.988  1.00  0.00     0.098 A 
HETATM   22  C   UNL     1      42.835 -14.131   4.801  1.00  0.00     0.138 A 
HETATM   23  N   UNL     1      42.448 -14.844   3.713  1.00  0.00    -0.370 N 
HETATM   24  N   UNL     1      42.933 -14.714   6.038  1.00  0.00    -0.240 N 
HETATM   25  C   UNL     1      42.154 -16.271   3.776  1.00  0.00     0.081 C 
HETATM   26  H   UNL     1      42.115 -14.380   2.867  1.00  0.00     0.161 HD
HETATM   27  C   UNL     1      43.295 -17.052   3.135  1.00  0.00     0.032 C 
HETATM   28  C   UNL     1      41.785 -16.710   5.199  1.00  0.00     0.061 C 
HETATM   29  C   UNL     1      42.651 -16.107   6.317  1.00  0.00     0.221 C 
HETATM   30  N   UNL     1      43.186 -13.845   7.031  1.00  0.00    -0.181 NA
HETATM   31  C   UNL     1      43.344 -12.685   6.387  1.00  0.00     0.160 A 
BRANCH  29  32
HETATM   32  C   UNL     1      43.933 -16.862   6.581  1.00  0.00     0.409 C 
HETATM   33  F   UNL     1      44.323 -16.840   7.870  1.00  0.00    -0.169 F 
HETATM   34  F   UNL     1      43.856 -18.158   6.203  1.00  0.00    -0.169 F 
HETATM   35  F   UNL     1      44.947 -16.317   5.857  1.00  0.00    -0.169 F 
ENDBRANCH  29  32
ENDBRANCH   1  21
TORSDOF 8
ENDMDL
MODEL 4
REMARK VINA RESULT:      -7.4      4.955      8.595
REMARK  8 active torsions:
REMARK  status: ('A' for Active; 'I' for Inactive)
REMARK    1  A    between atoms: C_8  and  C_9 
REMARK       I    between atoms: C_9  and  N_10 
REMARK    2  A    between atoms: N_10  and  N_11 
REMARK    3  A    between atoms: N_11  and  C_12 
REMARK    4  A    between atoms: C_12  and  N_13 
REMARK    5  A    between atoms: N_13  and  C_14 
REMARK    6  A    between atoms: C_15  and  O_16 
REMARK    7  A    between atoms: C_19  and  O_20 
REMARK    8  A    between atoms: C_26  and  C_27 
ROOT
HETATM    1  C   UNL     1      40.944 -15.359   4.362  1.00  0.00     0.275 C 
HETATM    2  N   UNL     1      40.276 -14.404   3.619  1.00  0.00    -0.263 N 
HETATM    3  O   UNL     1      40.854 -15.428   5.586  1.00  0.00    -0.266 OA
HETATM    4  H   UNL     1      40.616 -14.176   2.686  1.00  0.00     0.190 HD
ENDROOT
BRANCH   2   5
HETATM    5  N   UNL     1      39.564 -13.398   4.297  1.00  0.00    -0.273 N 
HETATM    6  H   UNL     1      39.574 -13.500   5.314  1.00  0.00     0.189 HD
BRANCH   5   7
HETATM    7  C   UNL     1      39.501 -12.125   3.792  1.00  0.00     0.191 C 
HETATM    8  S   UNL     1      38.626 -11.694   2.426  1.00  0.00    -0.039 SA
BRANCH   7   9
HETATM    9  N   UNL     1      40.221 -11.158   4.427  1.00  0.00    -0.330 N 
HETATM   10  H   UNL     1      39.813 -10.227   4.369  1.00  0.00     0.168 HD
BRANCH   9  11
HETATM   11  C   UNL     1      41.424 -11.200   5.168  1.00  0.00     0.068 A 
HETATM   12  C   UNL     1      42.560 -11.725   4.512  1.00  0.00     0.097 A 
HETATM   13  C   UNL     1      43.790 -11.791   5.182  1.00  0.00     0.075 A 
HETATM   14  C   UNL     1      43.900 -11.322   6.492  1.00  0.00     0.070 A 
HETATM   15  C   UNL     1      42.785 -10.763   7.118  1.00  0.00     0.039 A 
HETATM   16  C   UNL     1      41.554 -10.695   6.461  1.00  0.00     0.035 A 
BRANCH  12  17
HETATM   17  O   UNL     1      42.346 -12.147   3.219  1.00  0.00    -0.354 OA
HETATM   18  C   UNL     1      43.336 -12.981   2.630  1.00  0.00     0.210 C 
ENDBRANCH  12  17
BRANCH  14  19
HETATM   19  O   UNL     1      45.035 -11.326   7.256  1.00  0.00    -0.356 OA
HETATM   20  C   UNL     1      45.012 -10.555   8.450  1.00  0.00     0.210 C 
ENDBRANCH  14  19
ENDBRANCH   9  11
ENDBRANCH   7   9
ENDBRANCH   5   7
ENDBRANCH   2   5
BRANCH   1  21
HETATM   21  C   UNL     1      41.790 -16.239   3.583  1.00  0.00     0.098 A 
HETATM   22  C   UNL     1      42.675 -17.210   4.013  1.00  0.00     0.138 A 
HETATM   23  N   UNL     1      43.096 -17.598   5.244  1.00  0.00    -0.370 N 
HETATM   24  N   UNL     1      43.171 -17.792   2.875  1.00  0.00    -0.240 N 
HETATM   25  C   UNL     1      44.059 -18.676   5.439  1.00  0.00     0.081 C 
HETATM   26  H   UNL     1      42.948 -17.009   6.064  1.00  0.00     0.161 HD
HETATM   27  C   UNL     1      43.337 -19.914   5.955  1.00  0.00     0.032 C 
HETATM   28  C   UNL     1      44.918 -18.899   4.187  1.00  0.00     0.061 C 
HETATM   29  C   UNL     1      44.158 -18.851   2.852  1.00  0.00     0.221 C 
HETATM   30  N   UNL     1      42.763 -17.200   1.740  1.00  0.00    -0.181 NA
HETATM   31  C   UNL     1      41.909 -16.268   2.172  1.00  0.00     0.160 A 
BRANCH  29  32
HETATM   32  C   UNL     1      43.516 -20.162   2.459  1.00  0.00     0.409 C 
HETATM   33  F   UNL     1      42.176 -20.173   2.593  1.00  0.00    -0.169 F 
HETATM   34  F   UNL     1      43.799 -20.513   1.185  1.00  0.00    -0.169 F 
HETATM   35  F   UNL     1      43.995 -21.164   3.243  1.00  0.00    -0.169 F 
ENDBRANCH  29  32
ENDBRANCH   1  21
TORSDOF 8
ENDMDL
MODEL 5
REMARK VINA RESULT:      -7.4      4.572      9.624
REMARK  8 active torsions:
REMARK  status: ('A' for Active; 'I' for Inactive)
REMARK    1  A    between atoms: C_8  and  C_9 
REMARK       I    between atoms: C_9  and  N_10 
REMARK    2  A    between atoms: N_10  and  N_11 
REMARK    3  A    between atoms: N_11  and  C_12 
REMARK    4  A    between atoms: C_12  and  N_13 
REMARK    5  A    between atoms: N_13  and  C_14 
REMARK    6  A    between atoms: C_15  and  O_16 
REMARK    7  A    between atoms: C_19  and  O_20 
REMARK    8  A    between atoms: C_26  and  C_27 
ROOT
HETATM    1  C   UNL     1      43.801 -12.339   6.570  1.00  0.00     0.275 C 
HETATM    2  N   UNL     1      43.755 -11.857   7.866  1.00  0.00    -0.263 N 
HETATM    3  O   UNL     1      44.148 -11.645   5.617  1.00  0.00    -0.266 OA
HETATM    4  H   UNL     1      43.174 -12.336   8.551  1.00  0.00     0.190 HD
ENDROOT
BRANCH   2   5
HETATM    5  N   UNL     1      43.996 -10.489   8.084  1.00  0.00    -0.273 N 
HETATM    6  H   UNL     1      44.566 -10.049   7.359  1.00  0.00     0.189 HD
BRANCH   5   7
HETATM    7  C   UNL     1      43.061  -9.706   8.711  1.00  0.00     0.191 C 
HETATM    8  S   UNL     1      42.382  -8.325   8.039  1.00  0.00    -0.039 SA
BRANCH   7   9
HETATM    9  N   UNL     1      42.685 -10.060   9.972  1.00  0.00    -0.330 N 
HETATM   10  H   UNL     1      42.518 -11.057  10.094  1.00  0.00     0.168 HD
BRANCH   9  11
HETATM   11  C   UNL     1      42.494  -9.309  11.154  1.00  0.00     0.068 A 
HETATM   12  C   UNL     1      41.171  -9.197  11.633  1.00  0.00     0.097 A 
HETATM   13  C   UNL     1      40.907  -8.473  12.805  1.00  0.00     0.075 A 
HETATM   14  C   UNL     1      41.953  -7.875  13.510  1.00  0.00     0.070 A 
HETATM   15  C   UNL     1      43.263  -8.027  13.055  1.00  0.00     0.039 A 
HETATM   16  C   UNL     1      43.537  -8.744  11.888  1.00  0.00     0.035 A 
BRANCH  12  17
HETATM   17  O   UNL     1      40.217  -9.834  10.872  1.00  0.00    -0.354 OA
HETATM   18  C   UNL     1      39.244  -9.021  10.227  1.00  0.00     0.210 C 
ENDBRANCH  12  17
BRANCH  14  19
HETATM   19  O   UNL     1      41.834  -7.146  14.660  1.00  0.00    -0.356 OA
HETATM   20  C   UNL     1      41.338  -5.818  14.535  1.00  0.00     0.210 C 
ENDBRANCH  14  19
ENDBRANCH   9  11
ENDBRANCH   7   9
ENDBRANCH   5   7
ENDBRANCH   2   5
BRANCH   1  21
HETATM   21  C   UNL     1      43.365 -13.713   6.428  1.00  0.00     0.098 A 
HETATM   22  C   UNL     1      42.944 -14.384   5.295  1.00  0.00     0.138 A 
HETATM   23  N   UNL     1      42.727 -13.992   4.014  1.00  0.00    -0.370 N 
HETATM   24  N   UNL     1      42.707 -15.674   5.695  1.00  0.00    -0.240 N 
HETATM   25  C   UNL     1      42.274 -14.914   2.978  1.00  0.00     0.081 C 
HETATM   26  H   UNL     1      42.638 -13.005   3.770  1.00  0.00     0.161 HD
HETATM   27  C   UNL     1      43.434 -15.241   2.047  1.00  0.00     0.032 C 
HETATM   28  C   UNL     1      41.559 -16.131   3.579  1.00  0.00     0.061 C 
HETATM   29  C   UNL     1      42.221 -16.730   4.830  1.00  0.00     0.221 C 
HETATM   30  N   UNL     1      42.831 -15.865   7.019  1.00  0.00    -0.181 NA
HETATM   31  C   UNL     1      43.250 -14.675   7.460  1.00  0.00     0.160 A 
BRANCH  29  32
HETATM   32  C   UNL     1      43.326 -17.717   4.532  1.00  0.00     0.409 C 
HETATM   33  F   UNL     1      43.210 -18.317   3.331  1.00  0.00    -0.169 F 
HETATM   34  F   UNL     1      44.552 -17.150   4.585  1.00  0.00    -0.169 F 
HETATM   35  F   UNL     1      43.327 -18.706   5.465  1.00  0.00    -0.169 F 
ENDBRANCH  29  32
ENDBRANCH   1  21
TORSDOF 8
ENDMDL
MODEL 6
REMARK VINA RESULT:      -7.3      4.353      9.115
REMARK  8 active torsions:
REMARK  status: ('A' for Active; 'I' for Inactive)
REMARK    1  A    between atoms: C_8  and  C_9 
REMARK       I    between atoms: C_9  and  N_10 
REMARK    2  A    between atoms: N_10  and  N_11 
REMARK    3  A    between atoms: N_11  and  C_12 
REMARK    4  A    between atoms: C_12  and  N_13 
REMARK    5  A    between atoms: N_13  and  C_14 
REMARK    6  A    between atoms: C_15  and  O_16 
REMARK    7  A    between atoms: C_19  and  O_20 
REMARK    8  A    between atoms: C_26  and  C_27 
ROOT
HETATM    1  C   UNL     1      43.115 -11.767   5.787  1.00  0.00     0.275 C 
HETATM    2  N   UNL     1      42.281 -11.250   6.761  1.00  0.00    -0.263 N 
HETATM    3  O   UNL     1      43.814 -11.055   5.069  1.00  0.00    -0.266 OA
HETATM    4  H   UNL     1      41.504 -11.817   7.097  1.00  0.00     0.190 HD
ENDROOT
BRANCH   2   5
HETATM    5  N   UNL     1      42.133  -9.854   6.851  1.00  0.00    -0.273 N 
HETATM    6  H   UNL     1      42.337  -9.361   5.980  1.00  0.00     0.189 HD
BRANCH   5   7
HETATM    7  C   UNL     1      41.192  -9.303   7.682  1.00  0.00     0.191 C 
HETATM    8  S   UNL     1      40.076  -8.142   7.205  1.00  0.00    -0.039 SA
BRANCH   7   9
HETATM    9  N   UNL     1      41.185  -9.706   8.983  1.00  0.00    -0.330 N 
HETATM   10  H   UNL     1      40.656 -10.559   9.155  1.00  0.00     0.168 HD
BRANCH   9  11
HETATM   11  C   UNL     1      41.787  -9.174  10.147  1.00  0.00     0.068 A 
HETATM   12  C   UNL     1      43.106  -9.590  10.431  1.00  0.00     0.097 A 
HETATM   13  C   UNL     1      43.769  -9.099  11.564  1.00  0.00     0.075 A 
HETATM   14  C   UNL     1      43.134  -8.184  12.406  1.00  0.00     0.070 A 
HETATM   15  C   UNL     1      41.847  -7.743  12.095  1.00  0.00     0.039 A 
HETATM   16  C   UNL     1      41.176  -8.228  10.969  1.00  0.00     0.035 A 
BRANCH  12  17
HETATM   17  O   UNL     1      43.644 -10.483   9.532  1.00  0.00    -0.354 OA
HETATM   18  C   UNL     1      44.976 -10.247   9.092  1.00  0.00     0.210 C 
ENDBRANCH  12  17
BRANCH  14  19
HETATM   19  O   UNL     1      43.664  -7.628  13.537  1.00  0.00    -0.356 OA
HETATM   20  C   UNL     1      42.750  -7.056  14.465  1.00  0.00     0.210 C 
ENDBRANCH  14  19
ENDBRANCH   9  11
ENDBRANCH   7   9
ENDBRANCH   5   7
ENDBRANCH   2   5
BRANCH   1  21
HETATM   21  C   UNL     1      43.062 -13.208   5.657  1.00  0.00     0.098 A 
HETATM   22  C   UNL     1      42.257 -13.984   4.843  1.00  0.00     0.138 A 
HETATM   23  N   UNL     1      41.240 -13.688   3.995  1.00  0.00    -0.370 N 
HETATM   24  N   UNL     1      42.650 -15.280   5.059  1.00  0.00    -0.240 N 
HETATM   25  C   UNL     1      40.533 -14.711   3.232  1.00  0.00     0.081 C 
HETATM   26  H   UNL     1      40.767 -12.784   4.030  1.00  0.00     0.161 HD
HETATM   27  C   UNL     1      40.969 -14.647   1.774  1.00  0.00     0.032 C 
HETATM   28  C   UNL     1      40.657 -16.092   3.889  1.00  0.00     0.061 C 
HETATM   29  C   UNL     1      42.054 -16.439   4.428  1.00  0.00     0.221 C 
HETATM   30  N   UNL     1      43.568 -15.415   6.031  1.00  0.00    -0.181 NA
HETATM   31  C   UNL     1      43.831 -14.152   6.379  1.00  0.00     0.160 A 
BRANCH  29  32
HETATM   32  C   UNL     1      42.991 -17.015   3.392  1.00  0.00     0.409 C 
HETATM   33  F   UNL     1      43.897 -17.874   3.896  1.00  0.00    -0.169 F 
HETATM   34  F   UNL     1      42.332 -17.657   2.401  1.00  0.00    -0.169 F 
HETATM   35  F   UNL     1      43.690 -16.015   2.794  1.00  0.00    -0.169 F 
ENDBRANCH  29  32
ENDBRANCH   1  21
TORSDOF 8
ENDMDL
MODEL 7
REMARK VINA RESULT:      -7.2      4.413      9.400
REMARK  8 active torsions:
REMARK  status: ('A' for Active; 'I' for Inactive)
REMARK    1  A    between atoms: C_8  and  C_9 
REMARK       I    between atoms: C_9  and  N_10 
REMARK    2  A    between atoms: N_10  and  N_11 
REMARK    3  A    between atoms: N_11  and  C_12 
REMARK    4  A    between atoms: C_12  and  N_13 
REMARK    5  A    between atoms: N_13  and  C_14 
REMARK    6  A    between atoms: C_15  and  O_16 
REMARK    7  A    between atoms: C_19  and  O_20 
REMARK    8  A    between atoms: C_26  and  C_27 
ROOT
HETATM    1  C   UNL     1      43.017 -13.040   6.544  1.00  0.00     0.275 C 
HETATM    2  N   UNL     1      42.972 -11.781   7.113  1.00  0.00    -0.263 N 
HETATM    3  O   UNL     1      43.663 -13.964   7.033  1.00  0.00    -0.266 OA
HETATM    4  H   UNL     1      42.709 -10.986   6.533  1.00  0.00     0.190 HD
ENDROOT
BRANCH   2   5
HETATM    5  N   UNL     1      43.792 -11.512   8.223  1.00  0.00    -0.273 N 
HETATM    6  H   UNL     1      44.210 -12.347   8.638  1.00  0.00     0.189 HD
BRANCH   5   7
HETATM    7  C   UNL     1      44.509 -10.346   8.296  1.00  0.00     0.191 C 
HETATM    8  S   UNL     1      46.091 -10.174   7.758  1.00  0.00    -0.039 SA
BRANCH   7   9
HETATM    9  N   UNL     1      43.904  -9.269   8.870  1.00  0.00    -0.330 N 
HETATM   10  H   UNL     1      43.965  -8.413   8.322  1.00  0.00     0.168 HD
BRANCH   9  11
HETATM   11  C   UNL     1      43.192  -9.111  10.081  1.00  0.00     0.068 A 
HETATM   12  C   UNL     1      41.789  -9.261  10.021  1.00  0.00     0.097 A 
HETATM   13  C   UNL     1      41.017  -9.125  11.183  1.00  0.00     0.075 A 
HETATM   14  C   UNL     1      41.634  -8.859  12.407  1.00  0.00     0.070 A 
HETATM   15  C   UNL     1      43.024  -8.757  12.467  1.00  0.00     0.039 A 
HETATM   16  C   UNL     1      43.802  -8.887  11.314  1.00  0.00     0.035 A 
BRANCH  12  17
HETATM   17  O   UNL     1      41.283  -9.535   8.770  1.00  0.00    -0.354 OA
HETATM   18  C   UNL     1      40.094  -8.857   8.381  1.00  0.00     0.210 C 
ENDBRANCH  12  17
BRANCH  14  19
HETATM   19  O   UNL     1      41.002  -8.705  13.610  1.00  0.00    -0.356 OA
HETATM   20  C   UNL     1      41.828  -8.541  14.756  1.00  0.00     0.210 C 
ENDBRANCH  14  19
ENDBRANCH   9  11
ENDBRANCH   7   9
ENDBRANCH   5   7
ENDBRANCH   2   5
BRANCH   1  21
HETATM   21  C   UNL     1      42.277 -13.164   5.306  1.00  0.00     0.098 A 
HETATM   22  C   UNL     1      42.435 -14.078   4.279  1.00  0.00     0.138 A 
HETATM   23  N   UNL     1      43.337 -15.065   4.051  1.00  0.00    -0.370 N 
HETATM   24  N   UNL     1      41.443 -13.796   3.376  1.00  0.00    -0.240 N 
HETATM   25  C   UNL     1      43.288 -15.912   2.864  1.00  0.00     0.081 C 
HETATM   26  H   UNL     1      44.219 -15.106   4.564  1.00  0.00     0.161 HD
HETATM   27  C   UNL     1      42.774 -17.294   3.248  1.00  0.00     0.032 C 
HETATM   28  C   UNL     1      42.531 -15.232   1.716  1.00  0.00     0.061 C 
HETATM   29  C   UNL     1      41.245 -14.495   2.123  1.00  0.00     0.221 C 
HETATM   30  N   UNL     1      40.725 -12.702   3.680  1.00  0.00    -0.181 NA
HETATM   31  C   UNL     1      41.222 -12.331   4.864  1.00  0.00     0.160 A 
BRANCH  29  32
HETATM   32  C   UNL     1      40.024 -15.382   2.202  1.00  0.00     0.409 C 
HETATM   33  F   UNL     1      39.947 -16.291   1.211  1.00  0.00    -0.169 F 
HETATM   34  F   UNL     1      39.947 -16.052   3.373  1.00  0.00    -0.169 F 
HETATM   35  F   UNL     1      38.897 -14.624   2.126  1.00  0.00    -0.169 F 
ENDBRANCH  29  32
ENDBRANCH   1  21
TORSDOF 8
ENDMDL
MODEL 8
REMARK VINA RESULT:      -7.1      2.028      2.940
REMARK  8 active torsions:
REMARK  status: ('A' for Active; 'I' for Inactive)
REMARK    1  A    between atoms: C_8  and  C_9 
REMARK       I    between atoms: C_9  and  N_10 
REMARK    2  A    between atoms: N_10  and  N_11 
REMARK    3  A    between atoms: N_11  and  C_12 
REMARK    4  A    between atoms: C_12  and  N_13 
REMARK    5  A    between atoms: N_13  and  C_14 
REMARK    6  A    between atoms: C_15  and  O_16 
REMARK    7  A    between atoms: C_19  and  O_20 
REMARK    8  A    between atoms: C_26  and  C_27 
ROOT
HETATM    1  C   UNL     1      40.480 -10.466   6.640  1.00  0.00     0.275 C 
HETATM    2  N   UNL     1      40.483 -11.848   6.586  1.00  0.00    -0.263 N 
HETATM    3  O   UNL     1      39.640  -9.783   6.058  1.00  0.00    -0.266 OA
HETATM    4  H   UNL     1      41.346 -12.348   6.795  1.00  0.00     0.190 HD
ENDROOT
BRANCH   2   5
HETATM    5  N   UNL     1      39.566 -12.491   5.737  1.00  0.00    -0.273 N 
HETATM    6  H   UNL     1      38.622 -12.101   5.777  1.00  0.00     0.189 HD
BRANCH   5   7
HETATM    7  C   UNL     1      39.976 -13.027   4.543  1.00  0.00     0.191 C 
HETATM    8  S   UNL     1      40.499 -12.119   3.231  1.00  0.00    -0.039 SA
BRANCH   7   9
HETATM    9  N   UNL     1      39.925 -14.382   4.409  1.00  0.00    -0.330 N 
HETATM   10  H   UNL     1      38.995 -14.779   4.525  1.00  0.00     0.168 HD
BRANCH   9  11
HETATM   11  C   UNL     1      40.918 -15.347   4.125  1.00  0.00     0.068 A 
HETATM   12  C   UNL     1      40.856 -15.975   2.862  1.00  0.00     0.097 A 
HETATM   13  C   UNL     1      41.812 -16.937   2.507  1.00  0.00     0.075 A 
HETATM   14  C   UNL     1      42.837 -17.267   3.395  1.00  0.00     0.070 A 
HETATM   15  C   UNL     1      42.919 -16.611   4.624  1.00  0.00     0.039 A 
HETATM   16  C   UNL     1      41.970 -15.652   4.988  1.00  0.00     0.035 A 
BRANCH  12  17
HETATM   17  O   UNL     1      39.814 -15.569   2.058  1.00  0.00    -0.354 OA
HETATM   18  C   UNL     1      40.141 -15.056   0.772  1.00  0.00     0.210 C 
ENDBRANCH  12  17
BRANCH  14  19
HETATM   19  O   UNL     1      43.829 -18.182   3.175  1.00  0.00    -0.356 OA
HETATM   20  C   UNL     1      44.555 -18.632   4.312  1.00  0.00     0.210 C 
ENDBRANCH  14  19
ENDBRANCH   9  11
ENDBRANCH   7   9
ENDBRANCH   5   7
ENDBRANCH   2   5
BRANCH   1  21
HETATM   21  C   UNL     1      41.573  -9.894   7.399  1.00  0.00     0.098 A 
HETATM   22  C   UNL     1      41.543  -9.226   8.609  1.00  0.00     0.138 A 
HETATM   23  N   UNL     1      40.531  -8.826   9.420  1.00  0.00    -0.370 N 
HETATM   24  N   UNL     1      42.852  -8.951   8.914  1.00  0.00    -0.240 N 
HETATM   25  C   UNL     1      40.765  -8.121  10.675  1.00  0.00     0.081 C 
HETATM   26  H   UNL     1      39.569  -8.782   9.083  1.00  0.00     0.161 HD
HETATM   27  C   UNL     1      40.521  -9.070  11.842  1.00  0.00     0.032 C 
HETATM   28  C   UNL     1      42.129  -7.419  10.683  1.00  0.00     0.061 C 
HETATM   29  C   UNL     1      43.291  -8.234  10.092  1.00  0.00     0.221 C 
HETATM   30  N   UNL     1      43.718  -9.287   7.943  1.00  0.00    -0.181 NA
HETATM   31  C   UNL     1      42.940  -9.877   7.031  1.00  0.00     0.160 A 
BRANCH  29  32
HETATM   32  C   UNL     1      43.943  -9.180  11.073  1.00  0.00     0.409 C 
HETATM   33  F   UNL     1      43.385 -10.406  11.099  1.00  0.00    -0.169 F 
HETATM   34  F   UNL     1      45.264  -9.341  10.834  1.00  0.00    -0.169 F 
HETATM   35  F   UNL     1      43.845  -8.680  12.333  1.00  0.00    -0.169 F 
ENDBRANCH  29  32
ENDBRANCH   1  21
TORSDOF 8
ENDMDL
MODEL 9
REMARK VINA RESULT:      -7.0      6.210      8.542
REMARK  8 active torsions:
REMARK  status: ('A' for Active; 'I' for Inactive)
REMARK    1  A    between atoms: C_8  and  C_9 
REMARK       I    between atoms: C_9  and  N_10 
REMARK    2  A    between atoms: N_10  and  N_11 
REMARK    3  A    between atoms: N_11  and  C_12 
REMARK    4  A    between atoms: C_12  and  N_13 
REMARK    5  A    between atoms: N_13  and  C_14 
REMARK    6  A    between atoms: C_15  and  O_16 
REMARK    7  A    between atoms: C_19  and  O_20 
REMARK    8  A    between atoms: C_26  and  C_27 
ROOT
HETATM    1  C   UNL     1      39.631 -14.602   0.382  1.00  0.00     0.275 C 
HETATM    2  N   UNL     1      39.550 -13.874   1.555  1.00  0.00    -0.263 N 
HETATM    3  O   UNL     1      39.730 -15.828   0.369  1.00  0.00    -0.266 OA
HETATM    4  H   UNL     1      39.792 -12.884   1.539  1.00  0.00     0.190 HD
ENDROOT
BRANCH   2   5
HETATM    5  N   UNL     1      39.711 -14.547   2.779  1.00  0.00    -0.273 N 
HETATM    6  H   UNL     1      39.583 -15.559   2.713  1.00  0.00     0.189 HD
BRANCH   5   7
HETATM    7  C   UNL     1      40.592 -14.083   3.721  1.00  0.00     0.191 C 
HETATM    8  S   UNL     1      40.180 -13.026   4.959  1.00  0.00    -0.039 SA
BRANCH   7   9
HETATM    9  N   UNL     1      41.889 -14.486   3.624  1.00  0.00    -0.330 N 
HETATM   10  H   UNL     1      42.560 -13.723   3.550  1.00  0.00     0.168 HD
BRANCH   9  11
HETATM   11  C   UNL     1      42.491 -15.766   3.619  1.00  0.00     0.068 A 
HETATM   12  C   UNL     1      42.973 -16.249   4.855  1.00  0.00     0.097 A 
HETATM   13  C   UNL     1      43.575 -17.514   4.928  1.00  0.00     0.075 A 
HETATM   14  C   UNL     1      43.684 -18.305   3.783  1.00  0.00     0.070 A 
HETATM   15  C   UNL     1      43.165 -17.840   2.575  1.00  0.00     0.039 A 
HETATM   16  C   UNL     1      42.566 -16.581   2.490  1.00  0.00     0.035 A 
BRANCH  12  17
HETATM   17  O   UNL     1      42.805 -15.396   5.922  1.00  0.00    -0.354 OA
HETATM   18  C   UNL     1      42.013 -15.857   7.010  1.00  0.00     0.210 C 
ENDBRANCH  12  17
BRANCH  14  19
HETATM   19  O   UNL     1      44.245 -19.551   3.717  1.00  0.00    -0.356 OA
HETATM   20  C   UNL     1      44.331 -20.285   4.932  1.00  0.00     0.210 C 
ENDBRANCH  14  19
ENDBRANCH   9  11
ENDBRANCH   7   9
ENDBRANCH   5   7
ENDBRANCH   2   5
BRANCH   1  21
HETATM   21  C   UNL     1      39.633 -13.799  -0.823  1.00  0.00     0.098 A 
HETATM   22  C   UNL     1      38.868 -12.691  -1.138  1.00  0.00     0.138 A 
HETATM   23  N   UNL     1      37.850 -12.059  -0.501  1.00  0.00    -0.370 N 
HETATM   24  N   UNL     1      39.308 -12.274  -2.368  1.00  0.00    -0.240 N 
HETATM   25  C   UNL     1      37.191 -10.881  -1.055  1.00  0.00     0.081 C 
HETATM   26  H   UNL     1      37.343 -12.507   0.263  1.00  0.00     0.161 HD
HETATM   27  C   UNL     1      37.641  -9.642  -0.290  1.00  0.00     0.032 C 
HETATM   28  C   UNL     1      37.361 -10.802  -2.577  1.00  0.00     0.061 C 
HETATM   29  C   UNL     1      38.764 -11.150  -3.101  1.00  0.00     0.221 C 
HETATM   30  N   UNL     1      40.219 -13.089  -2.925  1.00  0.00    -0.181 NA
HETATM   31  C   UNL     1      40.430 -14.005  -1.975  1.00  0.00     0.160 A 
BRANCH  29  32
HETATM   32  C   UNL     1      39.733  -9.991  -3.086  1.00  0.00     0.409 C 
HETATM   33  F   UNL     1      40.452  -9.898  -1.950  1.00  0.00    -0.169 F 
HETATM   34  F   UNL     1      40.608 -10.037  -4.116  1.00  0.00    -0.169 F 
HETATM   35  F   UNL     1      39.056  -8.819  -3.217  1.00  0.00    -0.169 F 
ENDBRANCH  29  32
ENDBRANCH   1  21
TORSDOF 8
ENDMDL
MODEL 10
REMARK VINA RESULT:      -6.9      2.283      3.346
REMARK  8 active torsions:
REMARK  status: ('A' for Active; 'I' for Inactive)
REMARK    1  A    between atoms: C_8  and  C_9 
REMARK       I    between atoms: C_9  and  N_10 
REMARK    2  A    between atoms: N_10  and  N_11 
REMARK    3  A    between atoms: N_11  and  C_12 
REMARK    4  A    between atoms: C_12  and  N_13 
REMARK    5  A    between atoms: N_13  and  C_14 
REMARK    6  A    between atoms: C_15  and  O_16 
REMARK    7  A    between atoms: C_19  and  O_20 
REMARK    8  A    between atoms: C_26  and  C_27 
ROOT
HETATM    1  C   UNL     1      43.400 -11.134   7.259  1.00  0.00     0.275 C 
HETATM    2  N   UNL     1      43.133 -11.522   5.959  1.00  0.00    -0.263 N 
HETATM    3  O   UNL     1      44.083 -11.812   8.024  1.00  0.00    -0.266 OA
HETATM    4  H   UNL     1      42.328 -11.122   5.479  1.00  0.00     0.190 HD
ENDROOT
BRANCH   2   5
HETATM    5  N   UNL     1      43.556 -12.794   5.534  1.00  0.00    -0.273 N 
HETATM    6  H   UNL     1      44.414 -13.116   5.987  1.00  0.00     0.189 HD
BRANCH   5   7
HETATM    7  C   UNL     1      42.643 -13.747   5.165  1.00  0.00     0.191 C 
HETATM    8  S   UNL     1      41.164 -13.982   5.925  1.00  0.00    -0.039 SA
BRANCH   7   9
HETATM    9  N   UNL     1      42.974 -14.573   4.133  1.00  0.00    -0.330 N 
HETATM   10  H   UNL     1      43.049 -14.106   3.231  1.00  0.00     0.168 HD
BRANCH   9  11
HETATM   11  C   UNL     1      43.251 -15.958   4.074  1.00  0.00     0.068 A 
HETATM   12  C   UNL     1      42.948 -16.619   2.864  1.00  0.00     0.097 A 
HETATM   13  C   UNL     1      43.202 -17.992   2.730  1.00  0.00     0.075 A 
HETATM   14  C   UNL     1      43.771 -18.705   3.787  1.00  0.00     0.070 A 
HETATM   15  C   UNL     1      44.109 -18.037   4.964  1.00  0.00     0.039 A 
HETATM   16  C   UNL     1      43.858 -16.670   5.109  1.00  0.00     0.035 A 
BRANCH  12  17
HETATM   17  O   UNL     1      42.402 -15.822   1.883  1.00  0.00    -0.354 OA
HETATM   18  C   UNL     1      40.987 -15.829   1.745  1.00  0.00     0.210 C 
ENDBRANCH  12  17
BRANCH  14  19
HETATM   19  O   UNL     1      44.070 -20.040   3.788  1.00  0.00    -0.356 OA
HETATM   20  C   UNL     1      44.397 -20.627   5.041  1.00  0.00     0.210 C 
ENDBRANCH  14  19
ENDBRANCH   9  11
ENDBRANCH   7   9
ENDBRANCH   5   7
ENDBRANCH   2   5
BRANCH   1  21
HETATM   21  C   UNL     1      42.770  -9.891   7.654  1.00  0.00     0.098 A 
HETATM   22  C   UNL     1      42.520  -9.401   8.922  1.00  0.00     0.138 A 
HETATM   23  N   UNL     1      42.691  -9.920  10.165  1.00  0.00    -0.370 N 
HETATM   24  N   UNL     1      41.966  -8.161   8.738  1.00  0.00    -0.240 N 
HETATM   25  C   UNL     1      42.341  -9.185  11.375  1.00  0.00     0.081 C 
HETATM   26  H   UNL     1      42.843 -10.919  10.305  1.00  0.00     0.161 HD
HETATM   27  C   UNL     1      43.613  -8.697  12.058  1.00  0.00     0.032 C 
HETATM   28  C   UNL     1      41.296  -8.098  11.094  1.00  0.00     0.061 C 
HETATM   29  C   UNL     1      41.520  -7.289   9.805  1.00  0.00     0.221 C 
HETATM   30  N   UNL     1      41.732  -7.855   7.451  1.00  0.00    -0.181 NA
HETATM   31  C   UNL     1      42.241  -8.901   6.792  1.00  0.00     0.160 A 
BRANCH  29  32
HETATM   32  C   UNL     1      42.468  -6.123   9.964  1.00  0.00     0.409 C 
HETATM   33  F   UNL     1      42.135  -5.047   9.227  1.00  0.00    -0.169 F 
HETATM   34  F   UNL     1      42.574  -5.717  11.249  1.00  0.00    -0.169 F 
HETATM   35  F   UNL     1      43.719  -6.489   9.579  1.00  0.00    -0.169 F 
ENDBRANCH  29  32
ENDBRANCH   1  21
TORSDOF 8
ENDMDL
