MODEL 1
REMARK VINA RESULT:      -8.3      0.000      0.000
REMARK  2 active torsions:
REMARK  status: ('A' for Active; 'I' for Inactive)
REMARK    1  A    between atoms: C_9  and  C_11 
REMARK    2  A    between atoms: C_9  and  O_10 
ROOT
HETATM    1  C   UNL     1      45.691 -11.409   6.283  1.00  0.00     0.048 C 
HETATM    2  C   UNL     1      44.335 -12.054   6.323  1.00  0.00    -0.061 A 
HETATM    3  C   UNL     1      44.201 -13.409   6.663  1.00  0.00     0.020 A 
HETATM    4  C   UNL     1      42.932 -13.973   6.660  1.00  0.00     0.018 A 
HETATM    5  C   UNL     1      41.817 -13.196   6.344  1.00  0.00     0.045 A 
HETATM    6  N   UNL     1      40.658 -13.951   6.425  1.00  0.00    -0.323 N 
HETATM    7  C   UNL     1      40.932 -15.271   6.792  1.00  0.00     0.266 A 
HETATM    8  O   UNL     1      40.076 -16.126   6.959  1.00  0.00    -0.269 OA
HETATM    9  C   UNL     1      42.493 -15.388   6.983  1.00  0.00     0.198 A 
HETATM   10  C   UNL     1      41.914 -11.863   6.011  1.00  0.00     0.031 A 
HETATM   11  C   UNL     1      43.190 -11.293   5.999  1.00  0.00     0.009 A 
HETATM   12  H   UNL     1      39.722 -13.621   6.249  1.00  0.00     0.169 HD
ENDROOT
BRANCH   9  13
HETATM   13  C   UNL     1      43.143 -16.269   5.943  1.00  0.00     0.018 A 
HETATM   14  C   UNL     1      42.738 -16.442   4.568  1.00  0.00     0.002 A 
HETATM   15  C   UNL     1      43.592 -17.382   3.988  1.00  0.00     0.043 A 
HETATM   16  C   UNL     1      41.715 -15.896   3.764  1.00  0.00     0.014 A 
HETATM   17  C   UNL     1      43.470 -17.805   2.660  1.00  0.00     0.030 A 
HETATM   18  N   UNL     1      44.497 -17.755   4.951  1.00  0.00    -0.365 N 
HETATM   19  C   UNL     1      42.446 -17.248   1.890  1.00  0.00     0.002 A 
HETATM   20  C   UNL     1      41.579 -16.304   2.432  1.00  0.00     0.001 A 
HETATM   21  H   UNL     1      45.242 -18.422   4.806  1.00  0.00     0.165 HD
HETATM   22  C   UNL     1      44.238 -17.103   6.123  1.00  0.00     0.100 A 
ENDBRANCH   9  13
BRANCH   9  23
HETATM   23  O   UNL     1      42.841 -15.710   8.321  1.00  0.00    -0.371 OA
HETATM   24  H   UNL     1      42.290 -15.149   8.891  1.00  0.00     0.212 HD
ENDBRANCH   9  23
TORSDOF 2
ENDMDL
MODEL 2
REMARK VINA RESULT:      -8.1      1.859      5.149
REMARK  2 active torsions:
REMARK  status: ('A' for Active; 'I' for Inactive)
REMARK    1  A    between atoms: C_9  and  C_11 
REMARK    2  A    between atoms: C_9  and  O_10 
ROOT
HETATM    1  C   UNL     1      44.473 -18.834   2.991  1.00  0.00     0.048 C 
HETATM    2  C   UNL     1      43.666 -18.148   4.056  1.00  0.00    -0.061 A 
HETATM    3  C   UNL     1      42.794 -17.100   3.723  1.00  0.00     0.020 A 
HETATM    4  C   UNL     1      42.087 -16.474   4.741  1.00  0.00     0.018 A 
HETATM    5  C   UNL     1      42.234 -16.897   6.062  1.00  0.00     0.045 A 
HETATM    6  N   UNL     1      41.423 -16.153   6.904  1.00  0.00    -0.323 N 
HETATM    7  C   UNL     1      40.699 -15.189   6.199  1.00  0.00     0.266 A 
HETATM    8  O   UNL     1      39.893 -14.428   6.712  1.00  0.00    -0.269 OA
HETATM    9  C   UNL     1      41.089 -15.334   4.677  1.00  0.00     0.198 A 
HETATM   10  C   UNL     1      43.077 -17.926   6.422  1.00  0.00     0.031 A 
HETATM   11  C   UNL     1      43.801 -18.551   5.403  1.00  0.00     0.009 A 
HETATM   12  H   UNL     1      41.344 -16.266   7.903  1.00  0.00     0.169 HD
ENDROOT
BRANCH   9  13
HETATM   13  C   UNL     1      41.857 -14.142   4.158  1.00  0.00     0.018 A 
HETATM   14  C   UNL     1      42.849 -13.366   4.863  1.00  0.00     0.002 A 
HETATM   15  C   UNL     1      43.261 -12.333   4.019  1.00  0.00     0.043 A 
HETATM   16  C   UNL     1      43.428 -13.438   6.148  1.00  0.00     0.014 A 
HETATM   17  C   UNL     1      44.208 -11.373   4.394  1.00  0.00     0.030 A 
HETATM   18  N   UNL     1      42.575 -12.477   2.838  1.00  0.00    -0.365 N 
HETATM   19  C   UNL     1      44.760 -11.469   5.674  1.00  0.00     0.002 A 
HETATM   20  C   UNL     1      44.378 -12.488   6.541  1.00  0.00     0.001 A 
HETATM   21  H   UNL     1      42.681 -11.869   2.038  1.00  0.00     0.165 HD
HETATM   22  C   UNL     1      41.730 -13.549   2.908  1.00  0.00     0.100 A 
ENDBRANCH   9  13
BRANCH   9  23
HETATM   23  O   UNL     1      39.978 -15.707   3.878  1.00  0.00    -0.371 OA
HETATM   24  H   UNL     1      40.120 -15.307   3.005  1.00  0.00     0.212 HD
ENDBRANCH   9  23
TORSDOF 2
ENDMDL
MODEL 3
REMARK VINA RESULT:      -8.1      2.394      5.074
REMARK  2 active torsions:
REMARK  status: ('A' for Active; 'I' for Inactive)
REMARK    1  A    between atoms: C_9  and  C_11 
REMARK    2  A    between atoms: C_9  and  O_10 
ROOT
HETATM    1  C   UNL     1      43.597 -19.490   1.884  1.00  0.00     0.048 C 
HETATM    2  C   UNL     1      43.463 -18.547   3.046  1.00  0.00    -0.061 A 
HETATM    3  C   UNL     1      42.435 -17.592   3.073  1.00  0.00     0.020 A 
HETATM    4  C   UNL     1      42.365 -16.721   4.152  1.00  0.00     0.018 A 
HETATM    5  C   UNL     1      43.289 -16.814   5.192  1.00  0.00     0.045 A 
HETATM    6  N   UNL     1      43.020 -15.869   6.169  1.00  0.00    -0.323 N 
HETATM    7  C   UNL     1      41.910 -15.090   5.836  1.00  0.00     0.266 A 
HETATM    8  O   UNL     1      41.454 -14.209   6.548  1.00  0.00    -0.269 OA
HETATM    9  C   UNL     1      41.377 -15.608   4.445  1.00  0.00     0.198 A 
HETATM   10  C   UNL     1      44.307 -17.743   5.199  1.00  0.00     0.031 A 
HETATM   11  C   UNL     1      44.391 -18.614   4.109  1.00  0.00     0.009 A 
HETATM   12  H   UNL     1      43.539 -15.734   7.024  1.00  0.00     0.169 HD
ENDROOT
BRANCH   9  13
HETATM   13  C   UNL     1      41.556 -14.597   3.339  1.00  0.00     0.018 A 
HETATM   14  C   UNL     1      40.957 -14.621   2.026  1.00  0.00     0.002 A 
HETATM   15  C   UNL     1      41.437 -13.517   1.318  1.00  0.00     0.043 A 
HETATM   16  C   UNL     1      40.058 -15.487   1.367  1.00  0.00     0.014 A 
HETATM   17  C   UNL     1      41.072 -13.243  -0.006  1.00  0.00     0.030 A 
HETATM   18  N   UNL     1      42.274 -12.829   2.160  1.00  0.00    -0.365 N 
HETATM   19  C   UNL     1      40.184 -14.121  -0.632  1.00  0.00     0.002 A 
HETATM   20  C   UNL     1      39.680 -15.228   0.044  1.00  0.00     0.001 A 
HETATM   21  H   UNL     1      42.760 -11.978   1.913  1.00  0.00     0.165 HD
HETATM   22  C   UNL     1      42.360 -13.464   3.367  1.00  0.00     0.100 A 
ENDBRANCH   9  13
BRANCH   9  23
HETATM   23  O   UNL     1      40.064 -16.140   4.544  1.00  0.00    -0.371 OA
HETATM   24  H   UNL     1      40.158 -17.037   4.902  1.00  0.00     0.212 HD
ENDBRANCH   9  23
TORSDOF 2
ENDMDL
MODEL 4
REMARK VINA RESULT:      -8.0      2.047      2.621
REMARK  2 active torsions:
REMARK  status: ('A' for Active; 'I' for Inactive)
REMARK    1  A    between atoms: C_9  and  C_11 
REMARK    2  A    between atoms: C_9  and  O_10 
ROOT
HETATM    1  C   UNL     1      44.815 -11.309   6.312  1.00  0.00     0.048 C 
HETATM    2  C   UNL     1      43.935 -12.027   5.329  1.00  0.00    -0.061 A 
HETATM    3  C   UNL     1      43.053 -13.028   5.763  1.00  0.00     0.020 A 
HETATM    4  C   UNL     1      42.277 -13.687   4.817  1.00  0.00     0.018 A 
HETATM    5  C   UNL     1      42.367 -13.340   3.469  1.00  0.00     0.045 A 
HETATM    6  N   UNL     1      41.494 -14.104   2.711  1.00  0.00    -0.323 N 
HETATM    7  C   UNL     1      40.781 -15.005   3.504  1.00  0.00     0.266 A 
HETATM    8  O   UNL     1      39.929 -15.768   3.075  1.00  0.00    -0.269 OA
HETATM    9  C   UNL     1      41.253 -14.791   4.994  1.00  0.00     0.198 A 
HETATM   10  C   UNL     1      43.219 -12.359   3.011  1.00  0.00     0.031 A 
HETATM   11  C   UNL     1      44.012 -11.702   3.956  1.00  0.00     0.009 A 
HETATM   12  H   UNL     1      41.366 -14.043   1.712  1.00  0.00     0.169 HD
ENDROOT
BRANCH   9  13
HETATM   13  C   UNL     1      42.013 -15.975   5.540  1.00  0.00     0.018 A 
HETATM   14  C   UNL     1      42.758 -16.957   4.789  1.00  0.00     0.002 A 
HETATM   15  C   UNL     1      43.256 -17.897   5.694  1.00  0.00     0.043 A 
HETATM   16  C   UNL     1      43.047 -17.142   3.420  1.00  0.00     0.014 A 
HETATM   17  C   UNL     1      44.015 -19.006   5.301  1.00  0.00     0.030 A 
HETATM   18  N   UNL     1      42.859 -17.502   6.947  1.00  0.00    -0.365 N 
HETATM   19  C   UNL     1      44.281 -19.163   3.939  1.00  0.00     0.002 A 
HETATM   20  C   UNL     1      43.807 -18.243   3.008  1.00  0.00     0.001 A 
HETATM   21  H   UNL     1      43.085 -17.995   7.800  1.00  0.00     0.165 HD
HETATM   22  C   UNL     1      42.111 -16.361   6.871  1.00  0.00     0.100 A 
ENDBRANCH   9  13
BRANCH   9  23
HETATM   23  O   UNL     1      40.194 -14.340   5.826  1.00  0.00    -0.371 OA
HETATM   24  H   UNL     1      40.143 -14.965   6.567  1.00  0.00     0.212 HD
ENDBRANCH   9  23
TORSDOF 2
ENDMDL
MODEL 5
REMARK VINA RESULT:      -7.7      2.169      3.107
REMARK  2 active torsions:
REMARK  status: ('A' for Active; 'I' for Inactive)
REMARK    1  A    between atoms: C_9  and  C_11 
REMARK    2  A    between atoms: C_9  and  O_10 
ROOT
HETATM    1  C   UNL     1      44.782 -12.301   6.766  1.00  0.00     0.048 C 
HETATM    2  C   UNL     1      43.748 -12.339   5.677  1.00  0.00    -0.061 A 
HETATM    3  C   UNL     1      43.014 -13.510   5.433  1.00  0.00     0.020 A 
HETATM    4  C   UNL     1      42.087 -13.511   4.399  1.00  0.00     0.018 A 
HETATM    5  C   UNL     1      41.884 -12.361   3.636  1.00  0.00     0.045 A 
HETATM    6  N   UNL     1      40.905 -12.578   2.679  1.00  0.00    -0.323 N 
HETATM    7  C   UNL     1      40.406 -13.881   2.744  1.00  0.00     0.266 A 
HETATM    8  O   UNL     1      39.515 -14.308   2.026  1.00  0.00    -0.269 OA
HETATM    9  C   UNL     1      41.165 -14.614   3.916  1.00  0.00     0.198 A 
HETATM   10  C   UNL     1      42.584 -11.194   3.852  1.00  0.00     0.031 A 
HETATM   11  C   UNL     1      43.527 -11.192   4.883  1.00  0.00     0.009 A 
HETATM   12  H   UNL     1      40.572 -11.903   2.007  1.00  0.00     0.169 HD
ENDROOT
BRANCH   9  13
HETATM   13  C   UNL     1      42.067 -15.719   3.424  1.00  0.00     0.018 A 
HETATM   14  C   UNL     1      42.668 -16.772   4.208  1.00  0.00     0.002 A 
HETATM   15  C   UNL     1      43.461 -17.540   3.353  1.00  0.00     0.043 A 
HETATM   16  C   UNL     1      42.620 -17.138   5.570  1.00  0.00     0.014 A 
HETATM   17  C   UNL     1      44.209 -18.640   3.790  1.00  0.00     0.030 A 
HETATM   18  N   UNL     1      43.339 -17.003   2.096  1.00  0.00    -0.365 N 
HETATM   19  C   UNL     1      44.144 -18.975   5.145  1.00  0.00     0.002 A 
HETATM   20  C   UNL     1      43.359 -18.237   6.025  1.00  0.00     0.001 A 
HETATM   21  H   UNL     1      43.801 -17.364   1.273  1.00  0.00     0.165 HD
HETATM   22  C   UNL     1      42.515 -15.913   2.123  1.00  0.00     0.100 A 
ENDBRANCH   9  13
BRANCH   9  23
HETATM   23  O   UNL     1      40.283 -14.999   4.959  1.00  0.00    -0.371 OA
HETATM   24  H   UNL     1      40.448 -14.391   5.697  1.00  0.00     0.212 HD
ENDBRANCH   9  23
TORSDOF 2
ENDMDL
MODEL 6
REMARK VINA RESULT:      -7.7      3.844      5.833
REMARK  2 active torsions:
REMARK  status: ('A' for Active; 'I' for Inactive)
REMARK    1  A    between atoms: C_9  and  C_11 
REMARK    2  A    between atoms: C_9  and  O_10 
ROOT
HETATM    1  C   UNL     1      43.153 -17.678   2.171  1.00  0.00     0.048 C 
HETATM    2  C   UNL     1      42.572 -16.523   2.935  1.00  0.00    -0.061 A 
HETATM    3  C   UNL     1      41.529 -15.761   2.388  1.00  0.00     0.020 A 
HETATM    4  C   UNL     1      41.039 -14.684   3.115  1.00  0.00     0.018 A 
HETATM    5  C   UNL     1      41.566 -14.386   4.372  1.00  0.00     0.045 A 
HETATM    6  N   UNL     1      40.918 -13.293   4.925  1.00  0.00    -0.323 N 
HETATM    7  C   UNL     1      39.931 -12.797   4.071  1.00  0.00     0.266 A 
HETATM    8  O   UNL     1      39.201 -11.856   4.343  1.00  0.00    -0.269 OA
HETATM    9  C   UNL     1      39.933 -13.702   2.780  1.00  0.00     0.198 A 
HETATM   10  C   UNL     1      42.586 -15.117   4.940  1.00  0.00     0.031 A 
HETATM   11  C   UNL     1      43.092 -16.194   4.207  1.00  0.00     0.009 A 
HETATM   12  H   UNL     1      41.110 -12.884   5.827  1.00  0.00     0.169 HD
ENDROOT
BRANCH   9  13
HETATM   13  C   UNL     1      40.399 -12.961   1.550  1.00  0.00     0.018 A 
HETATM   14  C   UNL     1      40.225 -13.357   0.173  1.00  0.00     0.002 A 
HETATM   15  C   UNL     1      40.854 -12.401  -0.628  1.00  0.00     0.043 A 
HETATM   16  C   UNL     1      39.600 -14.447  -0.470  1.00  0.00     0.014 A 
HETATM   17  C   UNL     1      40.896 -12.484  -2.025  1.00  0.00     0.030 A 
HETATM   18  N   UNL     1      41.371 -11.447   0.212  1.00  0.00    -0.365 N 
HETATM   19  C   UNL     1      40.271 -13.577  -2.631  1.00  0.00     0.002 A 
HETATM   20  C   UNL     1      39.629 -14.546  -1.866  1.00  0.00     0.001 A 
HETATM   21  H   UNL     1      41.876 -10.627  -0.096  1.00  0.00     0.165 HD
HETATM   22  C   UNL     1      41.113 -11.770   1.514  1.00  0.00     0.100 A 
ENDBRANCH   9  13
BRANCH   9  23
HETATM   23  O   UNL     1      38.704 -14.394   2.615  1.00  0.00    -0.371 OA
HETATM   24  H   UNL     1      38.222 -14.300   3.452  1.00  0.00     0.212 HD
ENDBRANCH   9  23
TORSDOF 2
ENDMDL
MODEL 7
REMARK VINA RESULT:      -7.6      1.352      5.275
REMARK  2 active torsions:
REMARK  status: ('A' for Active; 'I' for Inactive)
REMARK    1  A    between atoms: C_9  and  C_11 
REMARK    2  A    between atoms: C_9  and  O_10 
ROOT
HETATM    1  C   UNL     1      40.372 -16.046   1.521  1.00  0.00     0.048 C 
HETATM    2  C   UNL     1      41.350 -16.455   2.586  1.00  0.00    -0.061 A 
HETATM    3  C   UNL     1      41.251 -15.929   3.883  1.00  0.00     0.020 A 
HETATM    4  C   UNL     1      42.192 -16.312   4.830  1.00  0.00     0.018 A 
HETATM    5  C   UNL     1      43.199 -17.217   4.494  1.00  0.00     0.045 A 
HETATM    6  N   UNL     1      44.008 -17.473   5.590  1.00  0.00    -0.323 N 
HETATM    7  C   UNL     1      43.593 -16.753   6.712  1.00  0.00     0.266 A 
HETATM    8  O   UNL     1      44.125 -16.830   7.809  1.00  0.00    -0.269 OA
HETATM    9  C   UNL     1      42.328 -15.913   6.286  1.00  0.00     0.198 A 
HETATM   10  C   UNL     1      43.322 -17.755   3.232  1.00  0.00     0.031 A 
HETATM   11  C   UNL     1      42.385 -17.363   2.271  1.00  0.00     0.009 A 
HETATM   12  H   UNL     1      44.802 -18.095   5.608  1.00  0.00     0.169 HD
ENDROOT
BRANCH   9  13
HETATM   13  C   UNL     1      42.591 -14.426   6.283  1.00  0.00     0.018 A 
HETATM   14  C   UNL     1      41.619 -13.367   6.151  1.00  0.00     0.002 A 
HETATM   15  C   UNL     1      42.309 -12.153   6.153  1.00  0.00     0.043 A 
HETATM   16  C   UNL     1      40.215 -13.327   6.018  1.00  0.00     0.014 A 
HETATM   17  C   UNL     1      41.672 -10.914   6.021  1.00  0.00     0.030 A 
HETATM   18  N   UNL     1      43.642 -12.446   6.303  1.00  0.00    -0.365 N 
HETATM   19  C   UNL     1      40.281 -10.907   5.888  1.00  0.00     0.002 A 
HETATM   20  C   UNL     1      39.559 -12.097   5.888  1.00  0.00     0.001 A 
HETATM   21  H   UNL     1      44.377 -11.753   6.346  1.00  0.00     0.165 HD
HETATM   22  C   UNL     1      43.826 -13.798   6.376  1.00  0.00     0.100 A 
ENDBRANCH   9  13
BRANCH   9  23
HETATM   23  O   UNL     1      41.167 -16.300   7.006  1.00  0.00    -0.371 OA
HETATM   24  H   UNL     1      41.285 -17.237   7.232  1.00  0.00     0.212 HD
ENDBRANCH   9  23
TORSDOF 2
ENDMDL
MODEL 8
REMARK VINA RESULT:      -7.5      1.175      5.460
REMARK  2 active torsions:
REMARK  status: ('A' for Active; 'I' for Inactive)
REMARK    1  A    between atoms: C_9  and  C_11 
REMARK    2  A    between atoms: C_9  and  O_10 
ROOT
HETATM    1  C   UNL     1      40.219 -15.330   0.775  1.00  0.00     0.048 C 
HETATM    2  C   UNL     1      40.979 -15.752   2.000  1.00  0.00    -0.061 A 
HETATM    3  C   UNL     1      40.545 -15.363   3.276  1.00  0.00     0.020 A 
HETATM    4  C   UNL     1      41.293 -15.751   4.380  1.00  0.00     0.018 A 
HETATM    5  C   UNL     1      42.439 -16.529   4.215  1.00  0.00     0.045 A 
HETATM    6  N   UNL     1      43.013 -16.817   5.443  1.00  0.00    -0.323 N 
HETATM    7  C   UNL     1      42.290 -16.247   6.493  1.00  0.00     0.266 A 
HETATM    8  O   UNL     1      42.575 -16.381   7.673  1.00  0.00    -0.269 OA
HETATM    9  C   UNL     1      41.066 -15.483   5.856  1.00  0.00     0.198 A 
HETATM   10  C   UNL     1      42.890 -16.932   2.977  1.00  0.00     0.031 A 
HETATM   11  C   UNL     1      42.149 -16.533   1.861  1.00  0.00     0.009 A 
HETATM   12  H   UNL     1      43.845 -17.366   5.595  1.00  0.00     0.169 HD
ENDROOT
BRANCH   9  13
HETATM   13  C   UNL     1      41.164 -13.985   6.021  1.00  0.00     0.018 A 
HETATM   14  C   UNL     1      42.364 -13.200   6.177  1.00  0.00     0.002 A 
HETATM   15  C   UNL     1      41.983 -11.867   6.345  1.00  0.00     0.043 A 
HETATM   16  C   UNL     1      43.743 -13.499   6.201  1.00  0.00     0.014 A 
HETATM   17  C   UNL     1      42.902 -10.830   6.544  1.00  0.00     0.030 A 
HETATM   18  N   UNL     1      40.612 -11.826   6.274  1.00  0.00    -0.365 N 
HETATM   19  C   UNL     1      44.260 -11.158   6.567  1.00  0.00     0.002 A 
HETATM   20  C   UNL     1      44.678 -12.475   6.396  1.00  0.00     0.001 A 
HETATM   21  H   UNL     1      40.061 -10.983   6.356  1.00  0.00     0.165 HD
HETATM   22  C   UNL     1      40.109 -13.083   6.087  1.00  0.00     0.100 A 
ENDBRANCH   9  13
BRANCH   9  23
HETATM   23  O   UNL     1      39.824 -16.036   6.264  1.00  0.00    -0.371 OA
HETATM   24  H   UNL     1      39.249 -16.026   5.482  1.00  0.00     0.212 HD
ENDBRANCH   9  23
TORSDOF 2
ENDMDL
MODEL 9
REMARK VINA RESULT:      -7.5      1.988      2.681
REMARK  2 active torsions:
REMARK  status: ('A' for Active; 'I' for Inactive)
REMARK    1  A    between atoms: C_9  and  C_11 
REMARK    2  A    between atoms: C_9  and  O_10 
ROOT
HETATM    1  C   UNL     1      46.319 -10.823   7.286  1.00  0.00     0.048 C 
HETATM    2  C   UNL     1      44.830 -10.930   7.121  1.00  0.00    -0.061 A 
HETATM    3  C   UNL     1      44.250 -12.117   6.649  1.00  0.00     0.020 A 
HETATM    4  C   UNL     1      42.872 -12.165   6.485  1.00  0.00     0.018 A 
HETATM    5  C   UNL     1      42.087 -11.056   6.802  1.00  0.00     0.045 A 
HETATM    6  N   UNL     1      40.746 -11.330   6.584  1.00  0.00    -0.323 N 
HETATM    7  C   UNL     1      40.560 -12.628   6.104  1.00  0.00     0.266 A 
HETATM    8  O   UNL     1      39.468 -13.119   5.863  1.00  0.00    -0.269 OA
HETATM    9  C   UNL     1      41.985 -13.297   6.003  1.00  0.00     0.198 A 
HETATM   10  C   UNL     1      42.624  -9.877   7.271  1.00  0.00     0.031 A 
HETATM   11  C   UNL     1      44.012  -9.819   7.426  1.00  0.00     0.009 A 
HETATM   12  H   UNL     1      39.978 -10.696   6.741  1.00  0.00     0.169 HD
ENDROOT
BRANCH   9  13
HETATM   13  C   UNL     1      42.401 -13.568   4.577  1.00  0.00     0.018 A 
HETATM   14  C   UNL     1      42.648 -14.853   3.968  1.00  0.00     0.002 A 
HETATM   15  C   UNL     1      43.055 -14.628   2.651  1.00  0.00     0.043 A 
HETATM   16  C   UNL     1      42.576 -16.189   4.417  1.00  0.00     0.014 A 
HETATM   17  C   UNL     1      43.398 -15.662   1.772  1.00  0.00     0.030 A 
HETATM   18  N   UNL     1      43.037 -13.271   2.448  1.00  0.00    -0.365 N 
HETATM   19  C   UNL     1      43.319 -16.974   2.247  1.00  0.00     0.002 A 
HETATM   20  C   UNL     1      42.911 -17.237   3.552  1.00  0.00     0.001 A 
HETATM   21  H   UNL     1      43.281 -12.821   1.576  1.00  0.00     0.165 HD
HETATM   22  C   UNL     1      42.655 -12.625   3.589  1.00  0.00     0.100 A 
ENDBRANCH   9  13
BRANCH   9  23
HETATM   23  O   UNL     1      42.110 -14.413   6.871  1.00  0.00    -0.371 OA
HETATM   24  H   UNL     1      42.568 -15.104   6.365  1.00  0.00     0.212 HD
ENDBRANCH   9  23
TORSDOF 2
ENDMDL
MODEL 10
REMARK VINA RESULT:      -7.4      8.494     11.314
REMARK  2 active torsions:
REMARK  status: ('A' for Active; 'I' for Inactive)
REMARK    1  A    between atoms: C_9  and  C_11 
REMARK    2  A    between atoms: C_9  and  O_10 
ROOT
HETATM    1  C   UNL     1      43.459  -6.607   9.321  1.00  0.00     0.048 C 
HETATM    2  C   UNL     1      42.995  -7.732  10.202  1.00  0.00    -0.061 A 
HETATM    3  C   UNL     1      41.663  -7.791  10.639  1.00  0.00     0.020 A 
HETATM    4  C   UNL     1      41.283  -8.832  11.475  1.00  0.00     0.018 A 
HETATM    5  C   UNL     1      42.209  -9.806  11.851  1.00  0.00     0.045 A 
HETATM    6  N   UNL     1      41.612 -10.757  12.664  1.00  0.00    -0.323 N 
HETATM    7  C   UNL     1      40.263 -10.470  12.882  1.00  0.00     0.266 A 
HETATM    8  O   UNL     1      39.512 -11.173  13.541  1.00  0.00    -0.269 OA
HETATM    9  C   UNL     1      39.933  -9.146  12.091  1.00  0.00     0.198 A 
HETATM   10  C   UNL     1      43.522  -9.780  11.435  1.00  0.00     0.031 A 
HETATM   11  C   UNL     1      43.914  -8.727  10.605  1.00  0.00     0.009 A 
HETATM   12  H   UNL     1      42.066 -11.564  13.064  1.00  0.00     0.169 HD
ENDROOT
BRANCH   9  13
HETATM   13  C   UNL     1      39.617  -7.985  13.004  1.00  0.00     0.018 A 
HETATM   14  C   UNL     1      40.436  -7.466  14.072  1.00  0.00     0.002 A 
HETATM   15  C   UNL     1      39.733  -6.423  14.680  1.00  0.00     0.043 A 
HETATM   16  C   UNL     1      41.708  -7.792  14.590  1.00  0.00     0.014 A 
HETATM   17  C   UNL     1      40.230  -5.704  15.773  1.00  0.00     0.030 A 
HETATM   18  N   UNL     1      38.546  -6.288  14.004  1.00  0.00    -0.365 N 
HETATM   19  C   UNL     1      41.490  -6.053  16.265  1.00  0.00     0.002 A 
HETATM   20  C   UNL     1      42.223  -7.082  15.681  1.00  0.00     0.001 A 
HETATM   21  H   UNL     1      37.838  -5.601  14.224  1.00  0.00     0.165 HD
HETATM   22  C   UNL     1      38.460  -7.217  13.005  1.00  0.00     0.100 A 
ENDBRANCH   9  13
BRANCH   9  23
HETATM   23  O   UNL     1      38.973  -9.364  11.068  1.00  0.00    -0.371 OA
HETATM   24  H   UNL     1      39.025  -8.598  10.475  1.00  0.00     0.212 HD
ENDBRANCH   9  23
TORSDOF 2
ENDMDL
