MODEL 1
REMARK VINA RESULT:      -9.0      0.000      0.000
REMARK  8 active torsions:
REMARK  status: ('A' for Active; 'I' for Inactive)
REMARK    1  A    between atoms: C_6  and  N_7 
REMARK       I    between atoms: N_7  and  C_8 
REMARK    2  A    between atoms: C_8  and  C_9 
REMARK    3  A    between atoms: C_9  and  N_10 
REMARK    4  A    between atoms: C_13  and  C_14 
REMARK       I    between atoms: C_14  and  N_15 
REMARK    5  A    between atoms: N_15  and  C_16 
REMARK    6  A    between atoms: C_16  and  C_17 
REMARK    7  A    between atoms: C_19  and  O_20 
REMARK    8  A    between atoms: C_26  and  N_27 
ROOT
HETATM    1  N   UNL     1      44.720 -10.573   7.615  1.00  0.00    -0.248 N 
HETATM    2  N   UNL     1      43.371 -10.572   7.662  1.00  0.00     0.007 NA
HETATM    3  N   UNL     1      42.929 -11.090   6.529  1.00  0.00    -0.150 NA
HETATM    4  C   UNL     1      44.009 -11.352   5.717  1.00  0.00     0.186 A 
HETATM    5  C   UNL     1      45.179 -11.053   6.408  1.00  0.00     0.151 A 
ENDROOT
BRANCH   1   6
HETATM    6  C   UNL     1      45.451  -9.996   8.721  1.00  0.00     0.251 C 
BRANCH   6   7
HETATM    7  C   UNL     1      44.767 -10.186  10.064  1.00  0.00     0.241 C 
HETATM    8  N   UNL     1      43.710  -9.320  10.290  1.00  0.00    -0.326 N 
HETATM    9  H   UNL     1      43.351  -8.827   9.471  1.00  0.00     0.169 HD
HETATM   10  O   UNL     1      45.219 -10.994  10.871  1.00  0.00    -0.271 OA
BRANCH   8  11
HETATM   11  C   UNL     1      43.002  -9.100  11.489  1.00  0.00     0.036 A 
HETATM   12  C   UNL     1      41.832  -9.771  11.845  1.00  0.00     0.053 A 
HETATM   13  C   UNL     1      41.222  -9.520  13.081  1.00  0.00     0.042 A 
HETATM   14  C   UNL     1      41.766  -8.591  13.982  1.00  0.00    -0.040 A 
HETATM   15 CL   UNL     1      39.786 -10.405  13.466  1.00  0.00    -0.084 Cl
HETATM   16  C   UNL     1      41.144  -8.319  15.322  1.00  0.00     0.050 C 
HETATM   17  C   UNL     1      42.937  -7.917  13.614  1.00  0.00     0.011 A 
HETATM   18  C   UNL     1      43.546  -8.171  12.382  1.00  0.00     0.030 A 
ENDBRANCH   8  11
ENDBRANCH   6   7
ENDBRANCH   1   6
BRANCH   5  19
HETATM   19  N   UNL     1      46.494 -11.169   6.087  1.00  0.00    -0.382 N 
HETATM   20  H   UNL     1      47.037 -11.925   6.508  1.00  0.00     0.157 HD
HETATM   21  H   UNL     1      47.084 -10.345   5.966  1.00  0.00     0.157 HD
ENDBRANCH   5  19
BRANCH   4  22
HETATM   22  C   UNL     1      43.836 -11.852   4.360  1.00  0.00     0.275 C 
HETATM   23  N   UNL     1      42.839 -12.793   4.209  1.00  0.00    -0.351 N 
HETATM   24  H   UNL     1      42.327 -13.104   5.026  1.00  0.00     0.163 HD
HETATM   25  O   UNL     1      44.548 -11.492   3.426  1.00  0.00    -0.266 OA
BRANCH  23  26
HETATM   26  C   UNL     1      42.575 -13.407   2.930  1.00  0.00     0.161 C 
BRANCH  26  27
HETATM   27  C   UNL     1      42.875 -14.883   2.957  1.00  0.00    -0.038 A 
HETATM   28  C   UNL     1      43.108 -15.533   4.183  1.00  0.00     0.045 A 
HETATM   29  C   UNL     1      43.411 -16.896   4.222  1.00  0.00     0.068 A 
HETATM   30  C   UNL     1      43.477 -17.613   3.026  1.00  0.00     0.037 A 
HETATM   31  C   UNL     1      43.246 -16.982   1.803  1.00  0.00     0.003 A 
HETATM   32  C   UNL     1      42.945 -15.622   1.768  1.00  0.00     0.009 A 
BRANCH  29  33
HETATM   33  O   UNL     1      43.660 -17.635   5.345  1.00  0.00    -0.356 OA
HETATM   34  C   UNL     1      43.975 -19.009   5.156  1.00  0.00     0.210 C 
ENDBRANCH  29  33
ENDBRANCH  26  27
ENDBRANCH  23  26
ENDBRANCH   4  22
TORSDOF 8
ENDMDL
MODEL 2
REMARK VINA RESULT:      -8.8      3.054     10.227
REMARK  8 active torsions:
REMARK  status: ('A' for Active; 'I' for Inactive)
REMARK    1  A    between atoms: C_6  and  N_7 
REMARK       I    between atoms: N_7  and  C_8 
REMARK    2  A    between atoms: C_8  and  C_9 
REMARK    3  A    between atoms: C_9  and  N_10 
REMARK    4  A    between atoms: C_13  and  C_14 
REMARK       I    between atoms: C_14  and  N_15 
REMARK    5  A    between atoms: N_15  and  C_16 
REMARK    6  A    between atoms: C_16  and  C_17 
REMARK    7  A    between atoms: C_19  and  O_20 
REMARK    8  A    between atoms: C_26  and  N_27 
ROOT
HETATM    1  N   UNL     1      42.641 -12.082   6.027  1.00  0.00    -0.248 N 
HETATM    2  N   UNL     1      43.501 -12.888   6.685  1.00  0.00     0.007 NA
HETATM    3  N   UNL     1      44.034 -12.187   7.671  1.00  0.00    -0.150 NA
HETATM    4  C   UNL     1      43.567 -10.895   7.591  1.00  0.00     0.186 A 
HETATM    5  C   UNL     1      42.644 -10.810   6.555  1.00  0.00     0.151 A 
ENDROOT
BRANCH   1   6
HETATM    6  C   UNL     1      41.966 -12.600   4.858  1.00  0.00     0.251 C 
BRANCH   6   7
HETATM    7  C   UNL     1      41.945 -14.117   4.792  1.00  0.00     0.241 C 
HETATM    8  N   UNL     1      43.042 -14.674   4.157  1.00  0.00    -0.326 N 
HETATM    9  H   UNL     1      43.842 -14.054   4.019  1.00  0.00     0.169 HD
HETATM   10  O   UNL     1      40.965 -14.732   5.206  1.00  0.00    -0.271 OA
BRANCH   8  11
HETATM   11  C   UNL     1      43.235 -16.012   3.758  1.00  0.00     0.036 A 
HETATM   12  C   UNL     1      43.595 -17.045   4.623  1.00  0.00     0.053 A 
HETATM   13  C   UNL     1      43.718 -18.357   4.145  1.00  0.00     0.042 A 
HETATM   14  C   UNL     1      43.490 -18.659   2.793  1.00  0.00    -0.040 A 
HETATM   15 CL   UNL     1      44.145 -19.592   5.277  1.00  0.00    -0.084 Cl
HETATM   16  C   UNL     1      43.594 -20.059   2.258  1.00  0.00     0.050 C 
HETATM   17  C   UNL     1      43.135 -17.614   1.930  1.00  0.00     0.011 A 
HETATM   18  C   UNL     1      43.009 -16.307   2.409  1.00  0.00     0.030 A 
ENDBRANCH   8  11
ENDBRANCH   6   7
ENDBRANCH   1   6
BRANCH   5  19
HETATM   19  N   UNL     1      41.871  -9.794   6.089  1.00  0.00    -0.382 N 
HETATM   20  H   UNL     1      41.078  -9.482   6.653  1.00  0.00     0.157 HD
HETATM   21  H   UNL     1      41.644  -9.712   5.098  1.00  0.00     0.157 HD
ENDBRANCH   5  19
BRANCH   4  22
HETATM   22  C   UNL     1      44.043  -9.857   8.496  1.00  0.00     0.275 C 
HETATM   23  N   UNL     1      44.175 -10.249   9.812  1.00  0.00    -0.351 N 
HETATM   24  H   UNL     1      43.906 -11.189  10.076  1.00  0.00     0.163 HD
HETATM   25  O   UNL     1      44.274  -8.710   8.124  1.00  0.00    -0.266 OA
BRANCH  23  26
HETATM   26  C   UNL     1      44.601  -9.320  10.831  1.00  0.00     0.161 C 
BRANCH  26  27
HETATM   27  C   UNL     1      43.548  -9.150  11.894  1.00  0.00    -0.038 A 
HETATM   28  C   UNL     1      42.539 -10.119  12.049  1.00  0.00     0.045 A 
HETATM   29  C   UNL     1      41.542  -9.963  13.015  1.00  0.00     0.068 A 
HETATM   30  C   UNL     1      41.556  -8.831  13.832  1.00  0.00     0.037 A 
HETATM   31  C   UNL     1      42.551  -7.863  13.691  1.00  0.00     0.003 A 
HETATM   32  C   UNL     1      43.545  -8.022  12.726  1.00  0.00     0.009 A 
BRANCH  29  33
HETATM   33  O   UNL     1      40.512 -10.829  13.257  1.00  0.00    -0.356 OA
HETATM   34  C   UNL     1      39.253 -10.511  12.677  1.00  0.00     0.210 C 
ENDBRANCH  29  33
ENDBRANCH  26  27
ENDBRANCH  23  26
ENDBRANCH   4  22
TORSDOF 8
ENDMDL
MODEL 3
REMARK VINA RESULT:      -8.6      3.005     10.058
REMARK  8 active torsions:
REMARK  status: ('A' for Active; 'I' for Inactive)
REMARK    1  A    between atoms: C_6  and  N_7 
REMARK       I    between atoms: N_7  and  C_8 
REMARK    2  A    between atoms: C_8  and  C_9 
REMARK    3  A    between atoms: C_9  and  N_10 
REMARK    4  A    between atoms: C_13  and  C_14 
REMARK       I    between atoms: C_14  and  N_15 
REMARK    5  A    between atoms: N_15  and  C_16 
REMARK    6  A    between atoms: C_16  and  C_17 
REMARK    7  A    between atoms: C_19  and  O_20 
REMARK    8  A    between atoms: C_26  and  N_27 
ROOT
HETATM    1  N   UNL     1      43.028 -11.894   4.598  1.00  0.00    -0.248 N 
HETATM    2  N   UNL     1      44.154 -11.524   3.951  1.00  0.00     0.007 NA
HETATM    3  N   UNL     1      45.019 -11.105   4.858  1.00  0.00    -0.150 NA
HETATM    4  C   UNL     1      44.407 -11.133   6.091  1.00  0.00     0.186 A 
HETATM    5  C   UNL     1      43.131 -11.667   5.952  1.00  0.00     0.151 A 
ENDROOT
BRANCH   1   6
HETATM    6  C   UNL     1      41.896 -12.339   3.815  1.00  0.00     0.251 C 
BRANCH   6   7
HETATM    7  C   UNL     1      41.752 -13.850   3.762  1.00  0.00     0.241 C 
HETATM    8  N   UNL     1      42.955 -14.535   3.725  1.00  0.00    -0.326 N 
HETATM    9  H   UNL     1      43.786 -13.995   3.975  1.00  0.00     0.169 HD
HETATM   10  O   UNL     1      40.636 -14.354   3.671  1.00  0.00    -0.271 OA
BRANCH   8  11
HETATM   11  C   UNL     1      43.174 -15.905   3.478  1.00  0.00     0.036 A 
HETATM   12  C   UNL     1      43.477 -16.842   4.465  1.00  0.00     0.053 A 
HETATM   13  C   UNL     1      43.631 -18.195   4.132  1.00  0.00     0.042 A 
HETATM   14  C   UNL     1      43.491 -18.635   2.806  1.00  0.00    -0.040 A 
HETATM   15 CL   UNL     1      43.984 -19.305   5.410  1.00  0.00    -0.084 Cl
HETATM   16  C   UNL     1      43.629 -20.081   2.425  1.00  0.00     0.050 C 
HETATM   17  C   UNL     1      43.192 -17.686   1.820  1.00  0.00     0.011 A 
HETATM   18  C   UNL     1      43.035 -16.338   2.155  1.00  0.00     0.030 A 
ENDBRANCH   8  11
ENDBRANCH   6   7
ENDBRANCH   1   6
BRANCH   5  19
HETATM   19  N   UNL     1      42.146 -11.949   6.846  1.00  0.00    -0.382 N 
HETATM   20  H   UNL     1      41.618 -12.816   6.736  1.00  0.00     0.157 HD
HETATM   21  H   UNL     1      41.538 -11.216   7.212  1.00  0.00     0.157 HD
ENDBRANCH   5  19
BRANCH   4  22
HETATM   22  C   UNL     1      45.083 -10.645   7.286  1.00  0.00     0.275 C 
HETATM   23  N   UNL     1      44.457  -9.590   7.918  1.00  0.00    -0.351 N 
HETATM   24  H   UNL     1      43.616  -9.200   7.511  1.00  0.00     0.163 HD
HETATM   25  O   UNL     1      46.148 -11.112   7.681  1.00  0.00    -0.266 OA
BRANCH  23  26
HETATM   26  C   UNL     1      45.028  -8.976   9.093  1.00  0.00     0.161 C 
BRANCH  26  27
HETATM   27  C   UNL     1      44.182  -9.233  10.313  1.00  0.00    -0.038 A 
HETATM   28  C   UNL     1      43.449  -8.183  10.897  1.00  0.00     0.045 A 
HETATM   29  C   UNL     1      42.680  -8.400  12.042  1.00  0.00     0.068 A 
HETATM   30  C   UNL     1      42.642  -9.677  12.605  1.00  0.00     0.037 A 
HETATM   31  C   UNL     1      43.362 -10.728  12.035  1.00  0.00     0.003 A 
HETATM   32  C   UNL     1      44.129 -10.508  10.893  1.00  0.00     0.009 A 
BRANCH  29  33
HETATM   33  O   UNL     1      41.931  -7.464  12.699  1.00  0.00    -0.356 OA
HETATM   34  C   UNL     1      41.576  -6.295  11.972  1.00  0.00     0.210 C 
ENDBRANCH  29  33
ENDBRANCH  26  27
ENDBRANCH  23  26
ENDBRANCH   4  22
TORSDOF 8
ENDMDL
MODEL 4
REMARK VINA RESULT:      -8.4      2.227      3.135
REMARK  8 active torsions:
REMARK  status: ('A' for Active; 'I' for Inactive)
REMARK    1  A    between atoms: C_6  and  N_7 
REMARK       I    between atoms: N_7  and  C_8 
REMARK    2  A    between atoms: C_8  and  C_9 
REMARK    3  A    between atoms: C_9  and  N_10 
REMARK    4  A    between atoms: C_13  and  C_14 
REMARK       I    between atoms: C_14  and  N_15 
REMARK    5  A    between atoms: N_15  and  C_16 
REMARK    6  A    between atoms: C_16  and  C_17 
REMARK    7  A    between atoms: C_19  and  O_20 
REMARK    8  A    between atoms: C_26  and  N_27 
ROOT
HETATM    1  N   UNL     1      43.154 -11.105   6.629  1.00  0.00    -0.248 N 
HETATM    2  N   UNL     1      44.446 -11.289   6.976  1.00  0.00     0.007 NA
HETATM    3  N   UNL     1      44.658 -12.591   7.055  1.00  0.00    -0.150 NA
HETATM    4  C   UNL     1      43.467 -13.244   6.832  1.00  0.00     0.186 A 
HETATM    5  C   UNL     1      42.487 -12.306   6.526  1.00  0.00     0.151 A 
ENDROOT
BRANCH   1   6
HETATM    6  C   UNL     1      42.650  -9.753   6.534  1.00  0.00     0.251 C 
BRANCH   6   7
HETATM    7  C   UNL     1      42.672  -9.004   7.855  1.00  0.00     0.241 C 
HETATM    8  N   UNL     1      42.679  -9.822   8.972  1.00  0.00    -0.326 N 
HETATM    9  H   UNL     1      42.907 -10.803   8.808  1.00  0.00     0.169 HD
HETATM   10  O   UNL     1      42.597  -7.778   7.862  1.00  0.00    -0.271 OA
BRANCH   8  11
HETATM   11  C   UNL     1      42.502  -9.459  10.323  1.00  0.00     0.036 A 
HETATM   12  C   UNL     1      41.385  -9.795  11.087  1.00  0.00     0.053 A 
HETATM   13  C   UNL     1      41.318  -9.432  12.439  1.00  0.00     0.042 A 
HETATM   14  C   UNL     1      42.363  -8.722  13.050  1.00  0.00    -0.040 A 
HETATM   15 CL   UNL     1      39.913  -9.900  13.331  1.00  0.00    -0.084 Cl
HETATM   16  C   UNL     1      42.327  -8.338  14.502  1.00  0.00     0.050 C 
HETATM   17  C   UNL     1      43.479  -8.383  12.274  1.00  0.00     0.011 A 
HETATM   18  C   UNL     1      43.546  -8.750  10.927  1.00  0.00     0.030 A 
ENDBRANCH   8  11
ENDBRANCH   6   7
ENDBRANCH   1   6
BRANCH   5  19
HETATM   19  N   UNL     1      41.176 -12.419   6.186  1.00  0.00    -0.382 N 
HETATM   20  H   UNL     1      40.498 -12.638   6.917  1.00  0.00     0.157 HD
HETATM   21  H   UNL     1      40.892 -12.854   5.308  1.00  0.00     0.157 HD
ENDBRANCH   5  19
BRANCH   4  22
HETATM   22  C   UNL     1      43.363 -14.693   6.937  1.00  0.00     0.275 C 
HETATM   23  N   UNL     1      44.333 -15.397   6.254  1.00  0.00    -0.351 N 
HETATM   24  H   UNL     1      45.016 -14.890   5.704  1.00  0.00     0.163 HD
HETATM   25  O   UNL     1      42.459 -15.248   7.556  1.00  0.00    -0.266 OA
BRANCH  23  26
HETATM   26  C   UNL     1      44.337 -16.840   6.235  1.00  0.00     0.161 C 
BRANCH  26  27
HETATM   27  C   UNL     1      43.944 -17.373   4.882  1.00  0.00    -0.038 A 
HETATM   28  C   UNL     1      43.168 -16.584   4.012  1.00  0.00     0.045 A 
HETATM   29  C   UNL     1      42.776 -17.074   2.764  1.00  0.00     0.068 A 
HETATM   30  C   UNL     1      43.163 -18.360   2.384  1.00  0.00     0.037 A 
HETATM   31  C   UNL     1      43.933 -19.152   3.237  1.00  0.00     0.003 A 
HETATM   32  C   UNL     1      44.323 -18.661   4.481  1.00  0.00     0.009 A 
BRANCH  29  33
HETATM   33  O   UNL     1      42.023 -16.408   1.838  1.00  0.00    -0.356 OA
HETATM   34  C   UNL     1      40.743 -15.949   2.256  1.00  0.00     0.210 C 
ENDBRANCH  29  33
ENDBRANCH  26  27
ENDBRANCH  23  26
ENDBRANCH   4  22
TORSDOF 8
ENDMDL
MODEL 5
REMARK VINA RESULT:      -8.3      3.385     10.507
REMARK  8 active torsions:
REMARK  status: ('A' for Active; 'I' for Inactive)
REMARK    1  A    between atoms: C_6  and  N_7 
REMARK       I    between atoms: N_7  and  C_8 
REMARK    2  A    between atoms: C_8  and  C_9 
REMARK    3  A    between atoms: C_9  and  N_10 
REMARK    4  A    between atoms: C_13  and  C_14 
REMARK       I    between atoms: C_14  and  N_15 
REMARK    5  A    between atoms: N_15  and  C_16 
REMARK    6  A    between atoms: C_16  and  C_17 
REMARK    7  A    between atoms: C_19  and  O_20 
REMARK    8  A    between atoms: C_26  and  N_27 
ROOT
HETATM    1  N   UNL     1      42.723 -12.675   5.834  1.00  0.00    -0.248 N 
HETATM    2  N   UNL     1      43.262 -13.647   6.600  1.00  0.00     0.007 NA
HETATM    3  N   UNL     1      43.954 -13.061   7.563  1.00  0.00    -0.150 NA
HETATM    4  C   UNL     1      43.920 -11.700   7.361  1.00  0.00     0.186 A 
HETATM    5  C   UNL     1      43.107 -11.425   6.267  1.00  0.00     0.151 A 
ENDROOT
BRANCH   1   6
HETATM    6  C   UNL     1      41.961 -13.059   4.666  1.00  0.00     0.251 C 
BRANCH   6   7
HETATM    7  C   UNL     1      41.868 -14.562   4.470  1.00  0.00     0.241 C 
HETATM    8  N   UNL     1      43.063 -15.163   4.111  1.00  0.00    -0.326 N 
HETATM    9  H   UNL     1      43.906 -14.602   4.248  1.00  0.00     0.169 HD
HETATM   10  O   UNL     1      40.778 -15.121   4.550  1.00  0.00    -0.271 OA
BRANCH   8  11
HETATM   11  C   UNL     1      43.279 -16.484   3.669  1.00  0.00     0.036 A 
HETATM   12  C   UNL     1      43.743 -17.518   4.481  1.00  0.00     0.053 A 
HETATM   13  C   UNL     1      43.882 -18.814   3.965  1.00  0.00     0.042 A 
HETATM   14  C   UNL     1      43.566 -19.098   2.628  1.00  0.00    -0.040 A 
HETATM   15 CL   UNL     1      44.441 -20.052   5.035  1.00  0.00    -0.084 Cl
HETATM   16  C   UNL     1      43.685 -20.482   2.055  1.00  0.00     0.050 C 
HETATM   17  C   UNL     1      43.106 -18.052   1.817  1.00  0.00     0.011 A 
HETATM   18  C   UNL     1      42.965 -16.762   2.334  1.00  0.00     0.030 A 
ENDBRANCH   8  11
ENDBRANCH   6   7
ENDBRANCH   1   6
BRANCH   5  19
HETATM   19  N   UNL     1      42.710 -10.264   5.682  1.00  0.00    -0.382 N 
HETATM   20  H   UNL     1      41.710 -10.083   5.582  1.00  0.00     0.157 HD
HETATM   21  H   UNL     1      43.214  -9.872   4.886  1.00  0.00     0.157 HD
ENDBRANCH   5  19
BRANCH   4  22
HETATM   22  C   UNL     1      44.666 -10.786   8.215  1.00  0.00     0.275 C 
HETATM   23  N   UNL     1      44.115 -10.575   9.462  1.00  0.00    -0.351 N 
HETATM   24  H   UNL     1      43.233 -11.017   9.693  1.00  0.00     0.163 HD
HETATM   25  O   UNL     1      45.688 -10.217   7.841  1.00  0.00    -0.266 OA
BRANCH  23  26
HETATM   26  C   UNL     1      44.721  -9.665  10.404  1.00  0.00     0.161 C 
BRANCH  26  27
HETATM   27  C   UNL     1      43.728  -8.648  10.903  1.00  0.00    -0.038 A 
HETATM   28  C   UNL     1      42.945  -7.920   9.989  1.00  0.00     0.045 A 
HETATM   29  C   UNL     1      42.037  -6.957  10.435  1.00  0.00     0.068 A 
HETATM   30  C   UNL     1      41.911  -6.723  11.806  1.00  0.00     0.037 A 
HETATM   31  C   UNL     1      42.681  -7.439  12.724  1.00  0.00     0.003 A 
HETATM   32  C   UNL     1      43.585  -8.399  12.275  1.00  0.00     0.009 A 
BRANCH  29  33
HETATM   33  O   UNL     1      41.227  -6.186   9.649  1.00  0.00    -0.356 OA
HETATM   34  C   UNL     1      40.071  -5.630  10.263  1.00  0.00     0.210 C 
ENDBRANCH  29  33
ENDBRANCH  26  27
ENDBRANCH  23  26
ENDBRANCH   4  22
TORSDOF 8
ENDMDL
MODEL 6
REMARK VINA RESULT:      -8.1      1.450      2.083
REMARK  8 active torsions:
REMARK  status: ('A' for Active; 'I' for Inactive)
REMARK    1  A    between atoms: C_6  and  N_7 
REMARK       I    between atoms: N_7  and  C_8 
REMARK    2  A    between atoms: C_8  and  C_9 
REMARK    3  A    between atoms: C_9  and  N_10 
REMARK    4  A    between atoms: C_13  and  C_14 
REMARK       I    between atoms: C_14  and  N_15 
REMARK    5  A    between atoms: N_15  and  C_16 
REMARK    6  A    between atoms: C_16  and  C_17 
REMARK    7  A    between atoms: C_19  and  O_20 
REMARK    8  A    between atoms: C_26  and  N_27 
ROOT
HETATM    1  N   UNL     1      44.056 -10.382   7.138  1.00  0.00    -0.248 N 
HETATM    2  N   UNL     1      42.707 -10.326   7.138  1.00  0.00     0.007 NA
HETATM    3  N   UNL     1      42.271 -11.139   6.191  1.00  0.00    -0.150 NA
HETATM    4  C   UNL     1      43.358 -11.660   5.527  1.00  0.00     0.186 A 
HETATM    5  C   UNL     1      44.522 -11.208   6.139  1.00  0.00     0.151 A 
ENDROOT
BRANCH   1   6
HETATM    6  C   UNL     1      44.783  -9.530   8.052  1.00  0.00     0.251 C 
BRANCH   6   7
HETATM    7  C   UNL     1      44.451  -9.784   9.512  1.00  0.00     0.241 C 
HETATM    8  N   UNL     1      43.326  -9.115   9.964  1.00  0.00    -0.326 N 
HETATM    9  H   UNL     1      42.715  -8.729   9.243  1.00  0.00     0.169 HD
HETATM   10  O   UNL     1      45.208 -10.464  10.200  1.00  0.00    -0.271 OA
BRANCH   8  11
HETATM   11  C   UNL     1      42.865  -8.977  11.289  1.00  0.00     0.036 A 
HETATM   12  C   UNL     1      43.352  -8.038  12.196  1.00  0.00     0.053 A 
HETATM   13  C   UNL     1      42.798  -7.940  13.480  1.00  0.00     0.042 A 
HETATM   14  C   UNL     1      41.750  -8.784  13.882  1.00  0.00    -0.040 A 
HETATM   15 CL   UNL     1      43.437  -6.738  14.546  1.00  0.00    -0.084 Cl
HETATM   16  C   UNL     1      41.124  -8.688  15.244  1.00  0.00     0.050 C 
HETATM   17  C   UNL     1      41.271  -9.729  12.966  1.00  0.00     0.011 A 
HETATM   18  C   UNL     1      41.822  -9.821  11.685  1.00  0.00     0.030 A 
ENDBRANCH   8  11
ENDBRANCH   6   7
ENDBRANCH   1   6
BRANCH   5  19
HETATM   19  N   UNL     1      45.839 -11.453   5.910  1.00  0.00    -0.382 N 
HETATM   20  H   UNL     1      46.119 -12.386   5.605  1.00  0.00     0.157 HD
HETATM   21  H   UNL     1      46.564 -11.052   6.506  1.00  0.00     0.157 HD
ENDBRANCH   5  19
BRANCH   4  22
HETATM   22  C   UNL     1      43.197 -12.529   4.370  1.00  0.00     0.275 C 
HETATM   23  N   UNL     1      42.702 -13.786   4.651  1.00  0.00    -0.351 N 
HETATM   24  H   UNL     1      42.523 -14.042   5.614  1.00  0.00     0.163 HD
HETATM   25  O   UNL     1      43.512 -12.184   3.234  1.00  0.00    -0.266 OA
BRANCH  23  26
HETATM   26  C   UNL     1      42.524 -14.771   3.610  1.00  0.00     0.161 C 
BRANCH  26  27
HETATM   27  C   UNL     1      43.126 -16.096   3.999  1.00  0.00    -0.038 A 
HETATM   28  C   UNL     1      43.365 -17.076   3.017  1.00  0.00     0.045 A 
HETATM   29  C   UNL     1      43.900 -18.318   3.366  1.00  0.00     0.068 A 
HETATM   30  C   UNL     1      44.200 -18.580   4.704  1.00  0.00     0.037 A 
HETATM   31  C   UNL     1      43.970 -17.616   5.687  1.00  0.00     0.003 A 
HETATM   32  C   UNL     1      43.435 -16.378   5.336  1.00  0.00     0.009 A 
BRANCH  29  33
HETATM   33  O   UNL     1      44.172 -19.348   2.509  1.00  0.00    -0.356 OA
HETATM   34  C   UNL     1      43.062 -20.084   2.011  1.00  0.00     0.210 C 
ENDBRANCH  29  33
ENDBRANCH  26  27
ENDBRANCH  23  26
ENDBRANCH   4  22
TORSDOF 8
ENDMDL
MODEL 7
REMARK VINA RESULT:      -8.1      5.993      9.506
REMARK  8 active torsions:
REMARK  status: ('A' for Active; 'I' for Inactive)
REMARK    1  A    between atoms: C_6  and  N_7 
REMARK       I    between atoms: N_7  and  C_8 
REMARK    2  A    between atoms: C_8  and  C_9 
REMARK    3  A    between atoms: C_9  and  N_10 
REMARK    4  A    between atoms: C_13  and  C_14 
REMARK       I    between atoms: C_14  and  N_15 
REMARK    5  A    between atoms: N_15  and  C_16 
REMARK    6  A    between atoms: C_16  and  C_17 
REMARK    7  A    between atoms: C_19  and  O_20 
REMARK    8  A    between atoms: C_26  and  N_27 
ROOT
HETATM    1  N   UNL     1      41.803 -12.976   4.864  1.00  0.00    -0.248 N 
HETATM    2  N   UNL     1      42.926 -12.525   4.266  1.00  0.00     0.007 NA
HETATM    3  N   UNL     1      42.564 -11.843   3.193  1.00  0.00    -0.150 NA
HETATM    4  C   UNL     1      41.196 -11.926   3.063  1.00  0.00     0.186 A 
HETATM    5  C   UNL     1      40.680 -12.629   4.147  1.00  0.00     0.151 A 
ENDROOT
BRANCH   1   6
HETATM    6  C   UNL     1      41.933 -13.810   6.038  1.00  0.00     0.251 C 
BRANCH   6   7
HETATM    7  C   UNL     1      42.029 -15.292   5.721  1.00  0.00     0.241 C 
HETATM    8  N   UNL     1      43.064 -15.625   4.864  1.00  0.00    -0.326 N 
HETATM    9  H   UNL     1      43.781 -14.910   4.729  1.00  0.00     0.169 HD
HETATM   10  O   UNL     1      41.175 -16.064   6.151  1.00  0.00    -0.271 OA
BRANCH   8  11
HETATM   11  C   UNL     1      43.307 -16.856   4.224  1.00  0.00     0.036 A 
HETATM   12  C   UNL     1      43.795 -17.993   4.867  1.00  0.00     0.053 A 
HETATM   13  C   UNL     1      43.960 -19.191   4.159  1.00  0.00     0.042 A 
HETATM   14  C   UNL     1      43.648 -19.273   2.793  1.00  0.00    -0.040 A 
HETATM   15 CL   UNL     1      44.548 -20.567   5.025  1.00  0.00    -0.084 Cl
HETATM   16  C   UNL     1      43.796 -20.549   2.013  1.00  0.00     0.050 C 
HETATM   17  C   UNL     1      43.165 -18.125   2.152  1.00  0.00     0.011 A 
HETATM   18  C   UNL     1      42.996 -16.933   2.862  1.00  0.00     0.030 A 
ENDBRANCH   8  11
ENDBRANCH   6   7
ENDBRANCH   1   6
BRANCH   5  19
HETATM   19  N   UNL     1      39.413 -12.950   4.519  1.00  0.00    -0.382 N 
HETATM   20  H   UNL     1      39.280 -13.624   5.275  1.00  0.00     0.157 HD
HETATM   21  H   UNL     1      38.668 -13.050   3.830  1.00  0.00     0.157 HD
ENDBRANCH   5  19
BRANCH   4  22
HETATM   22  C   UNL     1      40.504 -11.342   1.923  1.00  0.00     0.275 C 
HETATM   23  N   UNL     1      41.282 -11.166   0.798  1.00  0.00    -0.351 N 
HETATM   24  H   UNL     1      42.265 -11.406   0.835  1.00  0.00     0.163 HD
HETATM   25  O   UNL     1      39.326 -10.997   1.970  1.00  0.00    -0.266 OA
BRANCH  23  26
HETATM   26  C   UNL     1      40.744 -10.564  -0.399  1.00  0.00     0.161 C 
BRANCH  26  27
HETATM   27  C   UNL     1      40.107 -11.594  -1.294  1.00  0.00    -0.038 A 
HETATM   28  C   UNL     1      38.745 -11.489  -1.632  1.00  0.00     0.045 A 
HETATM   29  C   UNL     1      38.135 -12.450  -2.442  1.00  0.00     0.068 A 
HETATM   30  C   UNL     1      38.893 -13.521  -2.918  1.00  0.00     0.037 A 
HETATM   31  C   UNL     1      40.245 -13.637  -2.592  1.00  0.00     0.003 A 
HETATM   32  C   UNL     1      40.851 -12.676  -1.784  1.00  0.00     0.009 A 
BRANCH  29  33
HETATM   33  O   UNL     1      36.825 -12.460  -2.834  1.00  0.00    -0.356 OA
HETATM   34  C   UNL     1      36.208 -11.197  -3.051  1.00  0.00     0.210 C 
ENDBRANCH  29  33
ENDBRANCH  26  27
ENDBRANCH  23  26
ENDBRANCH   4  22
TORSDOF 8
ENDMDL
MODEL 8
REMARK VINA RESULT:      -7.9      3.827      9.738
REMARK  8 active torsions:
REMARK  status: ('A' for Active; 'I' for Inactive)
REMARK    1  A    between atoms: C_6  and  N_7 
REMARK       I    between atoms: N_7  and  C_8 
REMARK    2  A    between atoms: C_8  and  C_9 
REMARK    3  A    between atoms: C_9  and  N_10 
REMARK    4  A    between atoms: C_13  and  C_14 
REMARK       I    between atoms: C_14  and  N_15 
REMARK    5  A    between atoms: N_15  and  C_16 
REMARK    6  A    between atoms: C_16  and  C_17 
REMARK    7  A    between atoms: C_19  and  O_20 
REMARK    8  A    between atoms: C_26  and  N_27 
ROOT
HETATM    1  N   UNL     1      41.054 -12.624   3.948  1.00  0.00    -0.248 N 
HETATM    2  N   UNL     1      39.858 -12.126   3.569  1.00  0.00     0.007 NA
HETATM    3  N   UNL     1      39.405 -11.373   4.556  1.00  0.00    -0.150 NA
HETATM    4  C   UNL     1      40.287 -11.455   5.610  1.00  0.00     0.186 A 
HETATM    5  C   UNL     1      41.374 -12.235   5.230  1.00  0.00     0.151 A 
ENDROOT
BRANCH   1   6
HETATM    6  C   UNL     1      41.736 -13.537   3.058  1.00  0.00     0.251 C 
BRANCH   6   7
HETATM    7  C   UNL     1      41.694 -14.982   3.524  1.00  0.00     0.241 C 
HETATM    8  N   UNL     1      42.941 -15.548   3.733  1.00  0.00    -0.326 N 
HETATM    9  H   UNL     1      43.725 -14.896   3.790  1.00  0.00     0.169 HD
HETATM   10  O   UNL     1      40.617 -15.568   3.602  1.00  0.00    -0.271 OA
BRANCH   8  11
HETATM   11  C   UNL     1      43.258 -16.900   3.971  1.00  0.00     0.036 A 
HETATM   12  C   UNL     1      43.379 -17.866   2.972  1.00  0.00     0.053 A 
HETATM   13  C   UNL     1      43.747 -19.179   3.298  1.00  0.00     0.042 A 
HETATM   14  C   UNL     1      43.995 -19.551   4.629  1.00  0.00    -0.040 A 
HETATM   15 CL   UNL     1      43.899 -20.319   2.007  1.00  0.00    -0.084 Cl
HETATM   16  C   UNL     1      44.411 -20.945   5.005  1.00  0.00     0.050 C 
HETATM   17  C   UNL     1      43.866 -18.576   5.626  1.00  0.00     0.011 A 
HETATM   18  C   UNL     1      43.503 -17.267   5.298  1.00  0.00     0.030 A 
ENDBRANCH   8  11
ENDBRANCH   6   7
ENDBRANCH   1   6
BRANCH   5  19
HETATM   19  N   UNL     1      42.522 -12.589   5.866  1.00  0.00    -0.382 N 
HETATM   20  H   UNL     1      42.913 -13.516   5.692  1.00  0.00     0.157 HD
HETATM   21  H   UNL     1      42.699 -12.314   6.832  1.00  0.00     0.157 HD
ENDBRANCH   5  19
BRANCH   4  22
HETATM   22  C   UNL     1      40.017 -10.798   6.881  1.00  0.00     0.275 C 
HETATM   23  N   UNL     1      41.011  -9.947   7.318  1.00  0.00    -0.351 N 
HETATM   24  H   UNL     1      41.861  -9.859   6.774  1.00  0.00     0.163 HD
HETATM   25  O   UNL     1      38.999 -11.011   7.533  1.00  0.00    -0.266 OA
BRANCH  23  26
HETATM   26  C   UNL     1      40.902  -9.252   8.579  1.00  0.00     0.161 C 
BRANCH  26  27
HETATM   27  C   UNL     1      42.195  -9.307   9.350  1.00  0.00    -0.038 A 
HETATM   28  C   UNL     1      43.295 -10.017   8.833  1.00  0.00     0.045 A 
HETATM   29  C   UNL     1      44.492 -10.096   9.548  1.00  0.00     0.068 A 
HETATM   30  C   UNL     1      44.590  -9.458  10.786  1.00  0.00     0.037 A 
HETATM   31  C   UNL     1      43.508  -8.749  11.309  1.00  0.00     0.003 A 
HETATM   32  C   UNL     1      42.315  -8.672  10.594  1.00  0.00     0.009 A 
BRANCH  29  33
HETATM   33  O   UNL     1      45.623 -10.756   9.155  1.00  0.00    -0.356 OA
HETATM   34  C   UNL     1      45.901 -10.786   7.761  1.00  0.00     0.210 C 
ENDBRANCH  29  33
ENDBRANCH  26  27
ENDBRANCH  23  26
ENDBRANCH   4  22
TORSDOF 8
ENDMDL
MODEL 9
REMARK VINA RESULT:      -7.8      2.204      2.452
REMARK  8 active torsions:
REMARK  status: ('A' for Active; 'I' for Inactive)
REMARK    1  A    between atoms: C_6  and  N_7 
REMARK       I    between atoms: N_7  and  C_8 
REMARK    2  A    between atoms: C_8  and  C_9 
REMARK    3  A    between atoms: C_9  and  N_10 
REMARK    4  A    between atoms: C_13  and  C_14 
REMARK       I    between atoms: C_14  and  N_15 
REMARK    5  A    between atoms: N_15  and  C_16 
REMARK    6  A    between atoms: C_16  and  C_17 
REMARK    7  A    between atoms: C_19  and  O_20 
REMARK    8  A    between atoms: C_26  and  N_27 
ROOT
HETATM    1  N   UNL     1      43.877 -10.755   7.105  1.00  0.00    -0.248 N 
HETATM    2  N   UNL     1      42.834  -9.912   6.944  1.00  0.00     0.007 NA
HETATM    3  N   UNL     1      41.837 -10.602   6.420  1.00  0.00    -0.150 NA
HETATM    4  C   UNL     1      42.274 -11.883   6.170  1.00  0.00     0.186 A 
HETATM    5  C   UNL     1      43.580 -12.014   6.631  1.00  0.00     0.151 A 
ENDROOT
BRANCH   1   6
HETATM    6  C   UNL     1      45.123 -10.225   7.611  1.00  0.00     0.251 C 
BRANCH   6   7
HETATM    7  C   UNL     1      44.941  -9.069   8.580  1.00  0.00     0.241 C 
HETATM    8  N   UNL     1      44.069  -9.334   9.623  1.00  0.00    -0.326 N 
HETATM    9  H   UNL     1      43.834 -10.317   9.772  1.00  0.00     0.169 HD
HETATM   10  O   UNL     1      45.480  -7.990   8.351  1.00  0.00    -0.271 OA
BRANCH   8  11
HETATM   11  C   UNL     1      43.535  -8.433  10.566  1.00  0.00     0.036 A 
HETATM   12  C   UNL     1      42.821  -7.282  10.236  1.00  0.00     0.053 A 
HETATM   13  C   UNL     1      42.284  -6.469  11.244  1.00  0.00     0.042 A 
HETATM   14  C   UNL     1      42.456  -6.789  12.600  1.00  0.00    -0.040 A 
HETATM   15 CL   UNL     1      41.391  -5.069  10.762  1.00  0.00    -0.084 Cl
HETATM   16  C   UNL     1      41.874  -5.948  13.700  1.00  0.00     0.050 C 
HETATM   17  C   UNL     1      43.180  -7.944  12.923  1.00  0.00     0.011 A 
HETATM   18  C   UNL     1      43.710  -8.755  11.916  1.00  0.00     0.030 A 
ENDBRANCH   8  11
ENDBRANCH   6   7
ENDBRANCH   1   6
BRANCH   5  19
HETATM   19  N   UNL     1      44.444 -13.062   6.669  1.00  0.00    -0.382 N 
HETATM   20  H   UNL     1      45.231 -13.072   6.018  1.00  0.00     0.157 HD
HETATM   21  H   UNL     1      44.116 -14.014   6.830  1.00  0.00     0.157 HD
ENDBRANCH   5  19
BRANCH   4  22
HETATM   22  C   UNL     1      41.422 -12.863   5.512  1.00  0.00     0.275 C 
HETATM   23  N   UNL     1      41.571 -14.159   5.960  1.00  0.00    -0.351 N 
HETATM   24  H   UNL     1      42.268 -14.360   6.667  1.00  0.00     0.163 HD
HETATM   25  O   UNL     1      40.654 -12.566   4.600  1.00  0.00    -0.266 OA
BRANCH  23  26
HETATM   26  C   UNL     1      40.820 -15.245   5.376  1.00  0.00     0.161 C 
BRANCH  26  27
HETATM   27  C   UNL     1      41.630 -15.978   4.339  1.00  0.00    -0.038 A 
HETATM   28  C   UNL     1      42.582 -16.937   4.735  1.00  0.00     0.045 A 
HETATM   29  C   UNL     1      43.357 -17.607   3.786  1.00  0.00     0.068 A 
HETATM   30  C   UNL     1      43.177 -17.317   2.432  1.00  0.00     0.037 A 
HETATM   31  C   UNL     1      42.236 -16.370   2.025  1.00  0.00     0.003 A 
HETATM   32  C   UNL     1      41.465 -15.703   2.975  1.00  0.00     0.009 A 
BRANCH  29  33
HETATM   33  O   UNL     1      44.311 -18.551   4.046  1.00  0.00    -0.356 OA
HETATM   34  C   UNL     1      44.084 -19.407   5.158  1.00  0.00     0.210 C 
ENDBRANCH  29  33
ENDBRANCH  26  27
ENDBRANCH  23  26
ENDBRANCH   4  22
TORSDOF 8
ENDMDL
MODEL 10
REMARK VINA RESULT:      -7.7      3.435     10.145
REMARK  8 active torsions:
REMARK  status: ('A' for Active; 'I' for Inactive)
REMARK    1  A    between atoms: C_6  and  N_7 
REMARK       I    between atoms: N_7  and  C_8 
REMARK    2  A    between atoms: C_8  and  C_9 
REMARK    3  A    between atoms: C_9  and  N_10 
REMARK    4  A    between atoms: C_13  and  C_14 
REMARK       I    between atoms: C_14  and  N_15 
REMARK    5  A    between atoms: N_15  and  C_16 
REMARK    6  A    between atoms: C_16  and  C_17 
REMARK    7  A    between atoms: C_19  and  O_20 
REMARK    8  A    between atoms: C_26  and  N_27 
ROOT
HETATM    1  N   UNL     1      42.025 -11.892   4.931  1.00  0.00    -0.248 N 
HETATM    2  N   UNL     1      40.951 -11.494   5.645  1.00  0.00     0.007 NA
HETATM    3  N   UNL     1      41.381 -10.691   6.603  1.00  0.00    -0.150 NA
HETATM    4  C   UNL     1      42.755 -10.640   6.548  1.00  0.00     0.186 A 
HETATM    5  C   UNL     1      43.192 -11.385   5.458  1.00  0.00     0.151 A 
ENDROOT
BRANCH   1   6
HETATM    6  C   UNL     1      41.827 -12.833   3.851  1.00  0.00     0.251 C 
BRANCH   6   7
HETATM    7  C   UNL     1      41.820 -14.283   4.303  1.00  0.00     0.241 C 
HETATM    8  N   UNL     1      43.009 -14.955   4.078  1.00  0.00    -0.326 N 
HETATM    9  H   UNL     1      43.820 -14.371   3.865  1.00  0.00     0.169 HD
HETATM   10  O   UNL     1      40.785 -14.780   4.742  1.00  0.00    -0.271 OA
BRANCH   8  11
HETATM   11  C   UNL     1      43.269 -16.335   4.194  1.00  0.00     0.036 A 
HETATM   12  C   UNL     1      43.238 -17.233   3.128  1.00  0.00     0.053 A 
HETATM   13  C   UNL     1      43.559 -18.582   3.330  1.00  0.00     0.042 A 
HETATM   14  C   UNL     1      43.912 -19.060   4.602  1.00  0.00    -0.040 A 
HETATM   15 CL   UNL     1      43.520 -19.635   1.959  1.00  0.00    -0.084 Cl
HETATM   16  C   UNL     1      44.280 -20.496   4.843  1.00  0.00     0.050 C 
HETATM   17  C   UNL     1      43.935 -18.152   5.669  1.00  0.00     0.011 A 
HETATM   18  C   UNL     1      43.619 -16.806   5.464  1.00  0.00     0.030 A 
ENDBRANCH   8  11
ENDBRANCH   6   7
ENDBRANCH   1   6
BRANCH   5  19
HETATM   19  N   UNL     1      44.425 -11.622   4.937  1.00  0.00    -0.382 N 
HETATM   20  H   UNL     1      45.237 -11.562   5.553  1.00  0.00     0.157 HD
HETATM   21  H   UNL     1      44.676 -11.302   4.001  1.00  0.00     0.157 HD
ENDBRANCH   5  19
BRANCH   4  22
HETATM   22  C   UNL     1      43.529  -9.900   7.534  1.00  0.00     0.275 C 
HETATM   23  N   UNL     1      42.793  -9.040   8.325  1.00  0.00    -0.351 N 
HETATM   24  H   UNL     1      41.799  -8.944   8.156  1.00  0.00     0.163 HD
HETATM   25  O   UNL     1      44.749 -10.003   7.632  1.00  0.00    -0.266 OA
BRANCH  23  26
HETATM   26  C   UNL     1      43.428  -8.212   9.322  1.00  0.00     0.161 C 
BRANCH  26  27
HETATM   27  C   UNL     1      43.053  -8.644  10.715  1.00  0.00    -0.038 A 
HETATM   28  C   UNL     1      42.550  -7.704  11.634  1.00  0.00     0.045 A 
HETATM   29  C   UNL     1      42.221  -8.086  12.937  1.00  0.00     0.068 A 
HETATM   30  C   UNL     1      42.393  -9.417  13.321  1.00  0.00     0.037 A 
HETATM   31  C   UNL     1      42.888 -10.360  12.419  1.00  0.00     0.003 A 
HETATM   32  C   UNL     1      43.216  -9.976  11.121  1.00  0.00     0.009 A 
BRANCH  29  33
HETATM   33  O   UNL     1      41.731  -7.268  13.917  1.00  0.00    -0.356 OA
HETATM   34  C   UNL     1      42.594  -6.983  15.010  1.00  0.00     0.210 C 
ENDBRANCH  29  33
ENDBRANCH  26  27
ENDBRANCH  23  26
ENDBRANCH   4  22
TORSDOF 8
ENDMDL
