MODEL 1
REMARK VINA RESULT:      -7.8      0.000      0.000
REMARK  7 active torsions:
REMARK  status: ('A' for Active; 'I' for Inactive)
REMARK    1  A    between atoms: S_2  and  C_3 
REMARK    2  A    between atoms: C_3  and  C_4 
REMARK    3  A    between atoms: C_4  and  C_5 
REMARK    4  A    between atoms: C_5  and  N_6 
REMARK    5  A    between atoms: C_5  and  C_10 
REMARK       I    between atoms: N_6  and  C_7 
REMARK       I    between atoms: C_7  and  N_8 
REMARK       I    between atoms: C_10  and  N_11 
REMARK    6  A    between atoms: N_11  and  N_12 
REMARK       I    between atoms: N_12  and  C_13 
REMARK    7  A    between atoms: C_13  and  C_14 
ROOT
HETATM    1  C   UNL     1      44.269 -11.923   7.200  1.00  0.00     0.259 C 
HETATM    2  N   UNL     1      43.307 -12.909   7.250  1.00  0.00    -0.265 N 
HETATM    3  O   UNL     1      45.340 -12.099   6.609  1.00  0.00    -0.269 OA
HETATM    4  H   UNL     1      42.398 -12.819   7.703  1.00  0.00     0.190 HD
ENDROOT
BRANCH   2   5
HETATM    5  N   UNL     1      43.611 -14.175   6.742  1.00  0.00    -0.263 N 
HETATM    6  C   UNL     1      43.030 -14.572   5.548  1.00  0.00     0.278 C 
HETATM    7  O   UNL     1      42.337 -13.771   4.918  1.00  0.00    -0.265 OA
HETATM    8  H   UNL     1      44.167 -14.796   7.329  1.00  0.00     0.190 HD
BRANCH   6   9
HETATM    9  C   UNL     1      43.287 -15.943   5.129  1.00  0.00     0.097 A 
HETATM   10  S   UNL     1      43.562 -17.178   6.284  1.00  0.00    -0.082 SA
HETATM   11  C   UNL     1      43.704 -18.401   5.088  1.00  0.00     0.017 A 
HETATM   12  C   UNL     1      43.565 -17.877   3.801  1.00  0.00     0.004 A 
HETATM   13  C   UNL     1      43.931 -19.773   5.310  1.00  0.00     0.020 A 
HETATM   14  C   UNL     1      43.328 -16.454   3.845  1.00  0.00     0.068 A 
HETATM   15  C   UNL     1      43.668 -18.778   2.709  1.00  0.00     0.014 A 
HETATM   16 CL   UNL     1      43.126 -15.542   2.399  1.00  0.00    -0.082 Cl
HETATM   17  C   UNL     1      43.893 -20.141   2.924  1.00  0.00     0.001 A 
HETATM   18  C   UNL     1      44.022 -20.633   4.214  1.00  0.00     0.001 A 
ENDBRANCH   6   9
ENDBRANCH   2   5
BRANCH   1  19
HETATM   19  C   UNL     1      43.857 -10.555   7.802  1.00  0.00     0.180 C 
BRANCH  19  20
HETATM   20  C   UNL     1      43.038  -9.680   6.838  1.00  0.00     0.045 C 
BRANCH  20  21
HETATM   21  C   UNL     1      41.531  -9.774   7.073  1.00  0.00     0.076 C 
BRANCH  21  22
HETATM   22  S   UNL     1      40.741 -10.570   5.635  1.00  0.00    -0.173 SA
HETATM   23  C   UNL     1      42.025 -10.245   4.404  1.00  0.00     0.089 C 
ENDBRANCH  21  22
ENDBRANCH  20  21
ENDBRANCH  19  20
BRANCH  19  24
HETATM   24  N   UNL     1      43.247 -10.791   9.114  1.00  0.00    -0.330 N 
HETATM   25  C   UNL     1      43.958 -10.696  10.274  1.00  0.00     0.314 C 
HETATM   26  N   UNL     1      43.176 -10.791  11.377  1.00  0.00    -0.352 N 
HETATM   27  O   UNL     1      45.172 -10.608  10.364  1.00  0.00    -0.248 OA
HETATM   28  H   UNL     1      42.251 -10.390  11.355  1.00  0.00     0.160 HD
HETATM   29  H   UNL     1      43.683 -10.644  12.241  1.00  0.00     0.160 HD
HETATM   30  H   UNL     1      42.295 -10.466   9.198  1.00  0.00     0.165 HD
ENDBRANCH  19  24
ENDBRANCH   1  19
TORSDOF 7
ENDMDL
MODEL 2
REMARK VINA RESULT:      -7.5      1.837      2.295
REMARK  7 active torsions:
REMARK  status: ('A' for Active; 'I' for Inactive)
REMARK    1  A    between atoms: S_2  and  C_3 
REMARK    2  A    between atoms: C_3  and  C_4 
REMARK    3  A    between atoms: C_4  and  C_5 
REMARK    4  A    between atoms: C_5  and  N_6 
REMARK    5  A    between atoms: C_5  and  C_10 
REMARK       I    between atoms: N_6  and  C_7 
REMARK       I    between atoms: C_7  and  N_8 
REMARK       I    between atoms: C_10  and  N_11 
REMARK    6  A    between atoms: N_11  and  N_12 
REMARK       I    between atoms: N_12  and  C_13 
REMARK    7  A    between atoms: C_13  and  C_14 
ROOT
HETATM    1  C   UNL     1      44.491 -11.487   7.595  1.00  0.00     0.259 C 
HETATM    2  N   UNL     1      43.527 -12.472   7.591  1.00  0.00    -0.265 N 
HETATM    3  O   UNL     1      45.434 -11.507   6.796  1.00  0.00    -0.269 OA
HETATM    4  H   UNL     1      42.717 -12.503   8.209  1.00  0.00     0.190 HD
ENDROOT
BRANCH   2   5
HETATM    5  N   UNL     1      43.699 -13.582   6.758  1.00  0.00    -0.263 N 
HETATM    6  C   UNL     1      42.584 -14.145   6.157  1.00  0.00     0.278 C 
HETATM    7  O   UNL     1      41.486 -13.603   6.294  1.00  0.00    -0.265 OA
HETATM    8  H   UNL     1      44.629 -13.996   6.713  1.00  0.00     0.190 HD
BRANCH   6   9
HETATM    9  C   UNL     1      42.808 -15.368   5.398  1.00  0.00     0.097 A 
HETATM   10  S   UNL     1      42.386 -15.465   3.742  1.00  0.00    -0.082 SA
HETATM   11  C   UNL     1      42.978 -17.067   3.581  1.00  0.00     0.017 A 
HETATM   12  C   UNL     1      43.483 -17.549   4.792  1.00  0.00     0.004 A 
HETATM   13  C   UNL     1      42.985 -17.850   2.410  1.00  0.00     0.020 A 
HETATM   14  C   UNL     1      43.373 -16.554   5.830  1.00  0.00     0.068 A 
HETATM   15  C   UNL     1      44.001 -18.871   4.808  1.00  0.00     0.014 A 
HETATM   16 CL   UNL     1      43.910 -16.880   7.433  1.00  0.00    -0.082 Cl
HETATM   17  C   UNL     1      44.010 -19.652   3.649  1.00  0.00     0.001 A 
HETATM   18  C   UNL     1      43.507 -19.143   2.461  1.00  0.00     0.001 A 
ENDBRANCH   6   9
ENDBRANCH   2   5
BRANCH   1  19
HETATM   19  C   UNL     1      44.232 -10.303   8.560  1.00  0.00     0.180 C 
BRANCH  19  20
HETATM   20  C   UNL     1      43.659  -9.056   7.865  1.00  0.00     0.045 C 
BRANCH  20  21
HETATM   21  C   UNL     1      42.171  -9.180   7.537  1.00  0.00     0.076 C 
BRANCH  21  22
HETATM   22  S   UNL     1      41.222  -8.018   8.574  1.00  0.00    -0.173 SA
HETATM   23  C   UNL     1      40.170  -9.213   9.430  1.00  0.00     0.089 C 
ENDBRANCH  21  22
ENDBRANCH  20  21
ENDBRANCH  19  20
BRANCH  19  24
HETATM   24  N   UNL     1      43.461 -10.798   9.706  1.00  0.00    -0.330 N 
HETATM   25  C   UNL     1      43.460 -10.159  10.911  1.00  0.00     0.314 C 
HETATM   26  N   UNL     1      42.563 -10.685  11.781  1.00  0.00    -0.352 N 
HETATM   27  O   UNL     1      44.213  -9.258  11.245  1.00  0.00    -0.248 OA
HETATM   28  H   UNL     1      41.683 -11.028  11.425  1.00  0.00     0.160 HD
HETATM   29  H   UNL     1      42.499 -10.170  12.650  1.00  0.00     0.160 HD
HETATM   30  H   UNL     1      42.570 -11.206   9.466  1.00  0.00     0.165 HD
ENDBRANCH  19  24
ENDBRANCH   1  19
TORSDOF 7
ENDMDL
MODEL 3
REMARK VINA RESULT:      -7.3      1.987      2.864
REMARK  7 active torsions:
REMARK  status: ('A' for Active; 'I' for Inactive)
REMARK    1  A    between atoms: S_2  and  C_3 
REMARK    2  A    between atoms: C_3  and  C_4 
REMARK    3  A    between atoms: C_4  and  C_5 
REMARK    4  A    between atoms: C_5  and  N_6 
REMARK    5  A    between atoms: C_5  and  C_10 
REMARK       I    between atoms: N_6  and  C_7 
REMARK       I    between atoms: C_7  and  N_8 
REMARK       I    between atoms: C_10  and  N_11 
REMARK    6  A    between atoms: N_11  and  N_12 
REMARK       I    between atoms: N_12  and  C_13 
REMARK    7  A    between atoms: C_13  and  C_14 
ROOT
HETATM    1  C   UNL     1      44.431 -11.586   7.496  1.00  0.00     0.259 C 
HETATM    2  N   UNL     1      43.493 -12.596   7.508  1.00  0.00    -0.265 N 
HETATM    3  O   UNL     1      45.463 -11.675   6.823  1.00  0.00    -0.269 OA
HETATM    4  H   UNL     1      42.615 -12.576   8.025  1.00  0.00     0.190 HD
ENDROOT
BRANCH   2   5
HETATM    5  N   UNL     1      43.786 -13.797   6.853  1.00  0.00    -0.263 N 
HETATM    6  C   UNL     1      42.862 -14.313   5.959  1.00  0.00     0.278 C 
HETATM    7  O   UNL     1      41.851 -13.660   5.691  1.00  0.00    -0.265 OA
HETATM    8  H   UNL     1      44.625 -14.298   7.144  1.00  0.00     0.190 HD
BRANCH   6   9
HETATM    9  C   UNL     1      43.166 -15.623   5.400  1.00  0.00     0.097 A 
HETATM   10  S   UNL     1      43.541 -16.948   6.418  1.00  0.00    -0.082 SA
HETATM   11  C   UNL     1      43.693 -18.042   5.105  1.00  0.00     0.017 A 
HETATM   12  C   UNL     1      43.481 -17.404   3.881  1.00  0.00     0.004 A 
HETATM   13  C   UNL     1      43.992 -19.416   5.184  1.00  0.00     0.020 A 
HETATM   14  C   UNL     1      43.181 -16.006   4.072  1.00  0.00     0.068 A 
HETATM   15  C   UNL     1      43.584 -18.190   2.703  1.00  0.00     0.014 A 
HETATM   16 CL   UNL     1      42.883 -14.970   2.729  1.00  0.00    -0.082 Cl
HETATM   17  C   UNL     1      43.880 -19.554   2.776  1.00  0.00     0.001 A 
HETATM   18  C   UNL     1      44.080 -20.161   4.006  1.00  0.00     0.001 A 
ENDBRANCH   6   9
ENDBRANCH   2   5
BRANCH   1  19
HETATM   19  C   UNL     1      44.034 -10.297   8.260  1.00  0.00     0.180 C 
BRANCH  19  20
HETATM   20  C   UNL     1      45.220  -9.594   8.941  1.00  0.00     0.045 C 
BRANCH  20  21
HETATM   21  C   UNL     1      45.366  -9.957  10.418  1.00  0.00     0.076 C 
BRANCH  21  22
HETATM   22  S   UNL     1      43.737 -10.420  11.094  1.00  0.00    -0.173 SA
HETATM   23  C   UNL     1      43.274  -8.825  11.808  1.00  0.00     0.089 C 
ENDBRANCH  21  22
ENDBRANCH  20  21
ENDBRANCH  19  20
BRANCH  19  24
HETATM   24  N   UNL     1      43.230  -9.457   7.366  1.00  0.00    -0.330 N 
HETATM   25  C   UNL     1      41.993  -9.000   7.716  1.00  0.00     0.314 C 
HETATM   26  N   UNL     1      41.491  -8.113   6.822  1.00  0.00    -0.352 N 
HETATM   27  O   UNL     1      41.338  -9.370   8.677  1.00  0.00    -0.248 OA
HETATM   28  H   UNL     1      42.121  -7.473   6.364  1.00  0.00     0.160 HD
HETATM   29  H   UNL     1      40.609  -7.709   7.111  1.00  0.00     0.160 HD
HETATM   30  H   UNL     1      43.763  -8.798   6.819  1.00  0.00     0.165 HD
ENDBRANCH  19  24
ENDBRANCH   1  19
TORSDOF 7
ENDMDL
MODEL 4
REMARK VINA RESULT:      -7.2      6.234      8.532
REMARK  7 active torsions:
REMARK  status: ('A' for Active; 'I' for Inactive)
REMARK    1  A    between atoms: S_2  and  C_3 
REMARK    2  A    between atoms: C_3  and  C_4 
REMARK    3  A    between atoms: C_4  and  C_5 
REMARK    4  A    between atoms: C_5  and  N_6 
REMARK    5  A    between atoms: C_5  and  C_10 
REMARK       I    between atoms: N_6  and  C_7 
REMARK       I    between atoms: C_7  and  N_8 
REMARK       I    between atoms: C_10  and  N_11 
REMARK    6  A    between atoms: N_11  and  N_12 
REMARK       I    between atoms: N_12  and  C_13 
REMARK    7  A    between atoms: C_13  and  C_14 
ROOT
HETATM    1  C   UNL     1      40.658 -12.911  -0.839  1.00  0.00     0.259 C 
HETATM    2  N   UNL     1      40.954 -14.226  -0.551  1.00  0.00    -0.265 N 
HETATM    3  O   UNL     1      40.944 -12.001  -0.052  1.00  0.00    -0.269 OA
HETATM    4  H   UNL     1      40.763 -15.018  -1.165  1.00  0.00     0.190 HD
ENDROOT
BRANCH   2   5
HETATM    5  N   UNL     1      41.461 -14.544   0.712  1.00  0.00    -0.263 N 
HETATM    6  C   UNL     1      40.744 -15.413   1.520  1.00  0.00     0.278 C 
HETATM    7  O   UNL     1      39.731 -15.956   1.073  1.00  0.00    -0.265 OA
HETATM    8  H   UNL     1      42.287 -14.037   1.029  1.00  0.00     0.190 HD
BRANCH   6   9
HETATM    9  C   UNL     1      41.258 -15.613   2.868  1.00  0.00     0.097 A 
HETATM   10  S   UNL     1      40.861 -14.525   4.130  1.00  0.00    -0.082 SA
HETATM   11  C   UNL     1      41.727 -15.422   5.309  1.00  0.00     0.017 A 
HETATM   12  C   UNL     1      42.342 -16.544   4.749  1.00  0.00     0.004 A 
HETATM   13  C   UNL     1      41.842 -15.119   6.680  1.00  0.00     0.020 A 
HETATM   14  C   UNL     1      42.062 -16.635   3.336  1.00  0.00     0.068 A 
HETATM   15  C   UNL     1      43.102 -17.377   5.611  1.00  0.00     0.014 A 
HETATM   16 CL   UNL     1      42.703 -17.920   2.385  1.00  0.00    -0.082 Cl
HETATM   17  C   UNL     1      43.220 -17.081   6.973  1.00  0.00     0.001 A 
HETATM   18  C   UNL     1      42.593 -15.963   7.501  1.00  0.00     0.001 A 
ENDBRANCH   6   9
ENDBRANCH   2   5
BRANCH   1  19
HETATM   19  C   UNL     1      40.084 -12.649  -2.254  1.00  0.00     0.180 C 
BRANCH  19  20
HETATM   20  C   UNL     1      41.022 -11.830  -3.158  1.00  0.00     0.045 C 
BRANCH  20  21
HETATM   21  C   UNL     1      40.665 -10.345  -3.207  1.00  0.00     0.076 C 
BRANCH  21  22
HETATM   22  S   UNL     1      38.852 -10.155  -3.137  1.00  0.00    -0.173 SA
HETATM   23  C   UNL     1      38.735  -9.217  -1.597  1.00  0.00     0.089 C 
ENDBRANCH  21  22
ENDBRANCH  20  21
ENDBRANCH  19  20
BRANCH  19  24
HETATM   24  N   UNL     1      39.625 -13.925  -2.812  1.00  0.00    -0.330 N 
HETATM   25  C   UNL     1      38.311 -14.166  -3.089  1.00  0.00     0.314 C 
HETATM   26  N   UNL     1      38.121 -15.336  -3.745  1.00  0.00    -0.352 N 
HETATM   27  O   UNL     1      37.368 -13.472  -2.743  1.00  0.00    -0.248 OA
HETATM   28  H   UNL     1      38.809 -15.635  -4.418  1.00  0.00     0.160 HD
HETATM   29  H   UNL     1      37.159 -15.487  -4.023  1.00  0.00     0.160 HD
HETATM   30  H   UNL     1      40.259 -14.345  -3.474  1.00  0.00     0.165 HD
ENDBRANCH  19  24
ENDBRANCH   1  19
TORSDOF 7
ENDMDL
MODEL 5
REMARK VINA RESULT:      -6.9      2.541      3.077
REMARK  7 active torsions:
REMARK  status: ('A' for Active; 'I' for Inactive)
REMARK    1  A    between atoms: S_2  and  C_3 
REMARK    2  A    between atoms: C_3  and  C_4 
REMARK    3  A    between atoms: C_4  and  C_5 
REMARK    4  A    between atoms: C_5  and  N_6 
REMARK    5  A    between atoms: C_5  and  C_10 
REMARK       I    between atoms: N_6  and  C_7 
REMARK       I    between atoms: C_7  and  N_8 
REMARK       I    between atoms: C_10  and  N_11 
REMARK    6  A    between atoms: N_11  and  N_12 
REMARK       I    between atoms: N_12  and  C_13 
REMARK    7  A    between atoms: C_13  and  C_14 
ROOT
HETATM    1  C   UNL     1      39.931 -11.983   6.295  1.00  0.00     0.259 C 
HETATM    2  N   UNL     1      41.237 -12.412   6.397  1.00  0.00    -0.265 N 
HETATM    3  O   UNL     1      39.027 -12.751   5.949  1.00  0.00    -0.269 OA
HETATM    4  H   UNL     1      42.022 -11.835   6.695  1.00  0.00     0.190 HD
ENDROOT
BRANCH   2   5
HETATM    5  N   UNL     1      41.559 -13.703   5.966  1.00  0.00    -0.263 N 
HETATM    6  C   UNL     1      42.888 -14.095   5.969  1.00  0.00     0.278 C 
HETATM    7  O   UNL     1      43.741 -13.337   6.436  1.00  0.00    -0.265 OA
HETATM    8  H   UNL     1      40.809 -14.266   5.566  1.00  0.00     0.190 HD
BRANCH   6   9
HETATM    9  C   UNL     1      43.176 -15.404   5.399  1.00  0.00     0.097 A 
HETATM   10  S   UNL     1      43.599 -16.726   6.402  1.00  0.00    -0.082 SA
HETATM   11  C   UNL     1      43.704 -17.820   5.084  1.00  0.00     0.017 A 
HETATM   12  C   UNL     1      43.440 -17.184   3.869  1.00  0.00     0.004 A 
HETATM   13  C   UNL     1      44.012 -19.193   5.151  1.00  0.00     0.020 A 
HETATM   14  C   UNL     1      43.140 -15.787   4.071  1.00  0.00     0.068 A 
HETATM   15  C   UNL     1      43.500 -17.970   2.688  1.00  0.00     0.014 A 
HETATM   16 CL   UNL     1      42.783 -14.754   2.741  1.00  0.00    -0.082 Cl
HETATM   17  C   UNL     1      43.805 -19.333   2.749  1.00  0.00     0.001 A 
HETATM   18  C   UNL     1      44.057 -19.938   3.972  1.00  0.00     0.001 A 
ENDBRANCH   6   9
ENDBRANCH   2   5
BRANCH   1  19
HETATM   19  C   UNL     1      39.664 -10.535   6.778  1.00  0.00     0.180 C 
BRANCH  19  20
HETATM   20  C   UNL     1      38.834  -9.698   5.789  1.00  0.00     0.045 C 
BRANCH  20  21
HETATM   21  C   UNL     1      39.420  -8.310   5.536  1.00  0.00     0.076 C 
BRANCH  21  22
HETATM   22  S   UNL     1      41.222  -8.447   5.291  1.00  0.00    -0.173 SA
HETATM   23  C   UNL     1      41.742  -7.041   6.300  1.00  0.00     0.089 C 
ENDBRANCH  21  22
ENDBRANCH  20  21
ENDBRANCH  19  20
BRANCH  19  24
HETATM   24  N   UNL     1      39.146 -10.590   8.149  1.00  0.00    -0.330 N 
HETATM   25  C   UNL     1      39.464  -9.650   9.084  1.00  0.00     0.314 C 
HETATM   26  N   UNL     1      38.757  -9.793  10.232  1.00  0.00    -0.352 N 
HETATM   27  O   UNL     1      40.332  -8.798   8.977  1.00  0.00    -0.248 OA
HETATM   28  H   UNL     1      37.799 -10.103  10.178  1.00  0.00     0.160 HD
HETATM   29  H   UNL     1      38.929  -9.055  10.903  1.00  0.00     0.160 HD
HETATM   30  H   UNL     1      38.199 -10.929   8.225  1.00  0.00     0.165 HD
ENDBRANCH  19  24
ENDBRANCH   1  19
TORSDOF 7
ENDMDL
MODEL 6
REMARK VINA RESULT:      -6.8      2.925      3.524
REMARK  7 active torsions:
REMARK  status: ('A' for Active; 'I' for Inactive)
REMARK    1  A    between atoms: S_2  and  C_3 
REMARK    2  A    between atoms: C_3  and  C_4 
REMARK    3  A    between atoms: C_4  and  C_5 
REMARK    4  A    between atoms: C_5  and  N_6 
REMARK    5  A    between atoms: C_5  and  C_10 
REMARK       I    between atoms: N_6  and  C_7 
REMARK       I    between atoms: C_7  and  N_8 
REMARK       I    between atoms: C_10  and  N_11 
REMARK    6  A    between atoms: N_11  and  N_12 
REMARK       I    between atoms: N_12  and  C_13 
REMARK    7  A    between atoms: C_13  and  C_14 
ROOT
HETATM    1  C   UNL     1      41.693 -10.378   6.776  1.00  0.00     0.259 C 
HETATM    2  N   UNL     1      41.030 -11.586   6.783  1.00  0.00    -0.265 N 
HETATM    3  O   UNL     1      42.693 -10.197   6.074  1.00  0.00    -0.269 OA
HETATM    4  H   UNL     1      40.191 -11.792   7.324  1.00  0.00     0.190 HD
ENDROOT
BRANCH   2   5
HETATM    5  N   UNL     1      41.586 -12.665   6.088  1.00  0.00    -0.263 N 
HETATM    6  C   UNL     1      40.879 -13.855   6.027  1.00  0.00     0.278 C 
HETATM    7  O   UNL     1      39.743 -13.909   6.504  1.00  0.00    -0.265 OA
HETATM    8  H   UNL     1      42.540 -12.561   5.743  1.00  0.00     0.190 HD
BRANCH   6   9
HETATM    9  C   UNL     1      41.558 -14.977   5.393  1.00  0.00     0.097 A 
HETATM   10  S   UNL     1      41.361 -15.294   3.722  1.00  0.00    -0.082 SA
HETATM   11  C   UNL     1      42.447 -16.623   3.744  1.00  0.00     0.017 A 
HETATM   12  C   UNL     1      42.951 -16.849   5.027  1.00  0.00     0.004 A 
HETATM   13  C   UNL     1      42.823 -17.422   2.647  1.00  0.00     0.020 A 
HETATM   14  C   UNL     1      42.423 -15.891   5.967  1.00  0.00     0.068 A 
HETATM   15  C   UNL     1      43.859 -17.928   5.195  1.00  0.00     0.014 A 
HETATM   16 CL   UNL     1      42.868 -15.939   7.629  1.00  0.00    -0.082 Cl
HETATM   17  C   UNL     1      44.235 -18.724   4.109  1.00  0.00     0.001 A 
HETATM   18  C   UNL     1      43.722 -18.470   2.847  1.00  0.00     0.001 A 
ENDBRANCH   6   9
ENDBRANCH   2   5
BRANCH   1  19
HETATM   19  C   UNL     1      41.018  -9.242   7.587  1.00  0.00     0.180 C 
BRANCH  19  20
HETATM   20  C   UNL     1      40.635  -8.020   6.735  1.00  0.00     0.045 C 
BRANCH  20  21
HETATM   21  C   UNL     1      41.725  -6.950   6.694  1.00  0.00     0.076 C 
BRANCH  21  22
HETATM   22  S   UNL     1      42.382  -6.688   8.375  1.00  0.00    -0.173 SA
HETATM   23  C   UNL     1      40.958  -5.836   9.094  1.00  0.00     0.089 C 
ENDBRANCH  21  22
ENDBRANCH  20  21
ENDBRANCH  19  20
BRANCH  19  24
HETATM   24  N   UNL     1      39.932  -9.822   8.383  1.00  0.00    -0.330 N 
HETATM   25  C   UNL     1      39.841  -9.638   9.732  1.00  0.00     0.314 C 
HETATM   26  N   UNL     1      38.684 -10.118  10.249  1.00  0.00    -0.352 N 
HETATM   27  O   UNL     1      40.708  -9.165  10.450  1.00  0.00    -0.248 OA
HETATM   28  H   UNL     1      37.839 -10.045   9.703  1.00  0.00     0.160 HD
HETATM   29  H   UNL     1      38.572  -9.917  11.235  1.00  0.00     0.160 HD
HETATM   30  H   UNL     1      39.037  -9.842   7.919  1.00  0.00     0.165 HD
ENDBRANCH  19  24
ENDBRANCH   1  19
TORSDOF 7
ENDMDL
MODEL 7
REMARK VINA RESULT:      -6.7      1.930      2.229
REMARK  7 active torsions:
REMARK  status: ('A' for Active; 'I' for Inactive)
REMARK    1  A    between atoms: S_2  and  C_3 
REMARK    2  A    between atoms: C_3  and  C_4 
REMARK    3  A    between atoms: C_4  and  C_5 
REMARK    4  A    between atoms: C_5  and  N_6 
REMARK    5  A    between atoms: C_5  and  C_10 
REMARK       I    between atoms: N_6  and  C_7 
REMARK       I    between atoms: C_7  and  N_8 
REMARK       I    between atoms: C_10  and  N_11 
REMARK    6  A    between atoms: N_11  and  N_12 
REMARK       I    between atoms: N_12  and  C_13 
REMARK    7  A    between atoms: C_13  and  C_14 
ROOT
HETATM    1  C   UNL     1      43.364 -11.051   6.543  1.00  0.00     0.259 C 
HETATM    2  N   UNL     1      42.441 -12.053   6.754  1.00  0.00    -0.265 N 
HETATM    3  O   UNL     1      44.172 -11.107   5.610  1.00  0.00    -0.269 OA
HETATM    4  H   UNL     1      41.737 -12.056   7.491  1.00  0.00     0.190 HD
ENDROOT
BRANCH   2   5
HETATM    5  N   UNL     1      42.515 -13.214   5.979  1.00  0.00    -0.263 N 
HETATM    6  C   UNL     1      43.072 -14.354   6.535  1.00  0.00     0.278 C 
HETATM    7  O   UNL     1      43.402 -14.346   7.724  1.00  0.00    -0.265 OA
HETATM    8  H   UNL     1      42.252 -13.141   4.996  1.00  0.00     0.190 HD
BRANCH   6   9
HETATM    9  C   UNL     1      43.233 -15.495   5.645  1.00  0.00     0.097 A 
HETATM   10  S   UNL     1      44.166 -16.852   6.116  1.00  0.00    -0.082 SA
HETATM   11  C   UNL     1      43.831 -17.710   4.668  1.00  0.00     0.017 A 
HETATM   12  C   UNL     1      43.024 -16.962   3.806  1.00  0.00     0.004 A 
HETATM   13  C   UNL     1      44.280 -19.002   4.331  1.00  0.00     0.020 A 
HETATM   14  C   UNL     1      42.692 -15.684   4.387  1.00  0.00     0.068 A 
HETATM   15  C   UNL     1      42.672 -17.548   2.561  1.00  0.00     0.014 A 
HETATM   16 CL   UNL     1      41.714 -14.550   3.538  1.00  0.00    -0.082 Cl
HETATM   17  C   UNL     1      43.115 -18.830   2.222  1.00  0.00     0.001 A 
HETATM   18  C   UNL     1      43.910 -19.549   3.101  1.00  0.00     0.001 A 
ENDBRANCH   6   9
ENDBRANCH   2   5
BRANCH   1  19
HETATM   19  C   UNL     1      43.221  -9.808   7.457  1.00  0.00     0.180 C 
BRANCH  19  20
HETATM   20  C   UNL     1      41.761  -9.437   7.770  1.00  0.00     0.045 C 
BRANCH  20  21
HETATM   21  C   UNL     1      41.593  -7.989   8.226  1.00  0.00     0.076 C 
BRANCH  21  22
HETATM   22  S   UNL     1      40.168  -7.871   9.359  1.00  0.00    -0.173 SA
HETATM   23  C   UNL     1      39.527  -9.550   9.166  1.00  0.00     0.089 C 
ENDBRANCH  21  22
ENDBRANCH  20  21
ENDBRANCH  19  20
BRANCH  19  24
HETATM   24  N   UNL     1      44.091  -9.987   8.624  1.00  0.00    -0.330 N 
HETATM   25  C   UNL     1      45.047  -9.075   8.964  1.00  0.00     0.314 C 
HETATM   26  N   UNL     1      45.628  -9.347  10.158  1.00  0.00    -0.352 N 
HETATM   27  O   UNL     1      45.426  -8.144   8.272  1.00  0.00    -0.248 OA
HETATM   28  H   UNL     1      45.063  -9.739  10.896  1.00  0.00     0.160 HD
HETATM   29  H   UNL     1      46.284  -8.635  10.456  1.00  0.00     0.160 HD
HETATM   30  H   UNL     1      43.641 -10.414   9.420  1.00  0.00     0.165 HD
ENDBRANCH  19  24
ENDBRANCH   1  19
TORSDOF 7
ENDMDL
MODEL 8
REMARK VINA RESULT:      -6.7      2.726      3.179
REMARK  7 active torsions:
REMARK  status: ('A' for Active; 'I' for Inactive)
REMARK    1  A    between atoms: S_2  and  C_3 
REMARK    2  A    between atoms: C_3  and  C_4 
REMARK    3  A    between atoms: C_4  and  C_5 
REMARK    4  A    between atoms: C_5  and  N_6 
REMARK    5  A    between atoms: C_5  and  C_10 
REMARK       I    between atoms: N_6  and  C_7 
REMARK       I    between atoms: C_7  and  N_8 
REMARK       I    between atoms: C_10  and  N_11 
REMARK    6  A    between atoms: N_11  and  N_12 
REMARK       I    between atoms: N_12  and  C_13 
REMARK    7  A    between atoms: C_13  and  C_14 
ROOT
HETATM    1  C   UNL     1      41.783 -10.517   6.837  1.00  0.00     0.259 C 
HETATM    2  N   UNL     1      41.042 -11.672   6.715  1.00  0.00    -0.265 N 
HETATM    3  O   UNL     1      42.857 -10.376   6.243  1.00  0.00    -0.269 OA
HETATM    4  H   UNL     1      40.141 -11.842   7.161  1.00  0.00     0.190 HD
ENDROOT
BRANCH   2   5
HETATM    5  N   UNL     1      41.587 -12.754   6.016  1.00  0.00    -0.263 N 
HETATM    6  C   UNL     1      40.909 -13.962   6.020  1.00  0.00     0.278 C 
HETATM    7  O   UNL     1      39.801 -14.031   6.558  1.00  0.00    -0.265 OA
HETATM    8  H   UNL     1      42.519 -12.635   5.619  1.00  0.00     0.190 HD
BRANCH   6   9
HETATM    9  C   UNL     1      41.582 -15.083   5.378  1.00  0.00     0.097 A 
HETATM   10  S   UNL     1      41.355 -15.406   3.712  1.00  0.00    -0.082 SA
HETATM   11  C   UNL     1      42.448 -16.729   3.718  1.00  0.00     0.017 A 
HETATM   12  C   UNL     1      42.978 -16.948   4.992  1.00  0.00     0.004 A 
HETATM   13  C   UNL     1      42.808 -17.530   2.617  1.00  0.00     0.020 A 
HETATM   14  C   UNL     1      42.463 -15.989   5.939  1.00  0.00     0.068 A 
HETATM   15  C   UNL     1      43.895 -18.021   5.147  1.00  0.00     0.014 A 
HETATM   16 CL   UNL     1      42.939 -16.029   7.592  1.00  0.00    -0.082 Cl
HETATM   17  C   UNL     1      44.255 -18.819   4.057  1.00  0.00     0.001 A 
HETATM   18  C   UNL     1      43.717 -18.573   2.804  1.00  0.00     0.001 A 
ENDBRANCH   6   9
ENDBRANCH   2   5
BRANCH   1  19
HETATM   19  C   UNL     1      41.112  -9.375   7.642  1.00  0.00     0.180 C 
BRANCH  19  20
HETATM   20  C   UNL     1      40.602  -8.219   6.764  1.00  0.00     0.045 C 
BRANCH  20  21
HETATM   21  C   UNL     1      39.256  -8.514   6.105  1.00  0.00     0.076 C 
BRANCH  21  22
HETATM   22  S   UNL     1      39.254  -7.851   4.405  1.00  0.00    -0.173 SA
HETATM   23  C   UNL     1      40.678  -8.757   3.758  1.00  0.00     0.089 C 
ENDBRANCH  21  22
ENDBRANCH  20  21
ENDBRANCH  19  20
BRANCH  19  24
HETATM   24  N   UNL     1      40.121  -9.966   8.547  1.00  0.00    -0.330 N 
HETATM   25  C   UNL     1      39.823  -9.414   9.759  1.00  0.00     0.314 C 
HETATM   26  N   UNL     1      38.772 -10.018  10.364  1.00  0.00    -0.352 N 
HETATM   27  O   UNL     1      40.447  -8.523  10.312  1.00  0.00    -0.248 OA
HETATM   28  H   UNL     1      38.009 -10.354   9.797  1.00  0.00     0.160 HD
HETATM   29  H   UNL     1      38.494  -9.567  11.228  1.00  0.00     0.160 HD
HETATM   30  H   UNL     1      39.323 -10.375   8.085  1.00  0.00     0.165 HD
ENDBRANCH  19  24
ENDBRANCH   1  19
TORSDOF 7
ENDMDL
MODEL 9
REMARK VINA RESULT:      -6.6      2.441      3.294
REMARK  7 active torsions:
REMARK  status: ('A' for Active; 'I' for Inactive)
REMARK    1  A    between atoms: S_2  and  C_3 
REMARK    2  A    between atoms: C_3  and  C_4 
REMARK    3  A    between atoms: C_4  and  C_5 
REMARK    4  A    between atoms: C_5  and  N_6 
REMARK    5  A    between atoms: C_5  and  C_10 
REMARK       I    between atoms: N_6  and  C_7 
REMARK       I    between atoms: C_7  and  N_8 
REMARK       I    between atoms: C_10  and  N_11 
REMARK    6  A    between atoms: N_11  and  N_12 
REMARK       I    between atoms: N_12  and  C_13 
REMARK    7  A    between atoms: C_13  and  C_14 
ROOT
HETATM    1  C   UNL     1      42.655 -10.389   6.568  1.00  0.00     0.259 C 
HETATM    2  N   UNL     1      42.193 -11.573   7.102  1.00  0.00    -0.265 N 
HETATM    3  O   UNL     1      42.949 -10.295   5.371  1.00  0.00    -0.269 OA
HETATM    4  H   UNL     1      41.916 -11.710   8.073  1.00  0.00     0.190 HD
ENDROOT
BRANCH   2   5
HETATM    5  N   UNL     1      42.191 -12.720   6.302  1.00  0.00    -0.263 N 
HETATM    6  C   UNL     1      43.144 -13.699   6.535  1.00  0.00     0.278 C 
HETATM    7  O   UNL     1      43.908 -13.581   7.496  1.00  0.00    -0.265 OA
HETATM    8  H   UNL     1      41.552 -12.738   5.508  1.00  0.00     0.190 HD
BRANCH   6   9
HETATM    9  C   UNL     1      43.169 -14.812   5.596  1.00  0.00     0.097 A 
HETATM   10  S   UNL     1      42.652 -14.607   3.977  1.00  0.00    -0.082 SA
HETATM   11  C   UNL     1      43.026 -16.227   3.548  1.00  0.00     0.017 A 
HETATM   12  C   UNL     1      43.526 -16.941   4.639  1.00  0.00     0.004 A 
HETATM   13  C   UNL     1      42.871 -16.820   2.280  1.00  0.00     0.020 A 
HETATM   14  C   UNL     1      43.599 -16.108   5.814  1.00  0.00     0.068 A 
HETATM   15  C   UNL     1      43.872 -18.303   4.431  1.00  0.00     0.014 A 
HETATM   16 CL   UNL     1      44.173 -16.732   7.312  1.00  0.00    -0.082 Cl
HETATM   17  C   UNL     1      43.720 -18.896   3.174  1.00  0.00     0.001 A 
HETATM   18  C   UNL     1      43.226 -18.159   2.109  1.00  0.00     0.001 A 
ENDBRANCH   6   9
ENDBRANCH   2   5
BRANCH   1  19
HETATM   19  C   UNL     1      42.640  -9.173   7.528  1.00  0.00     0.180 C 
BRANCH  19  20
HETATM   20  C   UNL     1      41.740  -9.371   8.760  1.00  0.00     0.045 C 
BRANCH  20  21
HETATM   21  C   UNL     1      41.635  -8.122   9.635  1.00  0.00     0.076 C 
BRANCH  21  22
HETATM   22  S   UNL     1      41.659  -8.610  11.392  1.00  0.00    -0.173 SA
HETATM   23  C   UNL     1      43.448  -8.723  11.620  1.00  0.00     0.089 C 
ENDBRANCH  21  22
ENDBRANCH  20  21
ENDBRANCH  19  20
BRANCH  19  24
HETATM   24  N   UNL     1      44.026  -8.790   7.813  1.00  0.00    -0.330 N 
HETATM   25  C   UNL     1      44.926  -9.664   8.349  1.00  0.00     0.314 C 
HETATM   26  N   UNL     1      46.185  -9.163   8.383  1.00  0.00    -0.352 N 
HETATM   27  O   UNL     1      44.665 -10.757   8.825  1.00  0.00    -0.248 OA
HETATM   28  H   UNL     1      46.493  -8.568   7.629  1.00  0.00     0.160 HD
HETATM   29  H   UNL     1      46.873  -9.832   8.706  1.00  0.00     0.160 HD
HETATM   30  H   UNL     1      44.432  -8.156   7.142  1.00  0.00     0.165 HD
ENDBRANCH  19  24
ENDBRANCH   1  19
TORSDOF 7
ENDMDL
MODEL 10
REMARK VINA RESULT:      -6.6      2.490      3.701
REMARK  7 active torsions:
REMARK  status: ('A' for Active; 'I' for Inactive)
REMARK    1  A    between atoms: S_2  and  C_3 
REMARK    2  A    between atoms: C_3  and  C_4 
REMARK    3  A    between atoms: C_4  and  C_5 
REMARK    4  A    between atoms: C_5  and  N_6 
REMARK    5  A    between atoms: C_5  and  C_10 
REMARK       I    between atoms: N_6  and  C_7 
REMARK       I    between atoms: C_7  and  N_8 
REMARK       I    between atoms: C_10  and  N_11 
REMARK    6  A    between atoms: N_11  and  N_12 
REMARK       I    between atoms: N_12  and  C_13 
REMARK    7  A    between atoms: C_13  and  C_14 
ROOT
HETATM    1  C   UNL     1      40.667 -12.334   5.436  1.00  0.00     0.259 C 
HETATM    2  N   UNL     1      41.884 -12.921   5.709  1.00  0.00    -0.265 N 
HETATM    3  O   UNL     1      39.708 -13.000   5.031  1.00  0.00    -0.269 OA
HETATM    4  H   UNL     1      42.705 -12.432   6.063  1.00  0.00     0.190 HD
ENDROOT
BRANCH   2   5
HETATM    5  N   UNL     1      42.070 -14.270   5.389  1.00  0.00    -0.263 N 
HETATM    6  C   UNL     1      43.254 -14.887   5.759  1.00  0.00     0.278 C 
HETATM    7  O   UNL     1      44.072 -14.264   6.440  1.00  0.00    -0.265 OA
HETATM    8  H   UNL     1      41.366 -14.715   4.801  1.00  0.00     0.190 HD
BRANCH   6   9
HETATM    9  C   UNL     1      43.442 -16.255   5.296  1.00  0.00     0.097 A 
HETATM   10  S   UNL     1      43.678 -17.535   6.408  1.00  0.00    -0.082 SA
HETATM   11  C   UNL     1      43.745 -18.727   5.175  1.00  0.00     0.017 A 
HETATM   12  C   UNL     1      43.610 -18.157   3.907  1.00  0.00     0.004 A 
HETATM   13  C   UNL     1      43.913 -20.114   5.352  1.00  0.00     0.020 A 
HETATM   14  C   UNL     1      43.440 -16.728   3.997  1.00  0.00     0.068 A 
HETATM   15  C   UNL     1      43.656 -19.029   2.786  1.00  0.00     0.014 A 
HETATM   16 CL   UNL     1      43.258 -15.764   2.582  1.00  0.00    -0.082 Cl
HETATM   17  C   UNL     1      43.822 -20.406   2.957  1.00  0.00     0.001 A 
HETATM   18  C   UNL     1      43.947 -20.942   4.230  1.00  0.00     0.001 A 
ENDBRANCH   6   9
ENDBRANCH   2   5
BRANCH   1  19
HETATM   19  C   UNL     1      40.552 -10.833   5.805  1.00  0.00     0.180 C 
BRANCH  19  20
HETATM   20  C   UNL     1      41.578 -10.376   6.856  1.00  0.00     0.045 C 
BRANCH  20  21
HETATM   21  C   UNL     1      41.135  -9.134   7.628  1.00  0.00     0.076 C 
BRANCH  21  22
HETATM   22  S   UNL     1      39.584  -9.493   8.517  1.00  0.00    -0.173 SA
HETATM   23  C   UNL     1      40.172  -9.236  10.207  1.00  0.00     0.089 C 
ENDBRANCH  21  22
ENDBRANCH  20  21
ENDBRANCH  19  20
BRANCH  19  24
HETATM   24  N   UNL     1      40.529 -10.051   4.564  1.00  0.00    -0.330 N 
HETATM   25  C   UNL     1      41.593 -10.006   3.713  1.00  0.00     0.314 C 
HETATM   26  N   UNL     1      41.310  -9.363   2.554  1.00  0.00    -0.352 N 
HETATM   27  O   UNL     1      42.717 -10.420   3.950  1.00  0.00    -0.248 OA
HETATM   28  H   UNL     1      40.389  -9.460   2.155  1.00  0.00     0.160 HD
HETATM   29  H   UNL     1      42.069  -9.392   1.884  1.00  0.00     0.160 HD
HETATM   30  H   UNL     1      39.636 -10.040   4.093  1.00  0.00     0.165 HD
ENDBRANCH  19  24
ENDBRANCH   1  19
TORSDOF 7
ENDMDL
