MODEL 1
REMARK VINA RESULT:     -10.2      0.000      0.000
REMARK  6 active torsions:
REMARK  status: ('A' for Active; 'I' for Inactive)
REMARK    1  A    between atoms: C_4  and  C_5 
REMARK    2  A    between atoms: C_9  and  C_10 
REMARK       I    between atoms: C_10  and  N_11 
REMARK    3  A    between atoms: N_11  and  N_12 
REMARK       I    between atoms: N_12  and  C_13 
REMARK    4  A    between atoms: C_13  and  C_14 
REMARK    5  A    between atoms: C_14  and  O_15 
REMARK    6  A    between atoms: O_15  and  C_16 
ROOT
HETATM    1  C   UNL     1      44.233 -11.474   5.739  1.00  0.00     0.288 C 
HETATM    2  N   UNL     1      43.291 -12.440   5.439  1.00  0.00    -0.262 N 
HETATM    3  O   UNL     1      45.003 -11.125   4.844  1.00  0.00    -0.264 OA
HETATM    4  H   UNL     1      43.260 -12.733   4.466  1.00  0.00     0.190 HD
ENDROOT
BRANCH   2   5
HETATM    5  N   UNL     1      42.274 -12.880   6.278  1.00  0.00    -0.265 N 
HETATM    6  C   UNL     1      41.199 -13.624   5.832  1.00  0.00     0.260 C 
HETATM    7  O   UNL     1      40.188 -13.662   6.532  1.00  0.00    -0.269 OA
HETATM    8  H   UNL     1      42.102 -12.340   7.123  1.00  0.00     0.190 HD
BRANCH   6   9
HETATM    9  C   UNL     1      41.361 -14.401   4.518  1.00  0.00     0.280 C 
BRANCH   9  10
HETATM   10  O   UNL     1      42.710 -14.601   4.104  1.00  0.00    -0.342 OA
BRANCH  10  11
HETATM   11  C   UNL     1      43.149 -15.890   4.240  1.00  0.00     0.070 A 
HETATM   12  C   UNL     1      42.941 -16.745   3.158  1.00  0.00     0.049 A 
HETATM   13  C   UNL     1      43.295 -18.103   3.237  1.00  0.00    -0.023 A 
HETATM   14  C   UNL     1      43.850 -18.604   4.436  1.00  0.00    -0.026 A 
HETATM   15  C   UNL     1      43.098 -18.978   2.154  1.00  0.00     0.012 A 
HETATM   16  C   UNL     1      44.044 -17.733   5.519  1.00  0.00     0.015 A 
HETATM   17  C   UNL     1      44.181 -19.967   4.525  1.00  0.00     0.012 A 
HETATM   18  C   UNL     1      43.689 -16.385   5.425  1.00  0.00     0.037 A 
HETATM   19  C   UNL     1      43.973 -20.823   3.443  1.00  0.00     0.001 A 
HETATM   20  C   UNL     1      43.437 -20.329   2.258  1.00  0.00     0.001 A 
ENDBRANCH  10  11
ENDBRANCH   9  10
ENDBRANCH   6   9
ENDBRANCH   2   5
BRANCH   1  21
HETATM   21  C   UNL     1      44.362 -10.962   7.078  1.00  0.00     0.121 A 
HETATM   22  N   UNL     1      45.506 -11.182   7.799  1.00  0.00    -0.272 N 
HETATM   23  N   UNL     1      45.429 -10.807   9.082  1.00  0.00    -0.174 NA
HETATM   24  H   UNL     1      46.349 -11.648   7.474  1.00  0.00     0.189 HD
HETATM   25  C   UNL     1      44.225 -10.225   9.188  1.00  0.00     0.089 A 
HETATM   26  C   UNL     1      43.551 -10.247   7.937  1.00  0.00     0.071 A 
BRANCH  25  27
HETATM   27  C   UNL     1      43.718  -9.721  10.460  1.00  0.00    -0.006 A 
HETATM   28  C   UNL     1      43.523  -8.349  10.666  1.00  0.00     0.014 A 
HETATM   29  C   UNL     1      42.989  -7.885  11.871  1.00  0.00     0.001 A 
HETATM   30  C   UNL     1      42.641  -8.787  12.876  1.00  0.00     0.000 A 
HETATM   31  C   UNL     1      42.834 -10.153  12.682  1.00  0.00     0.001 A 
HETATM   32  C   UNL     1      43.376 -10.618  11.482  1.00  0.00     0.014 A 
ENDBRANCH  25  27
ENDBRANCH   1  21
TORSDOF 6
ENDMDL
MODEL 2
REMARK VINA RESULT:     -10.1      3.602      7.771
REMARK  6 active torsions:
REMARK  status: ('A' for Active; 'I' for Inactive)
REMARK    1  A    between atoms: C_4  and  C_5 
REMARK    2  A    between atoms: C_9  and  C_10 
REMARK       I    between atoms: C_10  and  N_11 
REMARK    3  A    between atoms: N_11  and  N_12 
REMARK       I    between atoms: N_12  and  C_13 
REMARK    4  A    between atoms: C_13  and  C_14 
REMARK    5  A    between atoms: C_14  and  O_15 
REMARK    6  A    between atoms: O_15  and  C_16 
ROOT
HETATM    1  C   UNL     1      43.569 -13.453   6.561  1.00  0.00     0.288 C 
HETATM    2  N   UNL     1      42.427 -12.676   6.634  1.00  0.00    -0.262 N 
HETATM    3  O   UNL     1      44.653 -12.900   6.751  1.00  0.00    -0.264 OA
HETATM    4  H   UNL     1      42.573 -11.712   6.921  1.00  0.00     0.190 HD
ENDROOT
BRANCH   2   5
HETATM    5  N   UNL     1      41.118 -13.137   6.559  1.00  0.00    -0.265 N 
HETATM    6  C   UNL     1      40.229 -12.721   5.587  1.00  0.00     0.260 C 
HETATM    7  O   UNL     1      39.026 -12.880   5.793  1.00  0.00    -0.269 OA
HETATM    8  H   UNL     1      40.690 -13.463   7.422  1.00  0.00     0.190 HD
BRANCH   6   9
HETATM    9  C   UNL     1      40.806 -12.141   4.288  1.00  0.00     0.280 C 
BRANCH   9  10
HETATM   10  O   UNL     1      41.725 -12.993   3.610  1.00  0.00    -0.342 OA
BRANCH  10  11
HETATM   11  C   UNL     1      41.227 -13.546   2.461  1.00  0.00     0.070 A 
HETATM   12  C   UNL     1      41.265 -12.755   1.312  1.00  0.00     0.049 A 
HETATM   13  C   UNL     1      40.711 -13.215   0.105  1.00  0.00    -0.023 A 
HETATM   14  C   UNL     1      40.094 -14.486   0.067  1.00  0.00    -0.026 A 
HETATM   15  C   UNL     1      40.745 -12.434  -1.063  1.00  0.00     0.012 A 
HETATM   16  C   UNL     1      40.057 -15.265   1.235  1.00  0.00     0.015 A 
HETATM   17  C   UNL     1      39.518 -14.936  -1.132  1.00  0.00     0.012 A 
HETATM   18  C   UNL     1      40.614 -14.795   2.427  1.00  0.00     0.037 A 
HETATM   19  C   UNL     1      39.555 -14.146  -2.282  1.00  0.00     0.001 A 
HETATM   20  C   UNL     1      40.171 -12.899  -2.249  1.00  0.00     0.001 A 
ENDBRANCH  10  11
ENDBRANCH   9  10
ENDBRANCH   6   9
ENDBRANCH   2   5
BRANCH   1  21
HETATM   21  C   UNL     1      43.492 -14.840   6.187  1.00  0.00     0.121 A 
HETATM   22  N   UNL     1      43.632 -15.823   7.131  1.00  0.00    -0.272 N 
HETATM   23  N   UNL     1      43.714 -17.061   6.629  1.00  0.00    -0.174 NA
HETATM   24  H   UNL     1      43.744 -15.693   8.133  1.00  0.00     0.189 HD
HETATM   25  C   UNL     1      43.519 -16.902   5.312  1.00  0.00     0.089 A 
HETATM   26  C   UNL     1      43.314 -15.529   5.004  1.00  0.00     0.071 A 
BRANCH  25  27
HETATM   27  C   UNL     1      43.587 -18.020   4.377  1.00  0.00    -0.006 A 
HETATM   28  C   UNL     1      44.046 -19.278   4.788  1.00  0.00     0.014 A 
HETATM   29  C   UNL     1      44.058 -20.351   3.893  1.00  0.00     0.001 A 
HETATM   30  C   UNL     1      43.606 -20.179   2.586  1.00  0.00     0.000 A 
HETATM   31  C   UNL     1      43.149 -18.930   2.167  1.00  0.00     0.001 A 
HETATM   32  C   UNL     1      43.146 -17.854   3.056  1.00  0.00     0.014 A 
ENDBRANCH  25  27
ENDBRANCH   1  21
TORSDOF 6
ENDMDL
MODEL 3
REMARK VINA RESULT:     -10.1      3.620      6.655
REMARK  6 active torsions:
REMARK  status: ('A' for Active; 'I' for Inactive)
REMARK    1  A    between atoms: C_4  and  C_5 
REMARK    2  A    between atoms: C_9  and  C_10 
REMARK       I    between atoms: C_10  and  N_11 
REMARK    3  A    between atoms: N_11  and  N_12 
REMARK       I    between atoms: N_12  and  C_13 
REMARK    4  A    between atoms: C_13  and  C_14 
REMARK    5  A    between atoms: C_14  and  O_15 
REMARK    6  A    between atoms: O_15  and  C_16 
ROOT
HETATM    1  C   UNL     1      43.607 -11.655   5.063  1.00  0.00     0.288 C 
HETATM    2  N   UNL     1      42.927 -12.024   6.209  1.00  0.00    -0.262 N 
HETATM    3  O   UNL     1      44.748 -11.209   5.190  1.00  0.00    -0.264 OA
HETATM    4  H   UNL     1      43.462 -11.967   7.072  1.00  0.00     0.190 HD
ENDROOT
BRANCH   2   5
HETATM    5  N   UNL     1      41.685 -12.644   6.260  1.00  0.00    -0.265 N 
HETATM    6  C   UNL     1      41.528 -14.016   6.264  1.00  0.00     0.260 C 
HETATM    7  O   UNL     1      40.432 -14.477   5.949  1.00  0.00    -0.269 OA
HETATM    8  H   UNL     1      40.889 -12.122   5.899  1.00  0.00     0.190 HD
BRANCH   6   9
HETATM    9  C   UNL     1      42.718 -14.872   6.721  1.00  0.00     0.280 C 
BRANCH   9  10
HETATM   10  O   UNL     1      43.761 -15.006   5.760  1.00  0.00    -0.342 OA
BRANCH  10  11
HETATM   11  C   UNL     1      43.585 -16.048   4.889  1.00  0.00     0.070 A 
HETATM   12  C   UNL     1      43.890 -17.324   5.362  1.00  0.00     0.049 A 
HETATM   13  C   UNL     1      43.806 -18.443   4.515  1.00  0.00    -0.023 A 
HETATM   14  C   UNL     1      43.426 -18.262   3.166  1.00  0.00    -0.026 A 
HETATM   15  C   UNL     1      44.104 -19.737   4.976  1.00  0.00     0.012 A 
HETATM   16  C   UNL     1      43.132 -16.969   2.704  1.00  0.00     0.015 A 
HETATM   17  C   UNL     1      43.367 -19.376   2.312  1.00  0.00     0.012 A 
HETATM   18  C   UNL     1      43.217 -15.867   3.558  1.00  0.00     0.037 A 
HETATM   19  C   UNL     1      43.672 -20.653   2.784  1.00  0.00     0.001 A 
HETATM   20  C   UNL     1      44.036 -20.834   4.115  1.00  0.00     0.001 A 
ENDBRANCH  10  11
ENDBRANCH   9  10
ENDBRANCH   6   9
ENDBRANCH   2   5
BRANCH   1  21
HETATM   21  C   UNL     1      42.965 -11.711   3.777  1.00  0.00     0.121 A 
HETATM   22  N   UNL     1      42.494 -10.569   3.184  1.00  0.00    -0.272 N 
HETATM   23  N   UNL     1      41.769 -10.780   2.079  1.00  0.00    -0.174 NA
HETATM   24  H   UNL     1      42.588  -9.619   3.535  1.00  0.00     0.189 HD
HETATM   25  C   UNL     1      41.847 -12.103   1.876  1.00  0.00     0.089 A 
HETATM   26  C   UNL     1      42.641 -12.714   2.885  1.00  0.00     0.071 A 
BRANCH  25  27
HETATM   27  C   UNL     1      41.135 -12.763   0.787  1.00  0.00    -0.006 A 
HETATM   28  C   UNL     1      40.951 -12.125  -0.447  1.00  0.00     0.014 A 
HETATM   29  C   UNL     1      40.312 -12.789  -1.497  1.00  0.00     0.001 A 
HETATM   30  C   UNL     1      39.857 -14.096  -1.325  1.00  0.00     0.000 A 
HETATM   31  C   UNL     1      40.033 -14.738  -0.101  1.00  0.00     0.001 A 
HETATM   32  C   UNL     1      40.663 -14.073   0.952  1.00  0.00     0.014 A 
ENDBRANCH  25  27
ENDBRANCH   1  21
TORSDOF 6
ENDMDL
MODEL 4
REMARK VINA RESULT:     -10.0      1.441      1.823
REMARK  6 active torsions:
REMARK  status: ('A' for Active; 'I' for Inactive)
REMARK    1  A    between atoms: C_4  and  C_5 
REMARK    2  A    between atoms: C_9  and  C_10 
REMARK       I    between atoms: C_10  and  N_11 
REMARK    3  A    between atoms: N_11  and  N_12 
REMARK       I    between atoms: N_12  and  C_13 
REMARK    4  A    between atoms: C_13  and  C_14 
REMARK    5  A    between atoms: C_14  and  O_15 
REMARK    6  A    between atoms: O_15  and  C_16 
ROOT
HETATM    1  C   UNL     1      44.711 -10.953   7.899  1.00  0.00     0.288 C 
HETATM    2  N   UNL     1      44.367 -12.099   7.205  1.00  0.00    -0.262 N 
HETATM    3  O   UNL     1      45.784 -10.415   7.623  1.00  0.00    -0.264 OA
HETATM    4  H   UNL     1      45.002 -12.364   6.457  1.00  0.00     0.190 HD
ENDROOT
BRANCH   2   5
HETATM    5  N   UNL     1      43.159 -12.780   7.297  1.00  0.00    -0.265 N 
HETATM    6  C   UNL     1      42.523 -13.336   6.204  1.00  0.00     0.260 C 
HETATM    7  O   UNL     1      41.323 -13.591   6.297  1.00  0.00    -0.269 OA
HETATM    8  H   UNL     1      42.547 -12.538   8.073  1.00  0.00     0.190 HD
BRANCH   6   9
HETATM    9  C   UNL     1      43.373 -13.652   4.965  1.00  0.00     0.280 C 
BRANCH   9  10
HETATM   10  O   UNL     1      42.765 -14.546   4.037  1.00  0.00    -0.342 OA
BRANCH  10  11
HETATM   11  C   UNL     1      43.189 -15.843   4.154  1.00  0.00     0.070 A 
HETATM   12  C   UNL     1      42.912 -16.697   3.087  1.00  0.00     0.049 A 
HETATM   13  C   UNL     1      43.248 -18.060   3.152  1.00  0.00    -0.023 A 
HETATM   14  C   UNL     1      43.856 -18.567   4.322  1.00  0.00    -0.026 A 
HETATM   15  C   UNL     1      42.981 -18.934   2.083  1.00  0.00     0.012 A 
HETATM   16  C   UNL     1      44.120 -17.696   5.390  1.00  0.00     0.015 A 
HETATM   17  C   UNL     1      44.169 -19.935   4.398  1.00  0.00     0.012 A 
HETATM   18  C   UNL     1      43.782 -16.343   5.310  1.00  0.00     0.037 A 
HETATM   19  C   UNL     1      43.891 -20.790   3.330  1.00  0.00     0.001 A 
HETATM   20  C   UNL     1      43.302 -20.290   2.173  1.00  0.00     0.001 A 
ENDBRANCH  10  11
ENDBRANCH   9  10
ENDBRANCH   6   9
ENDBRANCH   2   5
BRANCH   1  21
HETATM   21  C   UNL     1      43.881 -10.463   8.967  1.00  0.00     0.121 A 
HETATM   22  N   UNL     1      42.641  -9.943   8.701  1.00  0.00    -0.272 N 
HETATM   23  N   UNL     1      42.048  -9.367   9.753  1.00  0.00    -0.174 NA
HETATM   24  H   UNL     1      42.182  -9.899   7.795  1.00  0.00     0.189 HD
HETATM   25  C   UNL     1      42.880  -9.604  10.777  1.00  0.00     0.089 A 
HETATM   26  C   UNL     1      44.012 -10.344  10.336  1.00  0.00     0.071 A 
BRANCH  25  27
HETATM   27  C   UNL     1      42.627  -9.087  12.118  1.00  0.00    -0.006 A 
HETATM   28  C   UNL     1      43.391  -8.036  12.643  1.00  0.00     0.014 A 
HETATM   29  C   UNL     1      43.104  -7.519  13.909  1.00  0.00     0.001 A 
HETATM   30  C   UNL     1      42.049  -8.041  14.656  1.00  0.00     0.000 A 
HETATM   31  C   UNL     1      41.285  -9.089  14.144  1.00  0.00     0.001 A 
HETATM   32  C   UNL     1      41.577  -9.613  12.883  1.00  0.00     0.014 A 
ENDBRANCH  25  27
ENDBRANCH   1  21
TORSDOF 6
ENDMDL
MODEL 5
REMARK VINA RESULT:      -9.8      1.518     10.440
REMARK  6 active torsions:
REMARK  status: ('A' for Active; 'I' for Inactive)
REMARK    1  A    between atoms: C_4  and  C_5 
REMARK    2  A    between atoms: C_9  and  C_10 
REMARK       I    between atoms: C_10  and  N_11 
REMARK    3  A    between atoms: N_11  and  N_12 
REMARK       I    between atoms: N_12  and  C_13 
REMARK    4  A    between atoms: C_13  and  C_14 
REMARK    5  A    between atoms: C_14  and  O_15 
REMARK    6  A    between atoms: O_15  and  C_16 
ROOT
HETATM    1  C   UNL     1      42.102 -13.641   6.051  1.00  0.00     0.288 C 
HETATM    2  N   UNL     1      42.968 -12.822   6.752  1.00  0.00    -0.262 N 
HETATM    3  O   UNL     1      40.893 -13.481   6.223  1.00  0.00    -0.264 OA
HETATM    4  H   UNL     1      42.527 -12.091   7.303  1.00  0.00     0.190 HD
ENDROOT
BRANCH   2   5
HETATM    5  N   UNL     1      44.349 -12.778   6.609  1.00  0.00    -0.265 N 
HETATM    6  C   UNL     1      45.095 -11.641   6.853  1.00  0.00     0.260 C 
HETATM    7  O   UNL     1      46.224 -11.572   6.368  1.00  0.00    -0.269 OA
HETATM    8  H   UNL     1      44.771 -13.438   5.960  1.00  0.00     0.190 HD
BRANCH   6   9
HETATM    9  C   UNL     1      44.486 -10.565   7.761  1.00  0.00     0.280 C 
BRANCH   9  10
HETATM   10  O   UNL     1      44.084 -11.027   9.048  1.00  0.00    -0.342 OA
BRANCH  10  11
HETATM   11  C   UNL     1      43.779 -10.024   9.928  1.00  0.00     0.070 A 
HETATM   12  C   UNL     1      43.325 -10.408  11.190  1.00  0.00     0.049 A 
HETATM   13  C   UNL     1      42.922  -9.445  12.132  1.00  0.00    -0.023 A 
HETATM   14  C   UNL     1      42.961  -8.077  11.783  1.00  0.00    -0.026 A 
HETATM   15  C   UNL     1      42.468  -9.814  13.410  1.00  0.00     0.012 A 
HETATM   16  C   UNL     1      43.411  -7.708  10.505  1.00  0.00     0.015 A 
HETATM   17  C   UNL     1      42.534  -7.116  12.714  1.00  0.00     0.012 A 
HETATM   18  C   UNL     1      43.811  -8.676   9.581  1.00  0.00     0.037 A 
HETATM   19  C   UNL     1      42.080  -7.499  13.977  1.00  0.00     0.001 A 
HETATM   20  C   UNL     1      42.051  -8.846  14.326  1.00  0.00     0.001 A 
ENDBRANCH  10  11
ENDBRANCH   9  10
ENDBRANCH   6   9
ENDBRANCH   2   5
BRANCH   1  21
HETATM   21  C   UNL     1      42.606 -14.701   5.218  1.00  0.00     0.121 A 
HETATM   22  N   UNL     1      42.818 -14.492   3.880  1.00  0.00    -0.272 N 
HETATM   23  N   UNL     1      43.120 -15.599   3.191  1.00  0.00    -0.174 NA
HETATM   24  H   UNL     1      42.705 -13.617   3.376  1.00  0.00     0.189 HD
HETATM   25  C   UNL     1      43.209 -16.559   4.123  1.00  0.00     0.089 A 
HETATM   26  C   UNL     1      42.955 -16.022   5.414  1.00  0.00     0.071 A 
BRANCH  25  27
HETATM   27  C   UNL     1      43.471 -17.953   3.778  1.00  0.00    -0.006 A 
HETATM   28  C   UNL     1      43.957 -18.854   4.734  1.00  0.00     0.014 A 
HETATM   29  C   UNL     1      44.155 -20.197   4.401  1.00  0.00     0.001 A 
HETATM   30  C   UNL     1      43.862 -20.651   3.116  1.00  0.00     0.000 A 
HETATM   31  C   UNL     1      43.380 -19.761   2.157  1.00  0.00     0.001 A 
HETATM   32  C   UNL     1      43.191 -18.417   2.485  1.00  0.00     0.014 A 
ENDBRANCH  25  27
ENDBRANCH   1  21
TORSDOF 6
ENDMDL
MODEL 6
REMARK VINA RESULT:      -9.7      3.284      6.670
REMARK  6 active torsions:
REMARK  status: ('A' for Active; 'I' for Inactive)
REMARK    1  A    between atoms: C_4  and  C_5 
REMARK    2  A    between atoms: C_9  and  C_10 
REMARK       I    between atoms: C_10  and  N_11 
REMARK    3  A    between atoms: N_11  and  N_12 
REMARK       I    between atoms: N_12  and  C_13 
REMARK    4  A    between atoms: C_13  and  C_14 
REMARK    5  A    between atoms: C_14  and  O_15 
REMARK    6  A    between atoms: O_15  and  C_16 
ROOT
HETATM    1  C   UNL     1      40.794 -10.790   6.351  1.00  0.00     0.288 C 
HETATM    2  N   UNL     1      42.098 -10.329   6.372  1.00  0.00    -0.262 N 
HETATM    3  O   UNL     1      40.025 -10.379   7.220  1.00  0.00    -0.264 OA
HETATM    4  H   UNL     1      42.298  -9.616   7.068  1.00  0.00     0.190 HD
ENDROOT
BRANCH   2   5
HETATM    5  N   UNL     1      43.075 -10.592   5.419  1.00  0.00    -0.265 N 
HETATM    6  C   UNL     1      44.147 -11.430   5.652  1.00  0.00     0.260 C 
HETATM    7  O   UNL     1      45.132 -11.330   4.921  1.00  0.00    -0.269 OA
HETATM    8  H   UNL     1      43.230  -9.883   4.705  1.00  0.00     0.190 HD
BRANCH   6   9
HETATM    9  C   UNL     1      44.013 -12.472   6.771  1.00  0.00     0.280 C 
BRANCH   9  10
HETATM   10  O   UNL     1      42.962 -13.417   6.584  1.00  0.00    -0.342 OA
BRANCH  10  11
HETATM   11  C   UNL     1      43.378 -14.619   6.077  1.00  0.00     0.070 A 
HETATM   12  C   UNL     1      43.045 -14.894   4.751  1.00  0.00     0.049 A 
HETATM   13  C   UNL     1      43.370 -16.132   4.171  1.00  0.00    -0.023 A 
HETATM   14  C   UNL     1      44.023 -17.112   4.953  1.00  0.00    -0.026 A 
HETATM   15  C   UNL     1      43.047 -16.424   2.835  1.00  0.00     0.012 A 
HETATM   16  C   UNL     1      44.343 -16.822   6.289  1.00  0.00     0.015 A 
HETATM   17  C   UNL     1      44.325 -18.359   4.382  1.00  0.00     0.012 A 
HETATM   18  C   UNL     1      44.016 -15.585   6.850  1.00  0.00     0.037 A 
HETATM   19  C   UNL     1      43.993 -18.635   3.055  1.00  0.00     0.001 A 
HETATM   20  C   UNL     1      43.358 -17.669   2.281  1.00  0.00     0.001 A 
ENDBRANCH  10  11
ENDBRANCH   9  10
ENDBRANCH   6   9
ENDBRANCH   2   5
BRANCH   1  21
HETATM   21  C   UNL     1      40.382 -11.786   5.397  1.00  0.00     0.121 A 
HETATM   22  N   UNL     1      40.026 -13.041   5.813  1.00  0.00    -0.272 N 
HETATM   23  N   UNL     1      39.832 -13.917   4.819  1.00  0.00    -0.174 NA
HETATM   24  H   UNL     1      39.965 -13.369   6.773  1.00  0.00     0.189 HD
HETATM   25  C   UNL     1      39.966 -13.188   3.701  1.00  0.00     0.089 A 
HETATM   26  C   UNL     1      40.250 -11.833   4.024  1.00  0.00     0.071 A 
BRANCH  25  27
HETATM   27  C   UNL     1      39.884 -13.785   2.372  1.00  0.00    -0.006 A 
HETATM   28  C   UNL     1      39.844 -12.985   1.223  1.00  0.00     0.014 A 
HETATM   29  C   UNL     1      39.816 -13.572  -0.045  1.00  0.00     0.001 A 
HETATM   30  C   UNL     1      39.835 -14.960  -0.175  1.00  0.00     0.000 A 
HETATM   31  C   UNL     1      39.872 -15.764   0.963  1.00  0.00     0.001 A 
HETATM   32  C   UNL     1      39.890 -15.180   2.230  1.00  0.00     0.014 A 
ENDBRANCH  25  27
ENDBRANCH   1  21
TORSDOF 6
ENDMDL
MODEL 7
REMARK VINA RESULT:      -9.7      3.616      7.196
REMARK  6 active torsions:
REMARK  status: ('A' for Active; 'I' for Inactive)
REMARK    1  A    between atoms: C_4  and  C_5 
REMARK    2  A    between atoms: C_9  and  C_10 
REMARK       I    between atoms: C_10  and  N_11 
REMARK    3  A    between atoms: N_11  and  N_12 
REMARK       I    between atoms: N_12  and  C_13 
REMARK    4  A    between atoms: C_13  and  C_14 
REMARK    5  A    between atoms: C_14  and  O_15 
REMARK    6  A    between atoms: O_15  and  C_16 
ROOT
HETATM    1  C   UNL     1      39.800 -12.272   5.757  1.00  0.00     0.288 C 
HETATM    2  N   UNL     1      40.974 -11.957   6.415  1.00  0.00    -0.262 N 
HETATM    3  O   UNL     1      38.750 -12.225   6.399  1.00  0.00    -0.264 OA
HETATM    4  H   UNL     1      40.864 -11.630   7.372  1.00  0.00     0.190 HD
ENDROOT
BRANCH   2   5
HETATM    5  N   UNL     1      42.233 -11.848   5.837  1.00  0.00    -0.265 N 
HETATM    6  C   UNL     1      43.222 -12.797   6.003  1.00  0.00     0.260 C 
HETATM    7  O   UNL     1      44.387 -12.470   5.777  1.00  0.00    -0.269 OA
HETATM    8  H   UNL     1      42.568 -10.910   5.626  1.00  0.00     0.190 HD
BRANCH   6   9
HETATM    9  C   UNL     1      42.794 -14.217   6.401  1.00  0.00     0.280 C 
BRANCH   9  10
HETATM   10  O   UNL     1      43.811 -15.206   6.273  1.00  0.00    -0.342 OA
BRANCH  10  11
HETATM   11  C   UNL     1      43.590 -16.104   5.263  1.00  0.00     0.070 A 
HETATM   12  C   UNL     1      43.917 -17.435   5.520  1.00  0.00     0.049 A 
HETATM   13  C   UNL     1      43.788 -18.412   4.518  1.00  0.00    -0.023 A 
HETATM   14  C   UNL     1      43.341 -18.031   3.233  1.00  0.00    -0.026 A 
HETATM   15  C   UNL     1      44.108 -19.760   4.761  1.00  0.00     0.012 A 
HETATM   16  C   UNL     1      43.025 -16.685   2.989  1.00  0.00     0.015 A 
HETATM   17  C   UNL     1      43.237 -19.002   2.223  1.00  0.00     0.012 A 
HETATM   18  C   UNL     1      43.155 -15.725   3.996  1.00  0.00     0.037 A 
HETATM   19  C   UNL     1      43.564 -20.334   2.479  1.00  0.00     0.001 A 
HETATM   20  C   UNL     1      43.995 -20.714   3.747  1.00  0.00     0.001 A 
ENDBRANCH  10  11
ENDBRANCH   9  10
ENDBRANCH   6   9
ENDBRANCH   2   5
BRANCH   1  21
HETATM   21  C   UNL     1      39.822 -12.726   4.392  1.00  0.00     0.121 A 
HETATM   22  N   UNL     1      39.883 -14.064   4.105  1.00  0.00    -0.272 N 
HETATM   23  N   UNL     1      40.072 -14.342   2.809  1.00  0.00    -0.174 NA
HETATM   24  H   UNL     1      39.867 -14.830   4.772  1.00  0.00     0.189 HD
HETATM   25  C   UNL     1      40.033 -13.147   2.202  1.00  0.00     0.089 A 
HETATM   26  C   UNL     1      39.815 -12.114   3.154  1.00  0.00     0.071 A 
BRANCH  25  27
HETATM   27  C   UNL     1      40.257 -12.998   0.768  1.00  0.00    -0.006 A 
HETATM   28  C   UNL     1      39.924 -14.024  -0.125  1.00  0.00     0.014 A 
HETATM   29  C   UNL     1      40.097 -13.848  -1.500  1.00  0.00     0.001 A 
HETATM   30  C   UNL     1      40.598 -12.644  -1.994  1.00  0.00     0.000 A 
HETATM   31  C   UNL     1      40.936 -11.618  -1.113  1.00  0.00     0.001 A 
HETATM   32  C   UNL     1      40.772 -11.796   0.262  1.00  0.00     0.014 A 
ENDBRANCH  25  27
ENDBRANCH   1  21
TORSDOF 6
ENDMDL
MODEL 8
REMARK VINA RESULT:      -9.6      2.327      9.039
REMARK  6 active torsions:
REMARK  status: ('A' for Active; 'I' for Inactive)
REMARK    1  A    between atoms: C_4  and  C_5 
REMARK    2  A    between atoms: C_9  and  C_10 
REMARK       I    between atoms: C_10  and  N_11 
REMARK    3  A    between atoms: N_11  and  N_12 
REMARK       I    between atoms: N_12  and  C_13 
REMARK    4  A    between atoms: C_13  and  C_14 
REMARK    5  A    between atoms: C_14  and  O_15 
REMARK    6  A    between atoms: O_15  and  C_16 
ROOT
HETATM    1  C   UNL     1      41.658 -13.526   2.720  1.00  0.00     0.288 C 
HETATM    2  N   UNL     1      40.495 -12.991   3.244  1.00  0.00    -0.262 N 
HETATM    3  O   UNL     1      42.189 -12.934   1.780  1.00  0.00    -0.264 OA
HETATM    4  H   UNL     1      40.212 -12.096   2.855  1.00  0.00     0.190 HD
ENDROOT
BRANCH   2   5
HETATM    5  N   UNL     1      39.816 -13.450   4.366  1.00  0.00    -0.265 N 
HETATM    6  C   UNL     1      39.904 -12.839   5.601  1.00  0.00     0.260 C 
HETATM    7  O   UNL     1      39.583 -13.489   6.596  1.00  0.00    -0.269 OA
HETATM    8  H   UNL     1      39.575 -14.439   4.392  1.00  0.00     0.190 HD
BRANCH   6   9
HETATM    9  C   UNL     1      40.341 -11.368   5.644  1.00  0.00     0.280 C 
BRANCH   9  10
HETATM   10  O   UNL     1      41.630 -11.112   5.093  1.00  0.00    -0.342 OA
BRANCH  10  11
HETATM   11  C   UNL     1      42.627 -11.030   6.027  1.00  0.00     0.070 A 
HETATM   12  C   UNL     1      42.366 -10.267   7.166  1.00  0.00     0.049 A 
HETATM   13  C   UNL     1      43.358 -10.071   8.142  1.00  0.00    -0.023 A 
HETATM   14  C   UNL     1      44.638 -10.640   7.952  1.00  0.00    -0.026 A 
HETATM   15  C   UNL     1      43.110  -9.311   9.298  1.00  0.00     0.012 A 
HETATM   16  C   UNL     1      44.887 -11.397   6.796  1.00  0.00     0.015 A 
HETATM   17  C   UNL     1      45.637 -10.423   8.915  1.00  0.00     0.012 A 
HETATM   18  C   UNL     1      43.890 -11.585   5.836  1.00  0.00     0.037 A 
HETATM   19  C   UNL     1      45.377  -9.660  10.054  1.00  0.00     0.001 A 
HETATM   20  C   UNL     1      44.114  -9.108  10.247  1.00  0.00     0.001 A 
ENDBRANCH  10  11
ENDBRANCH   9  10
ENDBRANCH   6   9
ENDBRANCH   2   5
BRANCH   1  21
HETATM   21  C   UNL     1      42.174 -14.779   3.203  1.00  0.00     0.121 A 
HETATM   22  N   UNL     1      42.992 -14.817   4.301  1.00  0.00    -0.272 N 
HETATM   23  N   UNL     1      43.539 -16.015   4.539  1.00  0.00    -0.174 NA
HETATM   24  H   UNL     1      43.262 -14.030   4.885  1.00  0.00     0.189 HD
HETATM   25  C   UNL     1      42.983 -16.824   3.626  1.00  0.00     0.089 A 
HETATM   26  C   UNL     1      42.073 -16.098   2.809  1.00  0.00     0.071 A 
BRANCH  25  27
HETATM   27  C   UNL     1      43.357 -18.229   3.505  1.00  0.00    -0.006 A 
HETATM   28  C   UNL     1      43.930 -18.919   4.581  1.00  0.00     0.014 A 
HETATM   29  C   UNL     1      44.237 -20.277   4.466  1.00  0.00     0.001 A 
HETATM   30  C   UNL     1      43.967 -20.958   3.279  1.00  0.00     0.000 A 
HETATM   31  C   UNL     1      43.399 -20.280   2.202  1.00  0.00     0.001 A 
HETATM   32  C   UNL     1      43.101 -18.920   2.312  1.00  0.00     0.014 A 
ENDBRANCH  25  27
ENDBRANCH   1  21
TORSDOF 6
ENDMDL
MODEL 9
REMARK VINA RESULT:      -9.4      2.957      4.218
REMARK  6 active torsions:
REMARK  status: ('A' for Active; 'I' for Inactive)
REMARK    1  A    between atoms: C_4  and  C_5 
REMARK    2  A    between atoms: C_9  and  C_10 
REMARK       I    between atoms: C_10  and  N_11 
REMARK    3  A    between atoms: N_11  and  N_12 
REMARK       I    between atoms: N_12  and  C_13 
REMARK    4  A    between atoms: C_13  and  C_14 
REMARK    5  A    between atoms: C_14  and  O_15 
REMARK    6  A    between atoms: O_15  and  C_16 
ROOT
HETATM    1  C   UNL     1      40.066 -11.495   2.222  1.00  0.00     0.288 C 
HETATM    2  N   UNL     1      39.481 -12.665   1.773  1.00  0.00    -0.262 N 
HETATM    3  O   UNL     1      40.010 -10.507   1.491  1.00  0.00    -0.264 OA
HETATM    4  H   UNL     1      38.975 -12.590   0.894  1.00  0.00     0.190 HD
ENDROOT
BRANCH   2   5
HETATM    5  N   UNL     1      39.347 -13.844   2.496  1.00  0.00    -0.265 N 
HETATM    6  C   UNL     1      39.946 -15.030   2.120  1.00  0.00     0.260 C 
HETATM    7  O   UNL     1      39.501 -16.079   2.584  1.00  0.00    -0.269 OA
HETATM    8  H   UNL     1      38.510 -13.947   3.066  1.00  0.00     0.190 HD
BRANCH   6   9
HETATM    9  C   UNL     1      41.167 -14.953   1.193  1.00  0.00     0.280 C 
BRANCH   9  10
HETATM   10  O   UNL     1      42.401 -14.679   1.851  1.00  0.00    -0.342 OA
BRANCH  10  11
HETATM   11  C   UNL     1      42.866 -15.716   2.614  1.00  0.00     0.070 A 
HETATM   12  C   UNL     1      42.905 -16.974   2.014  1.00  0.00     0.049 A 
HETATM   13  C   UNL     1      43.302 -18.107   2.745  1.00  0.00    -0.023 A 
HETATM   14  C   UNL     1      43.645 -17.965   4.109  1.00  0.00    -0.026 A 
HETATM   15  C   UNL     1      43.352 -19.382   2.155  1.00  0.00     0.012 A 
HETATM   16  C   UNL     1      43.592 -16.693   4.700  1.00  0.00     0.015 A 
HETATM   17  C   UNL     1      44.017 -19.101   4.847  1.00  0.00     0.012 A 
HETATM   18  C   UNL     1      43.198 -15.576   3.959  1.00  0.00     0.037 A 
HETATM   19  C   UNL     1      44.056 -20.360   4.247  1.00  0.00     0.001 A 
HETATM   20  C   UNL     1      43.728 -20.501   2.903  1.00  0.00     0.001 A 
ENDBRANCH  10  11
ENDBRANCH   9  10
ENDBRANCH   6   9
ENDBRANCH   2   5
BRANCH   1  21
HETATM   21  C   UNL     1      40.792 -11.467   3.464  1.00  0.00     0.121 A 
HETATM   22  N   UNL     1      40.132 -11.291   4.651  1.00  0.00    -0.272 N 
HETATM   23  N   UNL     1      40.935 -11.110   5.707  1.00  0.00    -0.174 NA
HETATM   24  H   UNL     1      39.127 -11.220   4.783  1.00  0.00     0.189 HD
HETATM   25  C   UNL     1      42.173 -11.274   5.218  1.00  0.00     0.089 A 
HETATM   26  C   UNL     1      42.122 -11.561   3.826  1.00  0.00     0.071 A 
BRANCH  25  27
HETATM   27  C   UNL     1      43.363 -11.101   6.044  1.00  0.00    -0.006 A 
HETATM   28  C   UNL     1      44.599 -11.629   5.649  1.00  0.00     0.014 A 
HETATM   29  C   UNL     1      45.739 -11.412   6.427  1.00  0.00     0.001 A 
HETATM   30  C   UNL     1      45.656 -10.663   7.599  1.00  0.00     0.000 A 
HETATM   31  C   UNL     1      44.430 -10.136   8.002  1.00  0.00     0.001 A 
HETATM   32  C   UNL     1      43.287 -10.359   7.231  1.00  0.00     0.014 A 
ENDBRANCH  25  27
ENDBRANCH   1  21
TORSDOF 6
ENDMDL
MODEL 10
REMARK VINA RESULT:      -9.3      1.771      2.769
REMARK  6 active torsions:
REMARK  status: ('A' for Active; 'I' for Inactive)
REMARK    1  A    between atoms: C_4  and  C_5 
REMARK    2  A    between atoms: C_9  and  C_10 
REMARK       I    between atoms: C_10  and  N_11 
REMARK    3  A    between atoms: N_11  and  N_12 
REMARK       I    between atoms: N_12  and  C_13 
REMARK    4  A    between atoms: C_13  and  C_14 
REMARK    5  A    between atoms: C_14  and  O_15 
REMARK    6  A    between atoms: O_15  and  C_16 
ROOT
HETATM    1  C   UNL     1      44.582 -10.926   8.228  1.00  0.00     0.288 C 
HETATM    2  N   UNL     1      43.687 -11.303   7.243  1.00  0.00    -0.262 N 
HETATM    3  O   UNL     1      45.767 -11.223   8.071  1.00  0.00    -0.264 OA
HETATM    4  H   UNL     1      44.100 -11.733   6.420  1.00  0.00     0.190 HD
ENDROOT
BRANCH   2   5
HETATM    5  N   UNL     1      42.340 -10.966   7.189  1.00  0.00    -0.265 N 
HETATM    6  C   UNL     1      41.506 -11.361   6.161  1.00  0.00     0.260 C 
HETATM    7  O   UNL     1      40.456 -10.742   5.993  1.00  0.00    -0.269 OA
HETATM    8  H   UNL     1      42.053 -10.118   7.673  1.00  0.00     0.190 HD
BRANCH   6   9
HETATM    9  C   UNL     1      41.919 -12.587   5.334  1.00  0.00     0.280 C 
BRANCH   9  10
HETATM   10  O   UNL     1      41.268 -13.801   5.699  1.00  0.00    -0.342 OA
BRANCH  10  11
HETATM   11  C   UNL     1      41.561 -14.857   4.880  1.00  0.00     0.070 A 
HETATM   12  C   UNL     1      42.606 -15.692   5.276  1.00  0.00     0.049 A 
HETATM   13  C   UNL     1      43.021 -16.759   4.460  1.00  0.00    -0.023 A 
HETATM   14  C   UNL     1      42.380 -16.970   3.218  1.00  0.00    -0.026 A 
HETATM   15  C   UNL     1      44.068 -17.614   4.846  1.00  0.00     0.012 A 
HETATM   16  C   UNL     1      41.337 -16.115   2.831  1.00  0.00     0.015 A 
HETATM   17  C   UNL     1      42.812 -18.021   2.391  1.00  0.00     0.012 A 
HETATM   18  C   UNL     1      40.934 -15.060   3.654  1.00  0.00     0.037 A 
HETATM   19  C   UNL     1      43.858 -18.856   2.786  1.00  0.00     0.001 A 
HETATM   20  C   UNL     1      44.482 -18.656   4.013  1.00  0.00     0.001 A 
ENDBRANCH  10  11
ENDBRANCH   9  10
ENDBRANCH   6   9
ENDBRANCH   2   5
BRANCH   1  21
HETATM   21  C   UNL     1      44.123 -10.288   9.433  1.00  0.00     0.121 A 
HETATM   22  N   UNL     1      43.406 -10.993  10.363  1.00  0.00    -0.272 N 
HETATM   23  N   UNL     1      42.894 -10.244  11.347  1.00  0.00    -0.174 NA
HETATM   24  H   UNL     1      43.182 -11.984  10.334  1.00  0.00     0.189 HD
HETATM   25  C   UNL     1      43.375  -9.014  11.116  1.00  0.00     0.089 A 
HETATM   26  C   UNL     1      44.201  -9.014   9.959  1.00  0.00     0.071 A 
BRANCH  25  27
HETATM   27  C   UNL     1      43.005  -7.869  11.942  1.00  0.00    -0.006 A 
HETATM   28  C   UNL     1      42.404  -6.736  11.378  1.00  0.00     0.014 A 
HETATM   29  C   UNL     1      42.010  -5.668  12.188  1.00  0.00     0.001 A 
HETATM   30  C   UNL     1      42.207  -5.727  13.568  1.00  0.00     0.000 A 
HETATM   31  C   UNL     1      42.806  -6.848  14.138  1.00  0.00     0.001 A 
HETATM   32  C   UNL     1      43.209  -7.912  13.328  1.00  0.00     0.014 A 
ENDBRANCH  25  27
ENDBRANCH   1  21
TORSDOF 6
ENDMDL
