MODEL 1
REMARK VINA RESULT:      -9.7      0.000      0.000
REMARK  9 active torsions:
REMARK  status: ('A' for Active; 'I' for Inactive)
REMARK    1  A    between atoms: C_2  and  C_3 
REMARK    2  A    between atoms: C_3  and  C_4 
REMARK       I    between atoms: C_4  and  N_6 
REMARK    3  A    between atoms: N_6  and  C_7 
REMARK    4  A    between atoms: C_11  and  C_13 
REMARK    5  A    between atoms: C_15  and  N_16 
REMARK    6  A    between atoms: N_16  and  C_17 
REMARK    7  A    between atoms: C_29  and  O_30 
REMARK    8  A    between atoms: O_30  and  C_31 
REMARK    9  A    between atoms: C_31  and  C_32 
ROOT
HETATM    1  C   UNL     1      43.101 -11.665   5.148  1.00  0.00     0.162 A 
HETATM    2  N   UNL     1      42.653 -12.926   5.197  1.00  0.00    -0.210 NA
HETATM    3  C   UNL     1      41.897 -13.368   4.178  1.00  0.00     0.143 A 
HETATM    4  C   UNL     1      41.596 -12.554   3.075  1.00  0.00     0.041 A 
HETATM    5  C   UNL     1      40.829 -12.953   1.950  1.00  0.00     0.054 A 
HETATM    6  C   UNL     1      40.596 -12.084   0.885  1.00  0.00     0.069 A 
HETATM    7  C   UNL     1      41.098 -10.792   0.955  1.00  0.00     0.039 A 
HETATM    8  C   UNL     1      41.839 -10.391   2.074  1.00  0.00     0.035 A 
HETATM    9  C   UNL     1      42.103 -11.250   3.134  1.00  0.00     0.073 A 
HETATM   10  N   UNL     1      42.835 -10.799   4.157  1.00  0.00    -0.228 NA
ENDROOT
BRANCH   1  11
HETATM   11  C   UNL     1      43.987 -11.227   6.238  1.00  0.00     0.014 A 
HETATM   12  C   UNL     1      45.383 -11.347   6.120  1.00  0.00     0.015 A 
HETATM   13  C   UNL     1      46.234 -10.916   7.135  1.00  0.00     0.003 A 
HETATM   14  C   UNL     1      45.706 -10.368   8.304  1.00  0.00     0.029 A 
HETATM   15  C   UNL     1      44.326 -10.251   8.467  1.00  0.00     0.035 A 
HETATM   16  C   UNL     1      43.479 -10.673   7.430  1.00  0.00     0.044 A 
BRANCH  15  17
HETATM   17  N   UNL     1      43.718  -9.758   9.641  1.00  0.00    -0.327 N 
HETATM   18  C   UNL     1      43.587 -10.414  10.854  1.00  0.00     0.222 C 
HETATM   19  O   UNL     1      44.062 -11.502  11.158  1.00  0.00    -0.273 OA
HETATM   20  H   UNL     1      43.350  -8.817   9.588  1.00  0.00     0.169 HD
BRANCH  18  21
HETATM   21  C   UNL     1      42.712  -9.658  11.836  1.00  0.00     0.103 C 
BRANCH  21  22
HETATM   22  C   UNL     1      43.199  -8.219  11.977  1.00  0.00     0.005 C 
HETATM   23  C   UNL     1      43.131  -7.743  13.418  1.00  0.00     0.005 C 
ENDBRANCH  21  22
ENDBRANCH  18  21
ENDBRANCH  15  17
ENDBRANCH   1  11
BRANCH   3  24
HETATM   24  N   UNL     1      41.417 -14.703   4.215  1.00  0.00    -0.340 N 
HETATM   25  H   UNL     1      40.490 -14.738   3.808  1.00  0.00     0.167 HD
BRANCH  24  26
HETATM   26  C   UNL     1      42.161 -15.882   3.964  1.00  0.00     0.034 A 
HETATM   27  C   UNL     1      42.341 -16.311   2.639  1.00  0.00     0.032 A 
HETATM   28  C   UNL     1      43.024 -17.495   2.323  1.00  0.00     0.034 A 
HETATM   29  C   UNL     1      43.501 -18.256   3.393  1.00  0.00     0.062 A 
HETATM   30  N   UNL     1      44.190 -19.439   3.441  1.00  0.00    -0.278 N 
HETATM   31  C   UNL     1      43.317 -17.887   4.718  1.00  0.00     0.013 A 
HETATM   32  H   UNL     1      44.503 -20.003   2.661  1.00  0.00     0.189 HD
HETATM   33  N   UNL     1      44.458 -19.870   4.687  1.00  0.00    -0.186 NA
HETATM   34  C   UNL     1      43.925 -18.921   5.463  1.00  0.00     0.152 A 
HETATM   35  C   UNL     1      42.631 -16.695   5.011  1.00  0.00     0.044 A 
ENDBRANCH  24  26
ENDBRANCH   3  24
BRANCH   6  36
HETATM   36  O   UNL     1      39.872 -12.617  -0.143  1.00  0.00    -0.351 OA
BRANCH  36  37
HETATM   37  C   UNL     1      40.229 -13.928  -0.579  1.00  0.00     0.180 C 
BRANCH  37  38
HETATM   38  C   UNL     1      40.188 -13.944  -2.077  1.00  0.00     0.010 A 
HETATM   39  C   UNL     1      39.056 -14.621  -2.807  1.00  0.00     0.007 A 
HETATM   40  C   UNL     1      39.170 -13.121  -2.823  1.00  0.00     0.007 A 
ENDBRANCH  37  38
ENDBRANCH  36  37
ENDBRANCH   6  36
TORSDOF 9
ENDMDL
MODEL 2
REMARK VINA RESULT:      -9.6      2.125      8.838
REMARK  9 active torsions:
REMARK  status: ('A' for Active; 'I' for Inactive)
REMARK    1  A    between atoms: C_2  and  C_3 
REMARK    2  A    between atoms: C_3  and  C_4 
REMARK       I    between atoms: C_4  and  N_6 
REMARK    3  A    between atoms: N_6  and  C_7 
REMARK    4  A    between atoms: C_11  and  C_13 
REMARK    5  A    between atoms: C_15  and  N_16 
REMARK    6  A    between atoms: N_16  and  C_17 
REMARK    7  A    between atoms: C_29  and  O_30 
REMARK    8  A    between atoms: O_30  and  C_31 
REMARK    9  A    between atoms: C_31  and  C_32 
ROOT
HETATM    1  C   UNL     1      42.005 -13.953   3.129  1.00  0.00     0.162 A 
HETATM    2  N   UNL     1      42.354 -15.018   3.862  1.00  0.00    -0.210 NA
HETATM    3  C   UNL     1      42.988 -14.803   5.027  1.00  0.00     0.143 A 
HETATM    4  C   UNL     1      43.265 -13.507   5.489  1.00  0.00     0.041 A 
HETATM    5  C   UNL     1      43.905 -13.196   6.716  1.00  0.00     0.054 A 
HETATM    6  C   UNL     1      44.122 -11.875   7.107  1.00  0.00     0.069 A 
HETATM    7  C   UNL     1      43.732 -10.853   6.254  1.00  0.00     0.039 A 
HETATM    8  C   UNL     1      43.117 -11.160   5.033  1.00  0.00     0.035 A 
HETATM    9  C   UNL     1      42.870 -12.468   4.636  1.00  0.00     0.073 A 
HETATM   10  N   UNL     1      42.260 -12.679   3.466  1.00  0.00    -0.228 NA
ENDROOT
BRANCH   1  11
HETATM   11  C   UNL     1      41.247 -14.210   1.895  1.00  0.00     0.014 A 
HETATM   12  C   UNL     1      40.580 -15.434   1.704  1.00  0.00     0.015 A 
HETATM   13  C   UNL     1      39.840 -15.682   0.550  1.00  0.00     0.003 A 
HETATM   14  C   UNL     1      39.763 -14.714  -0.452  1.00  0.00     0.029 A 
HETATM   15  C   UNL     1      40.427 -13.496  -0.309  1.00  0.00     0.035 A 
HETATM   16  C   UNL     1      41.156 -13.252   0.866  1.00  0.00     0.044 A 
BRANCH  15  17
HETATM   17  N   UNL     1      40.440 -12.494  -1.301  1.00  0.00    -0.327 N 
HETATM   18  C   UNL     1      40.733 -12.650  -2.646  1.00  0.00     0.222 C 
HETATM   19  O   UNL     1      40.936 -13.705  -3.237  1.00  0.00    -0.273 OA
HETATM   20  H   UNL     1      40.197 -11.561  -0.992  1.00  0.00     0.169 HD
BRANCH  18  21
HETATM   21  C   UNL     1      40.837 -11.327  -3.380  1.00  0.00     0.103 C 
BRANCH  21  22
HETATM   22  C   UNL     1      39.569 -10.506  -3.171  1.00  0.00     0.005 C 
HETATM   23  C   UNL     1      39.882  -9.111  -2.657  1.00  0.00     0.005 C 
ENDBRANCH  21  22
ENDBRANCH  18  21
ENDBRANCH  15  17
ENDBRANCH   1  11
BRANCH   3  24
HETATM   24  N   UNL     1      43.361 -15.923   5.816  1.00  0.00    -0.340 N 
HETATM   25  H   UNL     1      42.945 -15.838   6.736  1.00  0.00     0.167 HD
BRANCH  24  26
HETATM   26  C   UNL     1      43.457 -17.270   5.390  1.00  0.00     0.034 A 
HETATM   27  C   UNL     1      43.521 -18.291   6.351  1.00  0.00     0.032 A 
HETATM   28  C   UNL     1      43.665 -19.642   5.999  1.00  0.00     0.034 A 
HETATM   29  C   UNL     1      43.773 -19.933   4.638  1.00  0.00     0.062 A 
HETATM   30  N   UNL     1      43.925 -21.115   3.962  1.00  0.00    -0.278 N 
HETATM   31  C   UNL     1      43.749 -18.953   3.655  1.00  0.00     0.013 A 
HETATM   32  H   UNL     1      43.982 -22.047   4.353  1.00  0.00     0.189 HD
HETATM   33  N   UNL     1      44.012 -20.979   2.626  1.00  0.00    -0.186 NA
HETATM   34  C   UNL     1      43.903 -19.660   2.443  1.00  0.00     0.152 A 
HETATM   35  C   UNL     1      43.601 -17.606   4.032  1.00  0.00     0.044 A 
ENDBRANCH  24  26
ENDBRANCH   3  24
BRANCH   6  36
HETATM   36  O   UNL     1      44.716 -11.729   8.327  1.00  0.00    -0.351 OA
BRANCH  36  37
HETATM   37  C   UNL     1      45.514 -10.563   8.527  1.00  0.00     0.180 C 
BRANCH  37  38
HETATM   38  C   UNL     1      45.258 -10.060   9.916  1.00  0.00     0.010 A 
HETATM   39  C   UNL     1      44.198  -9.019  10.172  1.00  0.00     0.007 A 
HETATM   40  C   UNL     1      43.992 -10.433  10.643  1.00  0.00     0.007 A 
ENDBRANCH  37  38
ENDBRANCH  36  37
ENDBRANCH   6  36
TORSDOF 9
ENDMDL
MODEL 3
REMARK VINA RESULT:      -9.5      2.335      5.480
REMARK  9 active torsions:
REMARK  status: ('A' for Active; 'I' for Inactive)
REMARK    1  A    between atoms: C_2  and  C_3 
REMARK    2  A    between atoms: C_3  and  C_4 
REMARK       I    between atoms: C_4  and  N_6 
REMARK    3  A    between atoms: N_6  and  C_7 
REMARK    4  A    between atoms: C_11  and  C_13 
REMARK    5  A    between atoms: C_15  and  N_16 
REMARK    6  A    between atoms: N_16  and  C_17 
REMARK    7  A    between atoms: C_29  and  O_30 
REMARK    8  A    between atoms: O_30  and  C_31 
REMARK    9  A    between atoms: C_31  and  C_32 
ROOT
HETATM    1  C   UNL     1      44.145 -12.228   6.254  1.00  0.00     0.162 A 
HETATM    2  N   UNL     1      43.779 -11.770   5.049  1.00  0.00    -0.210 NA
HETATM    3  C   UNL     1      43.290 -12.652   4.161  1.00  0.00     0.143 A 
HETATM    4  C   UNL     1      43.139 -14.011   4.476  1.00  0.00     0.041 A 
HETATM    5  C   UNL     1      42.608 -14.997   3.605  1.00  0.00     0.054 A 
HETATM    6  C   UNL     1      42.472 -16.325   4.009  1.00  0.00     0.069 A 
HETATM    7  C   UNL     1      42.904 -16.685   5.278  1.00  0.00     0.039 A 
HETATM    8  C   UNL     1      43.445 -15.715   6.131  1.00  0.00     0.035 A 
HETATM    9  C   UNL     1      43.566 -14.383   5.756  1.00  0.00     0.073 A 
HETATM   10  N   UNL     1      44.075 -13.513   6.635  1.00  0.00    -0.228 NA
ENDROOT
BRANCH   1  11
HETATM   11  C   UNL     1      44.607 -11.234   7.235  1.00  0.00     0.014 A 
HETATM   12  C   UNL     1      45.846 -10.588   7.072  1.00  0.00     0.015 A 
HETATM   13  C   UNL     1      46.286  -9.629   7.982  1.00  0.00     0.003 A 
HETATM   14  C   UNL     1      45.501  -9.303   9.088  1.00  0.00     0.029 A 
HETATM   15  C   UNL     1      44.276  -9.936   9.294  1.00  0.00     0.035 A 
HETATM   16  C   UNL     1      43.836 -10.889   8.362  1.00  0.00     0.044 A 
BRANCH  15  17
HETATM   17  N   UNL     1      43.455  -9.699  10.417  1.00  0.00    -0.327 N 
HETATM   18  C   UNL     1      43.357 -10.474  11.561  1.00  0.00     0.222 C 
HETATM   19  O   UNL     1      44.037 -11.452  11.848  1.00  0.00    -0.273 OA
HETATM   20  H   UNL     1      42.887  -8.863  10.382  1.00  0.00     0.169 HD
BRANCH  18  21
HETATM   21  C   UNL     1      42.236 -10.023  12.479  1.00  0.00     0.103 C 
BRANCH  21  22
HETATM   22  C   UNL     1      42.121  -8.503  12.463  1.00  0.00     0.005 C 
HETATM   23  C   UNL     1      43.121  -7.855  13.404  1.00  0.00     0.005 C 
ENDBRANCH  21  22
ENDBRANCH  18  21
ENDBRANCH  15  17
ENDBRANCH   1  11
BRANCH   3  24
HETATM   24  N   UNL     1      42.896 -12.180   2.881  1.00  0.00    -0.340 N 
HETATM   25  H   UNL     1      43.514 -12.567   2.176  1.00  0.00     0.167 HD
BRANCH  24  26
HETATM   26  C   UNL     1      41.573 -12.016   2.405  1.00  0.00     0.034 A 
HETATM   27  C   UNL     1      40.549 -11.704   3.315  1.00  0.00     0.032 A 
HETATM   28  C   UNL     1      39.209 -11.575   2.918  1.00  0.00     0.034 A 
HETATM   29  C   UNL     1      38.924 -11.801   1.570  1.00  0.00     0.062 A 
HETATM   30  N   UNL     1      37.751 -11.764   0.862  1.00  0.00    -0.278 N 
HETATM   31  C   UNL     1      39.899 -12.145   0.643  1.00  0.00     0.013 A 
HETATM   32  H   UNL     1      36.827 -11.546   1.211  1.00  0.00     0.189 HD
HETATM   33  N   UNL     1      37.886 -12.066  -0.443  1.00  0.00    -0.186 NA
HETATM   34  C   UNL     1      39.196 -12.296  -0.573  1.00  0.00     0.152 A 
HETATM   35  C   UNL     1      41.235 -12.265   1.063  1.00  0.00     0.044 A 
ENDBRANCH  24  26
ENDBRANCH   3  24
BRANCH   6  36
HETATM   36  O   UNL     1      41.914 -17.153   3.078  1.00  0.00    -0.351 OA
BRANCH  36  37
HETATM   37  C   UNL     1      42.801 -17.796   2.163  1.00  0.00     0.180 C 
BRANCH  37  38
HETATM   38  C   UNL     1      42.725 -19.273   2.406  1.00  0.00     0.010 A 
HETATM   39  C   UNL     1      43.692 -20.213   1.732  1.00  0.00     0.007 A 
HETATM   40  C   UNL     1      43.787 -19.972   3.214  1.00  0.00     0.007 A 
ENDBRANCH  37  38
ENDBRANCH  36  37
ENDBRANCH   6  36
TORSDOF 9
ENDMDL
MODEL 4
REMARK VINA RESULT:      -9.3      3.277      9.008
REMARK  9 active torsions:
REMARK  status: ('A' for Active; 'I' for Inactive)
REMARK    1  A    between atoms: C_2  and  C_3 
REMARK    2  A    between atoms: C_3  and  C_4 
REMARK       I    between atoms: C_4  and  N_6 
REMARK    3  A    between atoms: N_6  and  C_7 
REMARK    4  A    between atoms: C_11  and  C_13 
REMARK    5  A    between atoms: C_15  and  N_16 
REMARK    6  A    between atoms: N_16  and  C_17 
REMARK    7  A    between atoms: C_29  and  O_30 
REMARK    8  A    between atoms: O_30  and  C_31 
REMARK    9  A    between atoms: C_31  and  C_32 
ROOT
HETATM    1  C   UNL     1      40.275 -13.895   0.653  1.00  0.00     0.162 A 
HETATM    2  N   UNL     1      41.429 -14.561   0.788  1.00  0.00    -0.210 NA
HETATM    3  C   UNL     1      42.000 -14.597   2.003  1.00  0.00     0.143 A 
HETATM    4  C   UNL     1      41.407 -13.980   3.116  1.00  0.00     0.041 A 
HETATM    5  C   UNL     1      41.931 -13.995   4.434  1.00  0.00     0.054 A 
HETATM    6  C   UNL     1      41.264 -13.372   5.488  1.00  0.00     0.069 A 
HETATM    7  C   UNL     1      40.081 -12.696   5.223  1.00  0.00     0.039 A 
HETATM    8  C   UNL     1      39.573 -12.665   3.918  1.00  0.00     0.035 A 
HETATM    9  C   UNL     1      40.211 -13.299   2.860  1.00  0.00     0.073 A 
HETATM   10  N   UNL     1      39.652 -13.241   1.646  1.00  0.00    -0.228 NA
ENDROOT
BRANCH   1  11
HETATM   11  C   UNL     1      39.632 -13.931  -0.669  1.00  0.00     0.014 A 
HETATM   12  C   UNL     1      39.345 -15.159  -1.293  1.00  0.00     0.015 A 
HETATM   13  C   UNL     1      38.716 -15.208  -2.536  1.00  0.00     0.003 A 
HETATM   14  C   UNL     1      38.372 -14.026  -3.193  1.00  0.00     0.029 A 
HETATM   15  C   UNL     1      38.659 -12.790  -2.615  1.00  0.00     0.035 A 
HETATM   16  C   UNL     1      39.278 -12.753  -1.356  1.00  0.00     0.044 A 
BRANCH  15  17
HETATM   17  N   UNL     1      38.392 -11.555  -3.244  1.00  0.00    -0.327 N 
HETATM   18  C   UNL     1      37.396 -10.649  -2.922  1.00  0.00     0.222 C 
HETATM   19  O   UNL     1      36.627 -10.708  -1.968  1.00  0.00    -0.273 OA
HETATM   20  H   UNL     1      39.008 -11.305  -4.007  1.00  0.00     0.169 HD
BRANCH  18  21
HETATM   21  C   UNL     1      37.283  -9.520  -3.929  1.00  0.00     0.103 C 
BRANCH  21  22
HETATM   22  C   UNL     1      38.670  -9.016  -4.314  1.00  0.00     0.005 C 
HETATM   23  C   UNL     1      39.291  -8.181  -3.208  1.00  0.00     0.005 C 
ENDBRANCH  21  22
ENDBRANCH  18  21
ENDBRANCH  15  17
ENDBRANCH   1  11
BRANCH   3  24
HETATM   24  N   UNL     1      43.222 -15.301   2.161  1.00  0.00    -0.340 N 
HETATM   25  H   UNL     1      43.953 -14.651   2.425  1.00  0.00     0.167 HD
BRANCH  24  26
HETATM   26  C   UNL     1      43.399 -16.577   2.749  1.00  0.00     0.034 A 
HETATM   27  C   UNL     1      43.793 -16.665   4.094  1.00  0.00     0.032 A 
HETATM   28  C   UNL     1      44.033 -17.896   4.724  1.00  0.00     0.034 A 
HETATM   29  C   UNL     1      43.890 -19.045   3.944  1.00  0.00     0.062 A 
HETATM   30  N   UNL     1      44.048 -20.375   4.234  1.00  0.00    -0.278 N 
HETATM   31  C   UNL     1      43.535 -19.003   2.603  1.00  0.00     0.013 A 
HETATM   32  H   UNL     1      44.305 -20.787   5.121  1.00  0.00     0.189 HD
HETATM   33  N   UNL     1      43.835 -21.195   3.188  1.00  0.00    -0.186 NA
HETATM   34  C   UNL     1      43.521 -20.356   2.197  1.00  0.00     0.152 A 
HETATM   35  C   UNL     1      43.297 -17.759   1.993  1.00  0.00     0.044 A 
ENDBRANCH  24  26
ENDBRANCH   3  24
BRANCH   6  36
HETATM   36  O   UNL     1      41.869 -13.498   6.705  1.00  0.00    -0.351 OA
BRANCH  36  37
HETATM   37  C   UNL     1      43.289 -13.643   6.714  1.00  0.00     0.180 C 
BRANCH  37  38
HETATM   38  C   UNL     1      43.881 -12.356   7.203  1.00  0.00     0.010 A 
HETATM   39  C   UNL     1      45.200 -11.864   6.663  1.00  0.00     0.007 A 
HETATM   40  C   UNL     1      43.927 -11.146   6.306  1.00  0.00     0.007 A 
ENDBRANCH  37  38
ENDBRANCH  36  37
ENDBRANCH   6  36
TORSDOF 9
ENDMDL
MODEL 5
REMARK VINA RESULT:      -9.1      2.864      5.419
REMARK  9 active torsions:
REMARK  status: ('A' for Active; 'I' for Inactive)
REMARK    1  A    between atoms: C_2  and  C_3 
REMARK    2  A    between atoms: C_3  and  C_4 
REMARK       I    between atoms: C_4  and  N_6 
REMARK    3  A    between atoms: N_6  and  C_7 
REMARK    4  A    between atoms: C_11  and  C_13 
REMARK    5  A    between atoms: C_15  and  N_16 
REMARK    6  A    between atoms: N_16  and  C_17 
REMARK    7  A    between atoms: C_29  and  O_30 
REMARK    8  A    between atoms: O_30  and  C_31 
REMARK    9  A    between atoms: C_31  and  C_32 
ROOT
HETATM    1  C   UNL     1      42.118 -11.957   6.061  1.00  0.00     0.162 A 
HETATM    2  N   UNL     1      41.097 -12.366   5.297  1.00  0.00    -0.210 NA
HETATM    3  C   UNL     1      41.083 -13.648   4.894  1.00  0.00     0.143 A 
HETATM    4  C   UNL     1      42.088 -14.552   5.273  1.00  0.00     0.041 A 
HETATM    5  C   UNL     1      42.131 -15.923   4.913  1.00  0.00     0.054 A 
HETATM    6  C   UNL     1      43.158 -16.757   5.352  1.00  0.00     0.069 A 
HETATM    7  C   UNL     1      44.174 -16.215   6.127  1.00  0.00     0.039 A 
HETATM    8  C   UNL     1      44.141 -14.856   6.467  1.00  0.00     0.035 A 
HETATM    9  C   UNL     1      43.114 -14.015   6.060  1.00  0.00     0.073 A 
HETATM   10  N   UNL     1      43.143 -12.735   6.442  1.00  0.00    -0.228 NA
ENDROOT
BRANCH   1  11
HETATM   11  C   UNL     1      42.073 -10.571   6.551  1.00  0.00     0.014 A 
HETATM   12  C   UNL     1      41.721  -9.517   5.689  1.00  0.00     0.015 A 
HETATM   13  C   UNL     1      41.654  -8.202   6.145  1.00  0.00     0.003 A 
HETATM   14  C   UNL     1      41.954  -7.907   7.475  1.00  0.00     0.029 A 
HETATM   15  C   UNL     1      42.327  -8.923   8.355  1.00  0.00     0.035 A 
HETATM   16  C   UNL     1      42.375 -10.246   7.888  1.00  0.00     0.044 A 
BRANCH  15  17
HETATM   17  N   UNL     1      42.698  -8.694   9.697  1.00  0.00    -0.327 N 
HETATM   18  C   UNL     1      43.953  -8.857  10.258  1.00  0.00     0.222 C 
HETATM   19  O   UNL     1      44.993  -9.133   9.670  1.00  0.00    -0.273 OA
HETATM   20  H   UNL     1      41.963  -8.364  10.309  1.00  0.00     0.169 HD
BRANCH  18  21
HETATM   21  C   UNL     1      43.944  -8.703  11.767  1.00  0.00     0.103 C 
BRANCH  21  22
HETATM   22  C   UNL     1      42.682  -7.974  12.216  1.00  0.00     0.005 C 
HETATM   23  C   UNL     1      42.894  -7.241  13.529  1.00  0.00     0.005 C 
ENDBRANCH  21  22
ENDBRANCH  18  21
ENDBRANCH  15  17
ENDBRANCH   1  11
BRANCH   3  24
HETATM   24  N   UNL     1      40.006 -14.095   4.086  1.00  0.00    -0.340 N 
HETATM   25  H   UNL     1      39.131 -13.772   4.483  1.00  0.00     0.167 HD
BRANCH  24  26
HETATM   26  C   UNL     1      39.967 -14.147   2.671  1.00  0.00     0.034 A 
HETATM   27  C   UNL     1      39.941 -15.396   2.030  1.00  0.00     0.032 A 
HETATM   28  C   UNL     1      39.951 -15.520   0.632  1.00  0.00     0.034 A 
HETATM   29  C   UNL     1      40.018 -14.338  -0.107  1.00  0.00     0.062 A 
HETATM   30  N   UNL     1      40.050 -14.101  -1.457  1.00  0.00    -0.278 N 
HETATM   31  C   UNL     1      40.080 -13.084   0.484  1.00  0.00     0.013 A 
HETATM   32  H   UNL     1      40.020 -14.782  -2.204  1.00  0.00     0.189 HD
HETATM   33  N   UNL     1      40.137 -12.798  -1.785  1.00  0.00    -0.186 NA
HETATM   34  C   UNL     1      40.154 -12.182  -0.600  1.00  0.00     0.152 A 
HETATM   35  C   UNL     1      40.066 -12.984   1.887  1.00  0.00     0.044 A 
ENDBRANCH  24  26
ENDBRANCH   3  24
BRANCH   6  36
HETATM   36  O   UNL     1      43.050 -18.059   4.955  1.00  0.00    -0.351 OA
BRANCH  36  37
HETATM   37  C   UNL     1      44.238 -18.701   4.495  1.00  0.00     0.180 C 
BRANCH  37  38
HETATM   38  C   UNL     1      44.193 -18.739   2.997  1.00  0.00     0.010 A 
HETATM   39  C   UNL     1      43.582 -19.914   2.277  1.00  0.00     0.007 A 
HETATM   40  C   UNL     1      42.884 -18.581   2.267  1.00  0.00     0.007 A 
ENDBRANCH  37  38
ENDBRANCH  36  37
ENDBRANCH   6  36
TORSDOF 9
ENDMDL
MODEL 6
REMARK VINA RESULT:      -9.0      2.470      5.028
REMARK  9 active torsions:
REMARK  status: ('A' for Active; 'I' for Inactive)
REMARK    1  A    between atoms: C_2  and  C_3 
REMARK    2  A    between atoms: C_3  and  C_4 
REMARK       I    between atoms: C_4  and  N_6 
REMARK    3  A    between atoms: N_6  and  C_7 
REMARK    4  A    between atoms: C_11  and  C_13 
REMARK    5  A    between atoms: C_15  and  N_16 
REMARK    6  A    between atoms: N_16  and  C_17 
REMARK    7  A    between atoms: C_29  and  O_30 
REMARK    8  A    between atoms: O_30  and  C_31 
REMARK    9  A    between atoms: C_31  and  C_32 
ROOT
HETATM    1  C   UNL     1      43.529 -11.835   6.525  1.00  0.00     0.162 A 
HETATM    2  N   UNL     1      42.521 -11.238   5.874  1.00  0.00    -0.210 NA
HETATM    3  C   UNL     1      41.737 -11.998   5.092  1.00  0.00     0.143 A 
HETATM    4  C   UNL     1      41.938 -13.382   4.966  1.00  0.00     0.041 A 
HETATM    5  C   UNL     1      41.140 -14.255   4.182  1.00  0.00     0.054 A 
HETATM    6  C   UNL     1      41.399 -15.624   4.131  1.00  0.00     0.069 A 
HETATM    7  C   UNL     1      42.484 -16.126   4.835  1.00  0.00     0.039 A 
HETATM    8  C   UNL     1      43.284 -15.261   5.593  1.00  0.00     0.035 A 
HETATM    9  C   UNL     1      43.028 -13.898   5.677  1.00  0.00     0.073 A 
HETATM   10  N   UNL     1      43.825 -13.141   6.437  1.00  0.00    -0.228 NA
ENDROOT
BRANCH   1  11
HETATM   11  C   UNL     1      44.328 -10.997   7.432  1.00  0.00     0.014 A 
HETATM   12  C   UNL     1      45.647 -10.639   7.103  1.00  0.00     0.015 A 
HETATM   13  C   UNL     1      46.407  -9.828   7.943  1.00  0.00     0.003 A 
HETATM   14  C   UNL     1      45.869  -9.368   9.145  1.00  0.00     0.029 A 
HETATM   15  C   UNL     1      44.571  -9.719   9.516  1.00  0.00     0.035 A 
HETATM   16  C   UNL     1      43.810 -10.523   8.654  1.00  0.00     0.044 A 
BRANCH  15  17
HETATM   17  N   UNL     1      43.980  -9.338  10.740  1.00  0.00    -0.327 N 
HETATM   18  C   UNL     1      43.601 -10.169  11.781  1.00  0.00     0.222 C 
HETATM   19  O   UNL     1      43.801 -11.375  11.870  1.00  0.00    -0.273 OA
HETATM   20  H   UNL     1      43.830  -8.346  10.869  1.00  0.00     0.169 HD
BRANCH  18  21
HETATM   21  C   UNL     1      42.825  -9.438  12.860  1.00  0.00     0.103 C 
BRANCH  21  22
HETATM   22  C   UNL     1      43.009  -7.931  12.713  1.00  0.00     0.005 C 
HETATM   23  C   UNL     1      43.211  -7.257  14.059  1.00  0.00     0.005 C 
ENDBRANCH  21  22
ENDBRANCH  18  21
ENDBRANCH  15  17
ENDBRANCH   1  11
BRANCH   3  24
HETATM   24  N   UNL     1      40.664 -11.380   4.399  1.00  0.00    -0.340 N 
HETATM   25  H   UNL     1      40.400 -10.527   4.881  1.00  0.00     0.167 HD
BRANCH  24  26
HETATM   26  C   UNL     1      40.504 -11.276   2.996  1.00  0.00     0.034 A 
HETATM   27  C   UNL     1      41.574 -10.811   2.214  1.00  0.00     0.032 A 
HETATM   28  C   UNL     1      41.467 -10.639   0.826  1.00  0.00     0.034 A 
HETATM   29  C   UNL     1      40.229 -10.925   0.246  1.00  0.00     0.062 A 
HETATM   30  N   UNL     1      39.787 -10.862  -1.049  1.00  0.00    -0.278 N 
HETATM   31  C   UNL     1      39.135 -11.354   0.984  1.00  0.00     0.013 A 
HETATM   32  H   UNL     1      40.314 -10.589  -1.869  1.00  0.00     0.189 HD
HETATM   33  N   UNL     1      38.496 -11.206  -1.208  1.00  0.00    -0.186 NA
HETATM   34  C   UNL     1      38.102 -11.507   0.033  1.00  0.00     0.152 A 
HETATM   35  C   UNL     1      39.266 -11.522   2.374  1.00  0.00     0.044 A 
ENDBRANCH  24  26
ENDBRANCH   3  24
BRANCH   6  36
HETATM   36  O   UNL     1      40.528 -16.344   3.365  1.00  0.00    -0.351 OA
BRANCH  36  37
HETATM   37  C   UNL     1      39.715 -15.616   2.445  1.00  0.00     0.180 C 
BRANCH  37  38
HETATM   38  C   UNL     1      40.379 -15.667   1.102  1.00  0.00     0.010 A 
HETATM   39  C   UNL     1      39.867 -14.825  -0.040  1.00  0.00     0.007 A 
HETATM   40  C   UNL     1      41.188 -14.497   0.603  1.00  0.00     0.007 A 
ENDBRANCH  37  38
ENDBRANCH  36  37
ENDBRANCH   6  36
TORSDOF 9
ENDMDL
MODEL 7
REMARK VINA RESULT:      -8.9      3.266      6.234
REMARK  9 active torsions:
REMARK  status: ('A' for Active; 'I' for Inactive)
REMARK    1  A    between atoms: C_2  and  C_3 
REMARK    2  A    between atoms: C_3  and  C_4 
REMARK       I    between atoms: C_4  and  N_6 
REMARK    3  A    between atoms: N_6  and  C_7 
REMARK    4  A    between atoms: C_11  and  C_13 
REMARK    5  A    between atoms: C_15  and  N_16 
REMARK    6  A    between atoms: N_16  and  C_17 
REMARK    7  A    between atoms: C_29  and  O_30 
REMARK    8  A    between atoms: O_30  and  C_31 
REMARK    9  A    between atoms: C_31  and  C_32 
ROOT
HETATM    1  C   UNL     1      41.054 -12.375   5.207  1.00  0.00     0.162 A 
HETATM    2  N   UNL     1      40.416 -12.883   4.144  1.00  0.00    -0.210 NA
HETATM    3  C   UNL     1      40.819 -14.076   3.677  1.00  0.00     0.143 A 
HETATM    4  C   UNL     1      41.860 -14.795   4.285  1.00  0.00     0.041 A 
HETATM    5  C   UNL     1      42.326 -16.069   3.869  1.00  0.00     0.054 A 
HETATM    6  C   UNL     1      43.355 -16.722   4.546  1.00  0.00     0.069 A 
HETATM    7  C   UNL     1      43.953 -16.087   5.625  1.00  0.00     0.039 A 
HETATM    8  C   UNL     1      43.507 -14.820   6.024  1.00  0.00     0.035 A 
HETATM    9  C   UNL     1      42.467 -14.164   5.378  1.00  0.00     0.073 A 
HETATM   10  N   UNL     1      42.085 -12.966   5.831  1.00  0.00    -0.228 NA
ENDROOT
BRANCH   1  11
HETATM   11  C   UNL     1      40.548 -11.103   5.746  1.00  0.00     0.014 A 
HETATM   12  C   UNL     1      39.311 -10.586   5.321  1.00  0.00     0.015 A 
HETATM   13  C   UNL     1      38.810  -9.394   5.840  1.00  0.00     0.003 A 
HETATM   14  C   UNL     1      39.544  -8.680   6.788  1.00  0.00     0.029 A 
HETATM   15  C   UNL     1      40.784  -9.151   7.219  1.00  0.00     0.035 A 
HETATM   16  C   UNL     1      41.271 -10.362   6.701  1.00  0.00     0.044 A 
BRANCH  15  17
HETATM   17  N   UNL     1      41.607  -8.457   8.131  1.00  0.00    -0.327 N 
HETATM   18  C   UNL     1      42.374  -7.332   7.879  1.00  0.00     0.222 C 
HETATM   19  O   UNL     1      42.399  -6.675   6.844  1.00  0.00    -0.273 OA
HETATM   20  H   UNL     1      41.626  -8.821   9.075  1.00  0.00     0.169 HD
BRANCH  18  21
HETATM   21  C   UNL     1      43.279  -6.968   9.040  1.00  0.00     0.103 C 
BRANCH  21  22
HETATM   22  C   UNL     1      44.039  -8.199   9.523  1.00  0.00     0.005 C 
HETATM   23  C   UNL     1      45.189  -8.549   8.595  1.00  0.00     0.005 C 
ENDBRANCH  21  22
ENDBRANCH  18  21
ENDBRANCH  15  17
ENDBRANCH   1  11
BRANCH   3  24
HETATM   24  N   UNL     1      40.149 -14.628   2.553  1.00  0.00    -0.340 N 
HETATM   25  H   UNL     1      39.343 -15.155   2.869  1.00  0.00     0.167 HD
BRANCH  24  26
HETATM   26  C   UNL     1      39.928 -14.002   1.303  1.00  0.00     0.034 A 
HETATM   27  C   UNL     1      39.435 -12.687   1.270  1.00  0.00     0.032 A 
HETATM   28  C   UNL     1      39.148 -12.026   0.066  1.00  0.00     0.034 A 
HETATM   29  C   UNL     1      39.347 -12.745  -1.114  1.00  0.00     0.062 A 
HETATM   30  N   UNL     1      39.166 -12.413  -2.431  1.00  0.00    -0.278 N 
HETATM   31  C   UNL     1      39.800 -14.057  -1.128  1.00  0.00     0.013 A 
HETATM   32  H   UNL     1      38.844 -11.531  -2.807  1.00  0.00     0.189 HD
HETATM   33  N   UNL     1      39.455 -13.405  -3.294  1.00  0.00    -0.186 NA
HETATM   34  C   UNL     1      39.842 -14.405  -2.495  1.00  0.00     0.152 A 
HETATM   35  C   UNL     1      40.084 -14.699   0.091  1.00  0.00     0.044 A 
ENDBRANCH  24  26
ENDBRANCH   3  24
BRANCH   6  36
HETATM   36  O   UNL     1      43.672 -17.955   4.054  1.00  0.00    -0.351 OA
BRANCH  36  37
HETATM   37  C   UNL     1      43.548 -18.146   2.645  1.00  0.00     0.180 C 
BRANCH  37  38
HETATM   38  C   UNL     1      43.029 -19.532   2.411  1.00  0.00     0.010 A 
HETATM   39  C   UNL     1      43.824 -20.522   1.598  1.00  0.00     0.007 A 
HETATM   40  C   UNL     1      43.676 -20.715   3.083  1.00  0.00     0.007 A 
ENDBRANCH  37  38
ENDBRANCH  36  37
ENDBRANCH   6  36
TORSDOF 9
ENDMDL
MODEL 8
REMARK VINA RESULT:      -8.7      2.656     10.193
REMARK  9 active torsions:
REMARK  status: ('A' for Active; 'I' for Inactive)
REMARK    1  A    between atoms: C_2  and  C_3 
REMARK    2  A    between atoms: C_3  and  C_4 
REMARK       I    between atoms: C_4  and  N_6 
REMARK    3  A    between atoms: N_6  and  C_7 
REMARK    4  A    between atoms: C_11  and  C_13 
REMARK    5  A    between atoms: C_15  and  N_16 
REMARK    6  A    between atoms: N_16  and  C_17 
REMARK    7  A    between atoms: C_29  and  O_30 
REMARK    8  A    between atoms: O_30  and  C_31 
REMARK    9  A    between atoms: C_31  and  C_32 
ROOT
HETATM    1  C   UNL     1      41.742 -12.395   5.177  1.00  0.00     0.162 A 
HETATM    2  N   UNL     1      41.024 -11.325   5.545  1.00  0.00    -0.210 NA
HETATM    3  C   UNL     1      41.595 -10.439   6.378  1.00  0.00     0.143 A 
HETATM    4  C   UNL     1      42.910 -10.601   6.841  1.00  0.00     0.041 A 
HETATM    5  C   UNL     1      43.591  -9.699   7.699  1.00  0.00     0.054 A 
HETATM    6  C   UNL     1      44.908  -9.927   8.093  1.00  0.00     0.069 A 
HETATM    7  C   UNL     1      45.545 -11.082   7.661  1.00  0.00     0.039 A 
HETATM    8  C   UNL     1      44.866 -11.982   6.829  1.00  0.00     0.035 A 
HETATM    9  C   UNL     1      43.562 -11.761   6.406  1.00  0.00     0.073 A 
HETATM   10  N   UNL     1      42.989 -12.657   5.596  1.00  0.00    -0.228 NA
ENDROOT
BRANCH   1  11
HETATM   11  C   UNL     1      41.124 -13.312   4.207  1.00  0.00     0.014 A 
HETATM   12  C   UNL     1      40.008 -12.912   3.450  1.00  0.00     0.015 A 
HETATM   13  C   UNL     1      39.428 -13.763   2.512  1.00  0.00     0.003 A 
HETATM   14  C   UNL     1      39.941 -15.046   2.319  1.00  0.00     0.029 A 
HETATM   15  C   UNL     1      41.034 -15.486   3.065  1.00  0.00     0.035 A 
HETATM   16  C   UNL     1      41.621 -14.614   3.996  1.00  0.00     0.044 A 
BRANCH  15  17
HETATM   17  N   UNL     1      41.573 -16.787   2.965  1.00  0.00    -0.327 N 
HETATM   18  C   UNL     1      42.714 -17.171   2.282  1.00  0.00     0.222 C 
HETATM   19  O   UNL     1      43.520 -16.435   1.723  1.00  0.00    -0.273 OA
HETATM   20  H   UNL     1      41.071 -17.513   3.460  1.00  0.00     0.169 HD
BRANCH  18  21
HETATM   21  C   UNL     1      42.888 -18.676   2.231  1.00  0.00     0.103 C 
BRANCH  21  22
HETATM   22  C   UNL     1      44.208 -19.078   2.880  1.00  0.00     0.005 C 
HETATM   23  C   UNL     1      44.224 -18.758   4.364  1.00  0.00     0.005 C 
ENDBRANCH  21  22
ENDBRANCH  18  21
ENDBRANCH  15  17
ENDBRANCH   1  11
BRANCH   3  24
HETATM   24  N   UNL     1      40.847  -9.299   6.774  1.00  0.00    -0.340 N 
HETATM   25  H   UNL     1      40.031  -9.209   6.179  1.00  0.00     0.167 HD
BRANCH  24  26
HETATM   26  C   UNL     1      40.598  -8.863   8.098  1.00  0.00     0.034 A 
HETATM   27  C   UNL     1      40.887  -7.535   8.450  1.00  0.00     0.032 A 
HETATM   28  C   UNL     1      40.709  -7.051   9.755  1.00  0.00     0.034 A 
HETATM   29  C   UNL     1      40.254  -7.961  10.711  1.00  0.00     0.062 A 
HETATM   30  N   UNL     1      39.983  -7.828  12.047  1.00  0.00    -0.278 N 
HETATM   31  C   UNL     1      39.988  -9.291  10.416  1.00  0.00     0.013 A 
HETATM   32  H   UNL     1      40.062  -6.993  12.613  1.00  0.00     0.189 HD
HETATM   33  N   UNL     1      39.574  -8.964  12.642  1.00  0.00    -0.186 NA
HETATM   34  C   UNL     1      39.577  -9.853  11.644  1.00  0.00     0.152 A 
HETATM   35  C   UNL     1      40.171  -9.753   9.100  1.00  0.00     0.044 A 
ENDBRANCH  24  26
ENDBRANCH   3  24
BRANCH   6  36
HETATM   36  O   UNL     1      45.444  -8.957   8.891  1.00  0.00    -0.351 OA
BRANCH  36  37
HETATM   37  C   UNL     1      45.371  -9.160  10.301  1.00  0.00     0.180 C 
BRANCH  37  38
HETATM   38  C   UNL     1      43.942  -8.990  10.719  1.00  0.00     0.010 A 
HETATM   39  C   UNL     1      43.300  -9.964  11.674  1.00  0.00     0.007 A 
HETATM   40  C   UNL     1      43.601  -8.560  12.123  1.00  0.00     0.007 A 
ENDBRANCH  37  38
ENDBRANCH  36  37
ENDBRANCH   6  36
TORSDOF 9
ENDMDL
MODEL 9
REMARK VINA RESULT:      -8.7      2.971      5.920
REMARK  9 active torsions:
REMARK  status: ('A' for Active; 'I' for Inactive)
REMARK    1  A    between atoms: C_2  and  C_3 
REMARK    2  A    between atoms: C_3  and  C_4 
REMARK       I    between atoms: C_4  and  N_6 
REMARK    3  A    between atoms: N_6  and  C_7 
REMARK    4  A    between atoms: C_11  and  C_13 
REMARK    5  A    between atoms: C_15  and  N_16 
REMARK    6  A    between atoms: N_16  and  C_17 
REMARK    7  A    between atoms: C_29  and  O_30 
REMARK    8  A    between atoms: O_30  and  C_31 
REMARK    9  A    between atoms: C_31  and  C_32 
ROOT
HETATM    1  C   UNL     1      43.997 -11.973   6.102  1.00  0.00     0.162 A 
HETATM    2  N   UNL     1      43.585 -11.692   4.859  1.00  0.00    -0.210 NA
HETATM    3  C   UNL     1      43.202 -12.713   4.074  1.00  0.00     0.143 A 
HETATM    4  C   UNL     1      43.206 -14.039   4.534  1.00  0.00     0.041 A 
HETATM    5  C   UNL     1      42.793 -15.167   3.779  1.00  0.00     0.054 A 
HETATM    6  C   UNL     1      42.810 -16.450   4.323  1.00  0.00     0.069 A 
HETATM    7  C   UNL     1      43.276 -16.621   5.618  1.00  0.00     0.039 A 
HETATM    8  C   UNL     1      43.701 -15.510   6.358  1.00  0.00     0.035 A 
HETATM    9  C   UNL     1      43.670 -14.220   5.842  1.00  0.00     0.073 A 
HETATM   10  N   UNL     1      44.074 -13.209   6.618  1.00  0.00    -0.228 NA
ENDROOT
BRANCH   1  11
HETATM   11  C   UNL     1      44.341 -10.833   6.966  1.00  0.00     0.014 A 
HETATM   12  C   UNL     1      45.673 -10.604   7.355  1.00  0.00     0.015 A 
HETATM   13  C   UNL     1      46.014  -9.515   8.156  1.00  0.00     0.003 A 
HETATM   14  C   UNL     1      45.026  -8.637   8.600  1.00  0.00     0.029 A 
HETATM   15  C   UNL     1      43.692  -8.843   8.252  1.00  0.00     0.035 A 
HETATM   16  C   UNL     1      43.362  -9.934   7.432  1.00  0.00     0.044 A 
BRANCH  15  17
HETATM   17  N   UNL     1      42.632  -8.031   8.710  1.00  0.00    -0.327 N 
HETATM   18  C   UNL     1      42.141  -6.882   8.113  1.00  0.00     0.222 C 
HETATM   19  O   UNL     1      42.470  -6.417   7.028  1.00  0.00    -0.273 OA
HETATM   20  H   UNL     1      42.179  -8.333   9.562  1.00  0.00     0.169 HD
BRANCH  18  21
HETATM   21  C   UNL     1      41.125  -6.161   8.980  1.00  0.00     0.103 C 
BRANCH  21  22
HETATM   22  C   UNL     1      40.302  -7.168   9.776  1.00  0.00     0.005 C 
HETATM   23  C   UNL     1      38.883  -7.277   9.246  1.00  0.00     0.005 C 
ENDBRANCH  21  22
ENDBRANCH  18  21
ENDBRANCH  15  17
ENDBRANCH   1  11
BRANCH   3  24
HETATM   24  N   UNL     1      42.760 -12.429   2.756  1.00  0.00    -0.340 N 
HETATM   25  H   UNL     1      43.274 -13.005   2.098  1.00  0.00     0.167 HD
BRANCH  24  26
HETATM   26  C   UNL     1      41.428 -12.192   2.337  1.00  0.00     0.034 A 
HETATM   27  C   UNL     1      40.435 -11.962   3.303  1.00  0.00     0.032 A 
HETATM   28  C   UNL     1      39.088 -11.768   2.960  1.00  0.00     0.034 A 
HETATM   29  C   UNL     1      38.764 -11.842   1.604  1.00  0.00     0.062 A 
HETATM   30  N   UNL     1      37.574 -11.710   0.937  1.00  0.00    -0.278 N 
HETATM   31  C   UNL     1      39.707 -12.101   0.619  1.00  0.00     0.013 A 
HETATM   32  H   UNL     1      36.663 -11.514   1.333  1.00  0.00     0.189 HD
HETATM   33  N   UNL     1      37.668 -11.872  -0.396  1.00  0.00    -0.186 NA
HETATM   34  C   UNL     1      38.970 -12.109  -0.586  1.00  0.00     0.152 A 
HETATM   35  C   UNL     1      41.051 -12.290   0.986  1.00  0.00     0.044 A 
ENDBRANCH  24  26
ENDBRANCH   3  24
BRANCH   6  36
HETATM   36  O   UNL     1      42.352 -17.432   3.491  1.00  0.00    -0.351 OA
BRANCH  36  37
HETATM   37  C   UNL     1      43.262 -17.933   2.513  1.00  0.00     0.180 C 
BRANCH  37  38
HETATM   38  C   UNL     1      42.938 -19.377   2.277  1.00  0.00     0.010 A 
HETATM   39  C   UNL     1      43.953 -20.299   1.651  1.00  0.00     0.007 A 
HETATM   40  C   UNL     1      43.593 -20.453   3.104  1.00  0.00     0.007 A 
ENDBRANCH  37  38
ENDBRANCH  36  37
ENDBRANCH   6  36
TORSDOF 9
ENDMDL
MODEL 10
REMARK VINA RESULT:      -8.5      3.404      6.380
REMARK  9 active torsions:
REMARK  status: ('A' for Active; 'I' for Inactive)
REMARK    1  A    between atoms: C_2  and  C_3 
REMARK    2  A    between atoms: C_3  and  C_4 
REMARK       I    between atoms: C_4  and  N_6 
REMARK    3  A    between atoms: N_6  and  C_7 
REMARK    4  A    between atoms: C_11  and  C_13 
REMARK    5  A    between atoms: C_15  and  N_16 
REMARK    6  A    between atoms: N_16  and  C_17 
REMARK    7  A    between atoms: C_29  and  O_30 
REMARK    8  A    between atoms: O_30  and  C_31 
REMARK    9  A    between atoms: C_31  and  C_32 
ROOT
HETATM    1  C   UNL     1      40.731 -12.409   4.763  1.00  0.00     0.162 A 
HETATM    2  N   UNL     1      40.306 -12.972   3.624  1.00  0.00    -0.210 NA
HETATM    3  C   UNL     1      40.888 -14.117   3.230  1.00  0.00     0.143 A 
HETATM    4  C   UNL     1      41.896 -14.732   3.988  1.00  0.00     0.041 A 
HETATM    5  C   UNL     1      42.540 -15.952   3.655  1.00  0.00     0.054 A 
HETATM    6  C   UNL     1      43.519 -16.504   4.479  1.00  0.00     0.069 A 
HETATM    7  C   UNL     1      43.890 -15.820   5.627  1.00  0.00     0.039 A 
HETATM    8  C   UNL     1      43.268 -14.606   5.947  1.00  0.00     0.035 A 
HETATM    9  C   UNL     1      42.273 -14.051   5.152  1.00  0.00     0.073 A 
HETATM   10  N   UNL     1      41.713 -12.899   5.535  1.00  0.00    -0.228 NA
ENDROOT
BRANCH   1  11
HETATM   11  C   UNL     1      40.029 -11.197   5.212  1.00  0.00     0.014 A 
HETATM   12  C   UNL     1      39.263 -10.436   4.311  1.00  0.00     0.015 A 
HETATM   13  C   UNL     1      38.576  -9.298   4.728  1.00  0.00     0.003 A 
HETATM   14  C   UNL     1      38.652  -8.884   6.058  1.00  0.00     0.029 A 
HETATM   15  C   UNL     1      39.417  -9.601   6.977  1.00  0.00     0.035 A 
HETATM   16  C   UNL     1      40.092 -10.755   6.548  1.00  0.00     0.044 A 
BRANCH  15  17
HETATM   17  N   UNL     1      39.586  -9.213   8.323  1.00  0.00    -0.327 N 
HETATM   18  C   UNL     1      39.041  -9.817   9.444  1.00  0.00     0.222 C 
HETATM   19  O   UNL     1      38.395 -10.858   9.478  1.00  0.00    -0.273 OA
HETATM   20  H   UNL     1      40.181  -8.410   8.481  1.00  0.00     0.169 HD
BRANCH  18  21
HETATM   21  C   UNL     1      39.278  -9.019  10.712  1.00  0.00     0.103 C 
BRANCH  21  22
HETATM   22  C   UNL     1      40.322  -9.710  11.582  1.00  0.00     0.005 C 
HETATM   23  C   UNL     1      39.691 -10.382  12.789  1.00  0.00     0.005 C 
ENDBRANCH  21  22
ENDBRANCH  18  21
ENDBRANCH  15  17
ENDBRANCH   1  11
BRANCH   3  24
HETATM   24  N   UNL     1      40.445 -14.726   2.026  1.00  0.00    -0.340 N 
HETATM   25  H   UNL     1      39.657 -15.331   2.226  1.00  0.00     0.167 HD
BRANCH  24  26
HETATM   26  C   UNL     1      40.348 -14.118   0.751  1.00  0.00     0.034 A 
HETATM   27  C   UNL     1      39.727 -14.816  -0.298  1.00  0.00     0.032 A 
HETATM   28  C   UNL     1      39.640 -14.292  -1.597  1.00  0.00     0.034 A 
HETATM   29  C   UNL     1      40.228 -13.045  -1.817  1.00  0.00     0.062 A 
HETATM   30  N   UNL     1      40.328 -12.265  -2.939  1.00  0.00    -0.278 N 
HETATM   31  C   UNL     1      40.881 -12.336  -0.819  1.00  0.00     0.013 A 
HETATM   32  H   UNL     1      39.964 -12.461  -3.862  1.00  0.00     0.189 HD
HETATM   33  N   UNL     1      41.001 -11.114  -2.750  1.00  0.00    -0.186 NA
HETATM   34  C   UNL     1      41.335 -11.160  -1.457  1.00  0.00     0.152 A 
HETATM   35  C   UNL     1      40.954 -12.878   0.476  1.00  0.00     0.044 A 
ENDBRANCH  24  26
ENDBRANCH   3  24
BRANCH   6  36
HETATM   36  O   UNL     1      44.025 -17.697   4.048  1.00  0.00    -0.351 OA
BRANCH  36  37
HETATM   37  C   UNL     1      43.404 -18.295   2.911  1.00  0.00     0.180 C 
BRANCH  37  38
HETATM   38  C   UNL     1      44.158 -19.547   2.578  1.00  0.00     0.010 A 
HETATM   39  C   UNL     1      43.742 -20.872   3.163  1.00  0.00     0.007 A 
HETATM   40  C   UNL     1      43.539 -20.601   1.697  1.00  0.00     0.007 A 
ENDBRANCH  37  38
ENDBRANCH  36  37
ENDBRANCH   6  36
TORSDOF 9
ENDMDL
