MODEL 1
REMARK VINA RESULT:      -8.0      0.000      0.000
REMARK  10 active torsions:
REMARK  status: ('A' for Active; 'I' for Inactive)
REMARK    1  A    between atoms: C_4  and  C_5 
REMARK    2  A    between atoms: C_5  and  O_6 
REMARK    3  A    between atoms: O_6  and  C_7 
REMARK    4  A    between atoms: C_10  and  N_11 
REMARK       I    between atoms: N_11  and  C_12 
REMARK       I    between atoms: C_12  and  N_13 
REMARK    5  A    between atoms: N_13  and  C_14 
REMARK    6  A    between atoms: C_14  and  C_15 
REMARK    7  A    between atoms: C_15  and  C_16 
REMARK    8  A    between atoms: C_16  and  C_17 
REMARK    9  A    between atoms: C_17  and  N_18 
REMARK   10  A    between atoms: C_25  and  C_26 
REMARK       I    between atoms: C_26  and  N_27 
ROOT
HETATM    1  C   UNL     1      41.791 -12.751   3.837  1.00  0.00     0.191 C 
HETATM    2  N   UNL     1      42.369 -11.670   3.326  1.00  0.00    -0.184 NA
HETATM    3  S   UNL     1      42.161 -10.434   4.401  1.00  0.00     0.033 SA
HETATM    4  C   UNL     1      41.421 -11.384   5.622  1.00  0.00     0.117 C 
HETATM    5  C   UNL     1      41.140 -12.645   5.114  1.00  0.00     0.120 C 
ENDROOT
BRANCH   4   6
HETATM    6  N   UNL     1      41.231 -10.679   6.796  1.00  0.00    -0.301 N 
HETATM    7  C   UNL     1      42.185 -10.032   7.528  1.00  0.00     0.321 C 
HETATM    8  N   UNL     1      43.489 -10.295   7.263  1.00  0.00    -0.343 N 
HETATM    9  O   UNL     1      41.834  -9.156   8.320  1.00  0.00    -0.247 OA
HETATM   10  H   UNL     1      43.646 -11.299   7.195  1.00  0.00     0.164 HD
HETATM   11  H   UNL     1      40.336 -10.214   6.883  1.00  0.00     0.171 HD
BRANCH   8  12
HETATM   12  C   UNL     1      44.587  -9.601   7.901  1.00  0.00     0.124 C 
BRANCH  12  13
HETATM   13  C   UNL     1      45.292 -10.439   8.974  1.00  0.00     0.021 C 
BRANCH  13  14
HETATM   14  C   UNL     1      44.976 -10.082  10.432  1.00  0.00     0.029 C 
BRANCH  14  15
HETATM   15  C   UNL     1      43.687 -10.732  10.930  1.00  0.00     0.235 C 
BRANCH  15  16
HETATM   16  N   UNL     1      42.714  -9.689  11.418  1.00  0.00    -0.071 N 
HETATM   17  H   UNL     1      41.960  -9.613  10.724  1.00  0.00     0.279 HD
HETATM   18  C   UNL     1      43.342  -8.311  11.555  1.00  0.00     0.235 C 
HETATM   19  C   UNL     1      43.233  -7.976  13.030  1.00  0.00     0.029 C 
HETATM   20  C   UNL     1      41.956  -8.673  13.448  1.00  0.00     0.029 C 
HETATM   21  C   UNL     1      42.073 -10.016  12.758  1.00  0.00     0.235 C 
ENDBRANCH  15  16
ENDBRANCH  14  15
ENDBRANCH  13  14
ENDBRANCH  12  13
ENDBRANCH   8  12
ENDBRANCH   4   6
BRANCH   5  22
HETATM   22  C   UNL     1      40.313 -13.661   5.742  1.00  0.00     0.256 C 
HETATM   23  N   UNL     1      40.272 -14.886   5.146  1.00  0.00    -0.366 N 
HETATM   24  H   UNL     1      40.796 -15.107   4.307  1.00  0.00     0.159 HD
HETATM   25  H   UNL     1      39.686 -15.604   5.552  1.00  0.00     0.159 HD
HETATM   26  O   UNL     1      39.656 -13.462   6.760  1.00  0.00    -0.268 OA
ENDBRANCH   5  22
BRANCH   1  27
HETATM   27  O   UNL     1      41.795 -13.875   3.081  1.00  0.00    -0.328 OA
BRANCH  27  28
HETATM   28  C   UNL     1      43.114 -14.261   2.676  1.00  0.00     0.222 C 
BRANCH  28  29
HETATM   29  C   UNL     1      43.347 -15.665   3.154  1.00  0.00     0.043 A 
HETATM   30  C   UNL     1      43.562 -15.948   4.501  1.00  0.00     0.129 A 
HETATM   31  C   UNL     1      43.776 -17.250   4.947  1.00  0.00     0.062 A 
HETATM   32  F   UNL     1      43.561 -14.954   5.399  1.00  0.00    -0.205 F 
HETATM   33  C   UNL     1      43.774 -18.295   4.025  1.00  0.00     0.016 A 
HETATM   34  C   UNL     1      43.556 -18.043   2.674  1.00  0.00     0.062 A 
HETATM   35 BR   UNL     1      44.066 -20.067   4.613  1.00  0.00    -0.051 Br
HETATM   36  C   UNL     1      43.342 -16.734   2.254  1.00  0.00     0.129 A 
HETATM   37  F   UNL     1      43.126 -16.503   0.950  1.00  0.00    -0.205 F 
ENDBRANCH  28  29
ENDBRANCH  27  28
ENDBRANCH   1  27
TORSDOF 10
ENDMDL
MODEL 2
REMARK VINA RESULT:      -7.8      2.334      3.715
REMARK  10 active torsions:
REMARK  status: ('A' for Active; 'I' for Inactive)
REMARK    1  A    between atoms: C_4  and  C_5 
REMARK    2  A    between atoms: C_5  and  O_6 
REMARK    3  A    between atoms: O_6  and  C_7 
REMARK    4  A    between atoms: C_10  and  N_11 
REMARK       I    between atoms: N_11  and  C_12 
REMARK       I    between atoms: C_12  and  N_13 
REMARK    5  A    between atoms: N_13  and  C_14 
REMARK    6  A    between atoms: C_14  and  C_15 
REMARK    7  A    between atoms: C_15  and  C_16 
REMARK    8  A    between atoms: C_16  and  C_17 
REMARK    9  A    between atoms: C_17  and  N_18 
REMARK   10  A    between atoms: C_25  and  C_26 
REMARK       I    between atoms: C_26  and  N_27 
ROOT
HETATM    1  C   UNL     1      43.053 -12.013   6.195  1.00  0.00     0.191 C 
HETATM    2  N   UNL     1      41.747 -11.860   6.006  1.00  0.00    -0.184 NA
HETATM    3  S   UNL     1      41.300 -10.438   6.717  1.00  0.00     0.033 SA
HETATM    4  C   UNL     1      42.885  -9.953   7.155  1.00  0.00     0.117 C 
HETATM    5  C   UNL     1      43.765 -11.003   6.930  1.00  0.00     0.120 C 
ENDROOT
BRANCH   4   6
HETATM    6  N   UNL     1      42.922  -8.669   7.666  1.00  0.00    -0.301 N 
HETATM    7  C   UNL     1      43.236  -8.303   8.943  1.00  0.00     0.321 C 
HETATM    8  N   UNL     1      43.265  -9.265   9.900  1.00  0.00    -0.343 N 
HETATM    9  O   UNL     1      43.589  -7.143   9.160  1.00  0.00    -0.247 OA
HETATM   10  H   UNL     1      42.437  -9.853   9.842  1.00  0.00     0.164 HD
HETATM   11  H   UNL     1      43.196  -7.949   7.009  1.00  0.00     0.171 HD
BRANCH   8  12
HETATM   12  C   UNL     1      43.679  -9.017  11.265  1.00  0.00     0.124 C 
BRANCH  12  13
HETATM   13  C   UNL     1      42.920  -9.865  12.292  1.00  0.00     0.021 C 
BRANCH  13  14
HETATM   14  C   UNL     1      41.693  -9.211  12.939  1.00  0.00     0.029 C 
BRANCH  14  15
HETATM   15  C   UNL     1      40.472 -10.127  12.945  1.00  0.00     0.235 C 
BRANCH  15  16
HETATM   16  N   UNL     1      39.359  -9.543  12.111  1.00  0.00    -0.071 N 
HETATM   17  H   UNL     1      38.485 -10.010  12.383  1.00  0.00     0.279 HD
HETATM   18  C   UNL     1      39.550  -9.776  10.621  1.00  0.00     0.235 C 
HETATM   19  C   UNL     1      39.672  -8.390  10.021  1.00  0.00     0.029 C 
HETATM   20  C   UNL     1      38.793  -7.546  10.920  1.00  0.00     0.029 C 
HETATM   21  C   UNL     1      39.160  -8.048  12.301  1.00  0.00     0.235 C 
ENDBRANCH  15  16
ENDBRANCH  14  15
ENDBRANCH  13  14
ENDBRANCH  12  13
ENDBRANCH   8  12
ENDBRANCH   4   6
BRANCH   5  22
HETATM   22  C   UNL     1      45.143 -11.085   7.383  1.00  0.00     0.256 C 
HETATM   23  N   UNL     1      46.107 -11.202   6.427  1.00  0.00    -0.366 N 
HETATM   24  H   UNL     1      45.898 -11.223   5.435  1.00  0.00     0.159 HD
HETATM   25  H   UNL     1      47.072 -11.283   6.718  1.00  0.00     0.159 HD
HETATM   26  O   UNL     1      45.466 -11.062   8.567  1.00  0.00    -0.268 OA
ENDBRANCH   5  22
BRANCH   1  27
HETATM   27  O   UNL     1      43.619 -13.155   5.737  1.00  0.00    -0.328 OA
BRANCH  27  28
HETATM   28  C   UNL     1      43.162 -14.317   6.441  1.00  0.00     0.222 C 
BRANCH  28  29
HETATM   29  C   UNL     1      43.245 -15.483   5.500  1.00  0.00     0.043 A 
HETATM   30  C   UNL     1      42.381 -15.603   4.412  1.00  0.00     0.129 A 
HETATM   31  C   UNL     1      42.458 -16.683   3.537  1.00  0.00     0.062 A 
HETATM   32  F   UNL     1      41.455 -14.661   4.190  1.00  0.00    -0.205 F 
HETATM   33  C   UNL     1      43.420 -17.668   3.752  1.00  0.00     0.016 A 
HETATM   34  C   UNL     1      44.299 -17.573   4.826  1.00  0.00     0.062 A 
HETATM   35 BR   UNL     1      43.534 -19.142   2.576  1.00  0.00    -0.051 Br
HETATM   36  C   UNL     1      44.205 -16.482   5.685  1.00  0.00     0.129 A 
HETATM   37  F   UNL     1      45.062 -16.396   6.713  1.00  0.00    -0.205 F 
ENDBRANCH  28  29
ENDBRANCH  27  28
ENDBRANCH   1  27
TORSDOF 10
ENDMDL
MODEL 3
REMARK VINA RESULT:      -7.7      4.845      8.142
REMARK  10 active torsions:
REMARK  status: ('A' for Active; 'I' for Inactive)
REMARK    1  A    between atoms: C_4  and  C_5 
REMARK    2  A    between atoms: C_5  and  O_6 
REMARK    3  A    between atoms: O_6  and  C_7 
REMARK    4  A    between atoms: C_10  and  N_11 
REMARK       I    between atoms: N_11  and  C_12 
REMARK       I    between atoms: C_12  and  N_13 
REMARK    5  A    between atoms: N_13  and  C_14 
REMARK    6  A    between atoms: C_14  and  C_15 
REMARK    7  A    between atoms: C_15  and  C_16 
REMARK    8  A    between atoms: C_16  and  C_17 
REMARK    9  A    between atoms: C_17  and  N_18 
REMARK   10  A    between atoms: C_25  and  C_26 
REMARK       I    between atoms: C_26  and  N_27 
ROOT
HETATM    1  C   UNL     1      40.934 -13.410   4.621  1.00  0.00     0.191 C 
HETATM    2  N   UNL     1      41.359 -12.535   5.525  1.00  0.00    -0.184 NA
HETATM    3  S   UNL     1      40.645 -11.084   5.191  1.00  0.00     0.033 SA
HETATM    4  C   UNL     1      39.651 -11.664   3.920  1.00  0.00     0.117 C 
HETATM    5  C   UNL     1      40.021 -12.964   3.605  1.00  0.00     0.120 C 
ENDROOT
BRANCH   4   6
HETATM    6  N   UNL     1      38.755 -10.710   3.472  1.00  0.00    -0.301 N 
HETATM    7  C   UNL     1      38.749 -10.099   2.251  1.00  0.00     0.321 C 
HETATM    8  N   UNL     1      39.852 -10.210   1.470  1.00  0.00    -0.343 N 
HETATM    9  O   UNL     1      37.709  -9.568   1.858  1.00  0.00    -0.247 OA
HETATM   10  H   UNL     1      40.694 -10.022   2.010  1.00  0.00     0.164 HD
HETATM   11  H   UNL     1      37.814 -10.795   3.836  1.00  0.00     0.171 HD
BRANCH   8  12
HETATM   12  C   UNL     1      39.927  -9.692   0.121  1.00  0.00     0.124 C 
BRANCH  12  13
HETATM   13  C   UNL     1      41.123 -10.232  -0.671  1.00  0.00     0.021 C 
BRANCH  13  14
HETATM   14  C   UNL     1      40.819 -10.781  -2.071  1.00  0.00     0.029 C 
BRANCH  14  15
HETATM   15  C   UNL     1      40.917 -12.302  -2.140  1.00  0.00     0.235 C 
BRANCH  15  16
HETATM   16  N   UNL     1      39.600 -12.942  -1.776  1.00  0.00    -0.071 N 
HETATM   17  H   UNL     1      39.504 -12.903  -0.754  1.00  0.00     0.279 HD
HETATM   18  C   UNL     1      39.522 -14.406  -2.181  1.00  0.00     0.235 C 
HETATM   19  C   UNL     1      38.386 -14.474  -3.182  1.00  0.00     0.029 C 
HETATM   20  C   UNL     1      37.442 -13.389  -2.708  1.00  0.00     0.029 C 
HETATM   21  C   UNL     1      38.387 -12.252  -2.380  1.00  0.00     0.235 C 
ENDBRANCH  15  16
ENDBRANCH  14  15
ENDBRANCH  13  14
ENDBRANCH  12  13
ENDBRANCH   8  12
ENDBRANCH   4   6
BRANCH   5  22
HETATM   22  C   UNL     1      39.593 -13.725   2.443  1.00  0.00     0.256 C 
HETATM   23  N   UNL     1      39.162 -14.999   2.658  1.00  0.00    -0.366 N 
HETATM   24  H   UNL     1      39.122 -15.418   3.580  1.00  0.00     0.159 HD
HETATM   25  H   UNL     1      38.880 -15.556   1.862  1.00  0.00     0.159 HD
HETATM   26  O   UNL     1      39.613 -13.277   1.300  1.00  0.00    -0.268 OA
ENDBRANCH   5  22
BRANCH   1  27
HETATM   27  O   UNL     1      41.449 -14.662   4.679  1.00  0.00    -0.328 OA
BRANCH  27  28
HETATM   28  C   UNL     1      42.804 -14.722   4.215  1.00  0.00     0.222 C 
BRANCH  28  29
HETATM   29  C   UNL     1      43.053 -16.114   3.710  1.00  0.00     0.043 A 
HETATM   30  C   UNL     1      43.664 -17.078   4.509  1.00  0.00     0.129 A 
HETATM   31  C   UNL     1      43.894 -18.371   4.043  1.00  0.00     0.062 A 
HETATM   32  F   UNL     1      44.039 -16.770   5.757  1.00  0.00    -0.205 F 
HETATM   33  C   UNL     1      43.504 -18.709   2.750  1.00  0.00     0.016 A 
HETATM   34  C   UNL     1      42.887 -17.768   1.930  1.00  0.00     0.062 A 
HETATM   35 BR   UNL     1      43.813 -20.456   2.102  1.00  0.00    -0.051 Br
HETATM   36  C   UNL     1      42.664 -16.484   2.420  1.00  0.00     0.129 A 
HETATM   37  F   UNL     1      42.062 -15.588   1.625  1.00  0.00    -0.205 F 
ENDBRANCH  28  29
ENDBRANCH  27  28
ENDBRANCH   1  27
TORSDOF 10
ENDMDL
MODEL 4
REMARK VINA RESULT:      -7.7      5.251     10.680
REMARK  10 active torsions:
REMARK  status: ('A' for Active; 'I' for Inactive)
REMARK    1  A    between atoms: C_4  and  C_5 
REMARK    2  A    between atoms: C_5  and  O_6 
REMARK    3  A    between atoms: O_6  and  C_7 
REMARK    4  A    between atoms: C_10  and  N_11 
REMARK       I    between atoms: N_11  and  C_12 
REMARK       I    between atoms: C_12  and  N_13 
REMARK    5  A    between atoms: N_13  and  C_14 
REMARK    6  A    between atoms: C_14  and  C_15 
REMARK    7  A    between atoms: C_15  and  C_16 
REMARK    8  A    between atoms: C_16  and  C_17 
REMARK    9  A    between atoms: C_17  and  N_18 
REMARK   10  A    between atoms: C_25  and  C_26 
REMARK       I    between atoms: C_26  and  N_27 
ROOT
HETATM    1  C   UNL     1      42.053  -9.091  10.148  1.00  0.00     0.191 C 
HETATM    2  N   UNL     1      41.833  -8.336   9.078  1.00  0.00    -0.184 NA
HETATM    3  S   UNL     1      43.019  -8.667   7.978  1.00  0.00     0.033 SA
HETATM    4  C   UNL     1      43.747  -9.931   8.877  1.00  0.00     0.117 C 
HETATM    5  C   UNL     1      43.191  -9.969  10.149  1.00  0.00     0.120 C 
ENDROOT
BRANCH   4   6
HETATM    6  N   UNL     1      44.737 -10.584   8.165  1.00  0.00    -0.301 N 
HETATM    7  C   UNL     1      44.586 -11.684   7.371  1.00  0.00     0.321 C 
HETATM    8  N   UNL     1      43.433 -12.393   7.465  1.00  0.00    -0.343 N 
HETATM    9  O   UNL     1      45.446 -11.927   6.523  1.00  0.00    -0.247 OA
HETATM   10  H   UNL     1      43.197 -12.565   8.440  1.00  0.00     0.164 HD
HETATM   11  H   UNL     1      45.485  -9.993   7.823  1.00  0.00     0.171 HD
BRANCH   8  12
HETATM   12  C   UNL     1      43.118 -13.516   6.608  1.00  0.00     0.124 C 
BRANCH  12  13
HETATM   13  C   UNL     1      43.142 -14.863   7.339  1.00  0.00     0.021 C 
BRANCH  13  14
HETATM   14  C   UNL     1      43.733 -16.046   6.563  1.00  0.00     0.029 C 
BRANCH  14  15
HETATM   15  C   UNL     1      42.896 -16.429   5.345  1.00  0.00     0.235 C 
BRANCH  15  16
HETATM   16  N   UNL     1      43.768 -16.990   4.250  1.00  0.00    -0.071 N 
HETATM   17  H   UNL     1      44.666 -16.491   4.276  1.00  0.00     0.279 HD
HETATM   18  C   UNL     1      43.180 -16.787   2.863  1.00  0.00     0.235 C 
HETATM   19  C   UNL     1      42.952 -18.186   2.326  1.00  0.00     0.029 C 
HETATM   20  C   UNL     1      44.068 -18.986   2.965  1.00  0.00     0.029 C 
HETATM   21  C   UNL     1      44.063 -18.475   4.390  1.00  0.00     0.235 C 
ENDBRANCH  15  16
ENDBRANCH  14  15
ENDBRANCH  13  14
ENDBRANCH  12  13
ENDBRANCH   8  12
ENDBRANCH   4   6
BRANCH   5  22
HETATM   22  C   UNL     1      43.687 -10.729  11.284  1.00  0.00     0.256 C 
HETATM   23  N   UNL     1      42.851 -10.872  12.350  1.00  0.00    -0.366 N 
HETATM   24  H   UNL     1      41.914 -10.485  12.371  1.00  0.00     0.159 HD
HETATM   25  H   UNL     1      43.181 -11.378  13.161  1.00  0.00     0.159 HD
HETATM   26  O   UNL     1      44.808 -11.228  11.323  1.00  0.00    -0.268 OA
ENDBRANCH   5  22
BRANCH   1  27
HETATM   27  O   UNL     1      41.220  -8.932  11.204  1.00  0.00    -0.328 OA
BRANCH  27  28
HETATM   28  C   UNL     1      40.976  -7.553  11.510  1.00  0.00     0.222 C 
BRANCH  28  29
HETATM   29  C   UNL     1      41.206  -7.363  12.981  1.00  0.00     0.043 A 
HETATM   30  C   UNL     1      40.146  -7.140  13.859  1.00  0.00     0.129 A 
HETATM   31  C   UNL     1      40.357  -6.966  15.225  1.00  0.00     0.062 A 
HETATM   32  F   UNL     1      38.892  -7.094  13.391  1.00  0.00    -0.205 F 
HETATM   33  C   UNL     1      41.655  -7.017  15.726  1.00  0.00     0.016 A 
HETATM   34  C   UNL     1      42.732  -7.243  14.875  1.00  0.00     0.062 A 
HETATM   35 BR   UNL     1      41.957  -6.778  17.576  1.00  0.00    -0.051 Br
HETATM   36  C   UNL     1      42.496  -7.418  13.514  1.00  0.00     0.129 A 
HETATM   37  F   UNL     1      43.541  -7.643  12.704  1.00  0.00    -0.205 F 
ENDBRANCH  28  29
ENDBRANCH  27  28
ENDBRANCH   1  27
TORSDOF 10
ENDMDL
MODEL 5
REMARK VINA RESULT:      -7.7      2.001      3.157
REMARK  10 active torsions:
REMARK  status: ('A' for Active; 'I' for Inactive)
REMARK    1  A    between atoms: C_4  and  C_5 
REMARK    2  A    between atoms: C_5  and  O_6 
REMARK    3  A    between atoms: O_6  and  C_7 
REMARK    4  A    between atoms: C_10  and  N_11 
REMARK       I    between atoms: N_11  and  C_12 
REMARK       I    between atoms: C_12  and  N_13 
REMARK    5  A    between atoms: N_13  and  C_14 
REMARK    6  A    between atoms: C_14  and  C_15 
REMARK    7  A    between atoms: C_15  and  C_16 
REMARK    8  A    between atoms: C_16  and  C_17 
REMARK    9  A    between atoms: C_17  and  N_18 
REMARK   10  A    between atoms: C_25  and  C_26 
REMARK       I    between atoms: C_26  and  N_27 
ROOT
HETATM    1  C   UNL     1      42.503 -13.787   6.460  1.00  0.00     0.191 C 
HETATM    2  N   UNL     1      43.717 -13.318   6.722  1.00  0.00    -0.184 NA
HETATM    3  S   UNL     1      43.679 -11.681   6.513  1.00  0.00     0.033 SA
HETATM    4  C   UNL     1      41.994 -11.580   6.212  1.00  0.00     0.117 C 
HETATM    5  C   UNL     1      41.477 -12.860   6.067  1.00  0.00     0.120 C 
ENDROOT
BRANCH   4   6
HETATM    6  N   UNL     1      41.549 -10.273   6.136  1.00  0.00    -0.301 N 
HETATM    7  C   UNL     1      40.736  -9.630   7.026  1.00  0.00     0.321 C 
HETATM    8  N   UNL     1      40.068 -10.375   7.942  1.00  0.00    -0.343 N 
HETATM    9  O   UNL     1      40.726  -8.398   7.038  1.00  0.00    -0.247 OA
HETATM   10  H   UNL     1      39.624 -11.176   7.497  1.00  0.00     0.164 HD
HETATM   11  H   UNL     1      42.190  -9.621   5.700  1.00  0.00     0.171 HD
BRANCH   8  12
HETATM   12  C   UNL     1      39.257  -9.801   8.994  1.00  0.00     0.124 C 
BRANCH  12  13
HETATM   13  C   UNL     1      40.034  -9.551  10.291  1.00  0.00     0.021 C 
BRANCH  13  14
HETATM   14  C   UNL     1      40.579  -8.132  10.494  1.00  0.00     0.029 C 
BRANCH  14  15
HETATM   15  C   UNL     1      42.079  -8.113  10.775  1.00  0.00     0.235 C 
BRANCH  15  16
HETATM   16  N   UNL     1      42.851  -8.684   9.612  1.00  0.00    -0.071 N 
HETATM   17  H   UNL     1      42.172  -8.988   8.904  1.00  0.00     0.279 HD
HETATM   18  C   UNL     1      43.682  -9.898   9.993  1.00  0.00     0.235 C 
HETATM   19  C   UNL     1      45.118  -9.487   9.733  1.00  0.00     0.029 C 
HETATM   20  C   UNL     1      44.997  -8.532   8.565  1.00  0.00     0.029 C 
HETATM   21  C   UNL     1      43.796  -7.694   8.948  1.00  0.00     0.235 C 
ENDBRANCH  15  16
ENDBRANCH  14  15
ENDBRANCH  13  14
ENDBRANCH  12  13
ENDBRANCH   8  12
ENDBRANCH   4   6
BRANCH   5  22
HETATM   22  C   UNL     1      40.153 -13.203   5.576  1.00  0.00     0.256 C 
HETATM   23  N   UNL     1      40.073 -14.194   4.644  1.00  0.00    -0.366 N 
HETATM   24  H   UNL     1      40.885 -14.692   4.299  1.00  0.00     0.159 HD
HETATM   25  H   UNL     1      39.164 -14.436   4.270  1.00  0.00     0.159 HD
HETATM   26  O   UNL     1      39.128 -12.642   5.953  1.00  0.00    -0.268 OA
ENDBRANCH   5  22
BRANCH   1  27
HETATM   27  O   UNL     1      42.328 -15.129   6.515  1.00  0.00    -0.328 OA
BRANCH  27  28
HETATM   28  C   UNL     1      43.567 -15.841   6.626  1.00  0.00     0.222 C 
BRANCH  28  29
HETATM   29  C   UNL     1      43.583 -16.899   5.562  1.00  0.00     0.043 A 
HETATM   30  C   UNL     1      43.594 -18.255   5.884  1.00  0.00     0.129 A 
HETATM   31  C   UNL     1      43.606 -19.238   4.898  1.00  0.00     0.062 A 
HETATM   32  F   UNL     1      43.586 -18.634   7.169  1.00  0.00    -0.205 F 
HETATM   33  C   UNL     1      43.608 -18.859   3.558  1.00  0.00     0.016 A 
HETATM   34  C   UNL     1      43.593 -17.513   3.205  1.00  0.00     0.062 A 
HETATM   35 BR   UNL     1      43.630 -20.181   2.208  1.00  0.00    -0.051 Br
HETATM   36  C   UNL     1      43.576 -16.549   4.209  1.00  0.00     0.129 A 
HETATM   37  F   UNL     1      43.555 -15.255   3.858  1.00  0.00    -0.205 F 
ENDBRANCH  28  29
ENDBRANCH  27  28
ENDBRANCH   1  27
TORSDOF 10
ENDMDL
MODEL 6
REMARK VINA RESULT:      -7.7      5.103      8.563
REMARK  10 active torsions:
REMARK  status: ('A' for Active; 'I' for Inactive)
REMARK    1  A    between atoms: C_4  and  C_5 
REMARK    2  A    between atoms: C_5  and  O_6 
REMARK    3  A    between atoms: O_6  and  C_7 
REMARK    4  A    between atoms: C_10  and  N_11 
REMARK       I    between atoms: N_11  and  C_12 
REMARK       I    between atoms: C_12  and  N_13 
REMARK    5  A    between atoms: N_13  and  C_14 
REMARK    6  A    between atoms: C_14  and  C_15 
REMARK    7  A    between atoms: C_15  and  C_16 
REMARK    8  A    between atoms: C_16  and  C_17 
REMARK    9  A    between atoms: C_17  and  N_18 
REMARK   10  A    between atoms: C_25  and  C_26 
REMARK       I    between atoms: C_26  and  N_27 
ROOT
HETATM    1  C   UNL     1      40.904 -13.276   3.658  1.00  0.00     0.191 C 
HETATM    2  N   UNL     1      41.157 -11.976   3.757  1.00  0.00    -0.184 NA
HETATM    3  S   UNL     1      40.356 -11.215   2.530  1.00  0.00     0.033 SA
HETATM    4  C   UNL     1      39.549 -12.613   1.951  1.00  0.00     0.117 C 
HETATM    5  C   UNL     1      40.062 -13.735   2.588  1.00  0.00     0.120 C 
ENDROOT
BRANCH   4   6
HETATM    6  N   UNL     1      38.623 -12.319   0.968  1.00  0.00    -0.301 N 
HETATM    7  C   UNL     1      38.742 -12.561  -0.371  1.00  0.00     0.321 C 
HETATM    8  N   UNL     1      39.967 -12.876  -0.862  1.00  0.00    -0.343 N 
HETATM    9  O   UNL     1      37.723 -12.595  -1.062  1.00  0.00    -0.247 OA
HETATM   10  H   UNL     1      40.672 -12.234  -0.504  1.00  0.00     0.164 HD
HETATM   11  H   UNL     1      37.653 -12.369   1.257  1.00  0.00     0.171 HD
BRANCH   8  12
HETATM   12  C   UNL     1      40.200 -13.248  -2.240  1.00  0.00     0.124 C 
BRANCH  12  13
HETATM   13  C   UNL     1      41.038 -12.223  -3.013  1.00  0.00     0.021 C 
BRANCH  13  14
HETATM   14  C   UNL     1      41.226 -10.856  -2.343  1.00  0.00     0.029 C 
BRANCH  14  15
HETATM   15  C   UNL     1      40.915  -9.693  -3.282  1.00  0.00     0.235 C 
BRANCH  15  16
HETATM   16  N   UNL     1      41.291  -8.377  -2.649  1.00  0.00    -0.071 N 
HETATM   17  H   UNL     1      40.488  -8.053  -2.097  1.00  0.00     0.279 HD
HETATM   18  C   UNL     1      41.602  -7.296  -3.671  1.00  0.00     0.235 C 
HETATM   19  C   UNL     1      43.054  -6.935  -3.429  1.00  0.00     0.029 C 
HETATM   20  C   UNL     1      43.220  -7.151  -1.940  1.00  0.00     0.029 C 
HETATM   21  C   UNL     1      42.488  -8.457  -1.714  1.00  0.00     0.235 C 
ENDBRANCH  15  16
ENDBRANCH  14  15
ENDBRANCH  13  14
ENDBRANCH  12  13
ENDBRANCH   8  12
ENDBRANCH   4   6
BRANCH   5  22
HETATM   22  C   UNL     1      39.821 -15.120   2.220  1.00  0.00     0.256 C 
HETATM   23  N   UNL     1      39.583 -16.000   3.232  1.00  0.00    -0.366 N 
HETATM   24  H   UNL     1      39.559 -15.724   4.207  1.00  0.00     0.159 HD
HETATM   25  H   UNL     1      39.434 -16.974   3.002  1.00  0.00     0.159 HD
HETATM   26  O   UNL     1      39.832 -15.521   1.059  1.00  0.00    -0.268 OA
ENDBRANCH   5  22
BRANCH   1  27
HETATM   27  O   UNL     1      41.518 -14.098   4.543  1.00  0.00    -0.328 OA
BRANCH  27  28
HETATM   28  C   UNL     1      42.911 -14.273   4.256  1.00  0.00     0.222 C 
BRANCH  28  29
HETATM   29  C   UNL     1      43.106 -15.682   3.776  1.00  0.00     0.043 A 
HETATM   30  C   UNL     1      43.176 -15.983   2.417  1.00  0.00     0.129 A 
HETATM   31  C   UNL     1      43.360 -17.289   1.970  1.00  0.00     0.062 A 
HETATM   32  F   UNL     1      43.071 -15.003   1.511  1.00  0.00    -0.205 F 
HETATM   33  C   UNL     1      43.478 -18.319   2.901  1.00  0.00     0.016 A 
HETATM   34  C   UNL     1      43.417 -18.048   4.264  1.00  0.00     0.062 A 
HETATM   35 BR   UNL     1      43.723 -20.096   2.309  1.00  0.00    -0.051 Br
HETATM   36  C   UNL     1      43.237 -16.734   4.687  1.00  0.00     0.129 A 
HETATM   37  F   UNL     1      43.187 -16.482   6.003  1.00  0.00    -0.205 F 
ENDBRANCH  28  29
ENDBRANCH  27  28
ENDBRANCH   1  27
TORSDOF 10
ENDMDL
MODEL 7
REMARK VINA RESULT:      -7.5      2.478      3.841
REMARK  10 active torsions:
REMARK  status: ('A' for Active; 'I' for Inactive)
REMARK    1  A    between atoms: C_4  and  C_5 
REMARK    2  A    between atoms: C_5  and  O_6 
REMARK    3  A    between atoms: O_6  and  C_7 
REMARK    4  A    between atoms: C_10  and  N_11 
REMARK       I    between atoms: N_11  and  C_12 
REMARK       I    between atoms: C_12  and  N_13 
REMARK    5  A    between atoms: N_13  and  C_14 
REMARK    6  A    between atoms: C_14  and  C_15 
REMARK    7  A    between atoms: C_15  and  C_16 
REMARK    8  A    between atoms: C_16  and  C_17 
REMARK    9  A    between atoms: C_17  and  N_18 
REMARK   10  A    between atoms: C_25  and  C_26 
REMARK       I    between atoms: C_26  and  N_27 
ROOT
HETATM    1  C   UNL     1      43.064 -12.110   6.091  1.00  0.00     0.191 C 
HETATM    2  N   UNL     1      41.752 -11.949   5.960  1.00  0.00    -0.184 NA
HETATM    3  S   UNL     1      41.354 -10.503   6.651  1.00  0.00     0.033 SA
HETATM    4  C   UNL     1      42.963 -10.023   6.998  1.00  0.00     0.117 C 
HETATM    5  C   UNL     1      43.820 -11.089   6.761  1.00  0.00     0.120 C 
ENDROOT
BRANCH   4   6
HETATM    6  N   UNL     1      43.037  -8.725   7.470  1.00  0.00    -0.301 N 
HETATM    7  C   UNL     1      43.482  -8.322   8.696  1.00  0.00     0.321 C 
HETATM    8  N   UNL     1      43.628  -9.258   9.667  1.00  0.00    -0.343 N 
HETATM    9  O   UNL     1      43.840  -7.153   8.843  1.00  0.00    -0.247 OA
HETATM   10  H   UNL     1      42.806  -9.857   9.714  1.00  0.00     0.164 HD
HETATM   11  H   UNL     1      43.228  -8.020   6.769  1.00  0.00     0.171 HD
BRANCH   8  12
HETATM   12  C   UNL     1      44.183  -8.969  10.972  1.00  0.00     0.124 C 
BRANCH  12  13
HETATM   13  C   UNL     1      43.133  -8.956  12.089  1.00  0.00     0.021 C 
BRANCH  13  14
HETATM   14  C   UNL     1      42.935  -7.622  12.820  1.00  0.00     0.029 C 
BRANCH  14  15
HETATM   15  C   UNL     1      42.675  -7.801  14.313  1.00  0.00     0.235 C 
BRANCH  15  16
HETATM   16  N   UNL     1      42.546  -6.465  15.000  1.00  0.00    -0.071 N 
HETATM   17  H   UNL     1      43.480  -6.038  15.037  1.00  0.00     0.279 HD
HETATM   18  C   UNL     1      42.046  -6.581  16.431  1.00  0.00     0.235 C 
HETATM   19  C   UNL     1      40.725  -5.838  16.446  1.00  0.00     0.029 C 
HETATM   20  C   UNL     1      40.931  -4.748  15.415  1.00  0.00     0.029 C 
HETATM   21  C   UNL     1      41.622  -5.488  14.289  1.00  0.00     0.235 C 
ENDBRANCH  15  16
ENDBRANCH  14  15
ENDBRANCH  13  14
ENDBRANCH  12  13
ENDBRANCH   8  12
ENDBRANCH   4   6
BRANCH   5  22
HETATM   22  C   UNL     1      45.218 -11.173   7.149  1.00  0.00     0.256 C 
HETATM   23  N   UNL     1      46.135 -11.298   6.150  1.00  0.00    -0.366 N 
HETATM   24  H   UNL     1      45.880 -11.323   5.169  1.00  0.00     0.159 HD
HETATM   25  H   UNL     1      47.113 -11.381   6.397  1.00  0.00     0.159 HD
HETATM   26  O   UNL     1      45.596 -11.145   8.317  1.00  0.00    -0.268 OA
ENDBRANCH   5  22
BRANCH   1  27
HETATM   27  O   UNL     1      43.595 -13.271   5.639  1.00  0.00    -0.328 OA
BRANCH  27  28
HETATM   28  C   UNL     1      43.103 -14.415   6.347  1.00  0.00     0.222 C 
BRANCH  28  29
HETATM   29  C   UNL     1      43.222 -15.603   5.437  1.00  0.00     0.043 A 
HETATM   30  C   UNL     1      42.379 -15.767   4.341  1.00  0.00     0.129 A 
HETATM   31  C   UNL     1      42.489 -16.867   3.494  1.00  0.00     0.062 A 
HETATM   32  F   UNL     1      41.438 -14.849   4.081  1.00  0.00    -0.205 F 
HETATM   33  C   UNL     1      43.467 -17.827   3.747  1.00  0.00     0.016 A 
HETATM   34  C   UNL     1      44.328 -17.688   4.832  1.00  0.00     0.062 A 
HETATM   35 BR   UNL     1      43.627 -19.327   2.610  1.00  0.00    -0.051 Br
HETATM   36  C   UNL     1      44.199 -16.577   5.661  1.00  0.00     0.129 A 
HETATM   37  F   UNL     1      45.038 -16.450   6.700  1.00  0.00    -0.205 F 
ENDBRANCH  28  29
ENDBRANCH  27  28
ENDBRANCH   1  27
TORSDOF 10
ENDMDL
MODEL 8
REMARK VINA RESULT:      -7.4      4.763      8.457
REMARK  10 active torsions:
REMARK  status: ('A' for Active; 'I' for Inactive)
REMARK    1  A    between atoms: C_4  and  C_5 
REMARK    2  A    between atoms: C_5  and  O_6 
REMARK    3  A    between atoms: O_6  and  C_7 
REMARK    4  A    between atoms: C_10  and  N_11 
REMARK       I    between atoms: N_11  and  C_12 
REMARK       I    between atoms: C_12  and  N_13 
REMARK    5  A    between atoms: N_13  and  C_14 
REMARK    6  A    between atoms: C_14  and  C_15 
REMARK    7  A    between atoms: C_15  and  C_16 
REMARK    8  A    between atoms: C_16  and  C_17 
REMARK    9  A    between atoms: C_17  and  N_18 
REMARK   10  A    between atoms: C_25  and  C_26 
REMARK       I    between atoms: C_26  and  N_27 
ROOT
HETATM    1  C   UNL     1      41.746 -13.256   4.591  1.00  0.00     0.191 C 
HETATM    2  N   UNL     1      40.773 -13.564   5.440  1.00  0.00    -0.184 NA
HETATM    3  S   UNL     1      39.722 -12.291   5.483  1.00  0.00     0.033 SA
HETATM    4  C   UNL     1      40.495 -11.382   4.252  1.00  0.00     0.117 C 
HETATM    5  C   UNL     1      41.709 -11.977   3.937  1.00  0.00     0.120 C 
ENDROOT
BRANCH   4   6
HETATM    6  N   UNL     1      39.772 -10.260   3.891  1.00  0.00    -0.301 N 
HETATM    7  C   UNL     1      39.232  -9.991   2.667  1.00  0.00     0.321 C 
HETATM    8  N   UNL     1      39.636 -10.734   1.606  1.00  0.00    -0.343 N 
HETATM    9  O   UNL     1      38.321  -9.165   2.588  1.00  0.00    -0.247 OA
HETATM   10  H   UNL     1      40.651 -10.813   1.590  1.00  0.00     0.164 HD
HETATM   11  H   UNL     1      39.212  -9.850   4.629  1.00  0.00     0.171 HD
BRANCH   8  12
HETATM   12  C   UNL     1      39.065 -10.608   0.282  1.00  0.00     0.124 C 
BRANCH  12  13
HETATM   13  C   UNL     1      37.768 -11.404   0.103  1.00  0.00     0.021 C 
BRANCH  13  14
HETATM   14  C   UNL     1      37.192 -11.453  -1.318  1.00  0.00     0.029 C 
BRANCH  14  15
HETATM   15  C   UNL     1      38.212 -11.054  -2.380  1.00  0.00     0.235 C 
BRANCH  15  16
HETATM   16  N   UNL     1      38.768 -12.272  -3.076  1.00  0.00    -0.071 N 
HETATM   17  H   UNL     1      38.710 -12.109  -4.088  1.00  0.00     0.279 HD
HETATM   18  C   UNL     1      37.978 -13.536  -2.776  1.00  0.00     0.235 C 
HETATM   19  C   UNL     1      38.960 -14.453  -2.074  1.00  0.00     0.029 C 
HETATM   20  C   UNL     1      40.288 -14.081  -2.701  1.00  0.00     0.029 C 
HETATM   21  C   UNL     1      40.221 -12.569  -2.740  1.00  0.00     0.235 C 
ENDBRANCH  15  16
ENDBRANCH  14  15
ENDBRANCH  13  14
ENDBRANCH  12  13
ENDBRANCH   8  12
ENDBRANCH   4   6
BRANCH   5  22
HETATM   22  C   UNL     1      42.765 -11.400   3.122  1.00  0.00     0.256 C 
HETATM   23  N   UNL     1      44.049 -11.607   3.529  1.00  0.00    -0.366 N 
HETATM   24  H   UNL     1      44.284 -12.145   4.355  1.00  0.00     0.159 HD
HETATM   25  H   UNL     1      44.800 -11.196   2.990  1.00  0.00     0.159 HD
HETATM   26  O   UNL     1      42.550 -10.741   2.108  1.00  0.00    -0.268 OA
ENDBRANCH   5  22
BRANCH   1  27
HETATM   27  O   UNL     1      42.755 -14.149   4.450  1.00  0.00    -0.328 OA
BRANCH  27  28
HETATM   28  C   UNL     1      42.584 -15.307   5.276  1.00  0.00     0.222 C 
BRANCH  28  29
HETATM   29  C   UNL     1      42.888 -16.515   4.439  1.00  0.00     0.043 A 
HETATM   30  C   UNL     1      42.124 -16.833   3.317  1.00  0.00     0.129 A 
HETATM   31  C   UNL     1      42.405 -17.952   2.537  1.00  0.00     0.062 A 
HETATM   32  F   UNL     1      41.094 -16.050   2.968  1.00  0.00    -0.205 F 
HETATM   33  C   UNL     1      43.476 -18.773   2.885  1.00  0.00     0.016 A 
HETATM   34  C   UNL     1      44.260 -18.478   3.996  1.00  0.00     0.062 A 
HETATM   35 BR   UNL     1      43.868 -20.297   1.839  1.00  0.00    -0.051 Br
HETATM   36  C   UNL     1      43.961 -17.352   4.757  1.00  0.00     0.129 A 
HETATM   37  F   UNL     1      44.727 -17.073   5.822  1.00  0.00    -0.205 F 
ENDBRANCH  28  29
ENDBRANCH  27  28
ENDBRANCH   1  27
TORSDOF 10
ENDMDL
MODEL 9
REMARK VINA RESULT:      -7.4      1.948      2.632
REMARK  10 active torsions:
REMARK  status: ('A' for Active; 'I' for Inactive)
REMARK    1  A    between atoms: C_4  and  C_5 
REMARK    2  A    between atoms: C_5  and  O_6 
REMARK    3  A    between atoms: O_6  and  C_7 
REMARK    4  A    between atoms: C_10  and  N_11 
REMARK       I    between atoms: N_11  and  C_12 
REMARK       I    between atoms: C_12  and  N_13 
REMARK    5  A    between atoms: N_13  and  C_14 
REMARK    6  A    between atoms: C_14  and  C_15 
REMARK    7  A    between atoms: C_15  and  C_16 
REMARK    8  A    between atoms: C_16  and  C_17 
REMARK    9  A    between atoms: C_17  and  N_18 
REMARK   10  A    between atoms: C_25  and  C_26 
REMARK       I    between atoms: C_26  and  N_27 
ROOT
HETATM    1  C   UNL     1      42.508 -13.357   6.033  1.00  0.00     0.191 C 
HETATM    2  N   UNL     1      43.737 -12.855   6.051  1.00  0.00    -0.184 NA
HETATM    3  S   UNL     1      43.607 -11.209   6.045  1.00  0.00     0.033 SA
HETATM    4  C   UNL     1      41.898 -11.166   6.166  1.00  0.00     0.117 C 
HETATM    5  C   UNL     1      41.394 -12.449   6.003  1.00  0.00     0.120 C 
ENDROOT
BRANCH   4   6
HETATM    6  N   UNL     1      41.413  -9.883   6.347  1.00  0.00    -0.301 N 
HETATM    7  C   UNL     1      41.280  -9.217   7.531  1.00  0.00     0.321 C 
HETATM    8  N   UNL     1      41.369  -9.927   8.684  1.00  0.00    -0.343 N 
HETATM    9  O   UNL     1      41.196  -7.988   7.515  1.00  0.00    -0.247 OA
HETATM   10  H   UNL     1      40.801 -10.770   8.631  1.00  0.00     0.164 HD
HETATM   11  H   UNL     1      41.604  -9.237   5.591  1.00  0.00     0.171 HD
BRANCH   8  12
HETATM   12  C   UNL     1      41.342  -9.319   9.997  1.00  0.00     0.124 C 
BRANCH  12  13
HETATM   13  C   UNL     1      42.607  -9.592  10.819  1.00  0.00     0.021 C 
BRANCH  13  14
HETATM   14  C   UNL     1      43.371  -8.361  11.319  1.00  0.00     0.029 C 
BRANCH  14  15
HETATM   15  C   UNL     1      42.489  -7.119  11.417  1.00  0.00     0.235 C 
BRANCH  15  16
HETATM   16  N   UNL     1      42.186  -6.788  12.857  1.00  0.00    -0.071 N 
HETATM   17  H   UNL     1      42.445  -5.806  13.015  1.00  0.00     0.279 HD
HETATM   18  C   UNL     1      42.987  -7.629  13.839  1.00  0.00     0.235 C 
HETATM   19  C   UNL     1      41.949  -8.414  14.617  1.00  0.00     0.029 C 
HETATM   20  C   UNL     1      40.762  -7.476  14.653  1.00  0.00     0.029 C 
HETATM   21  C   UNL     1      40.722  -6.943  13.236  1.00  0.00     0.235 C 
ENDBRANCH  15  16
ENDBRANCH  14  15
ENDBRANCH  13  14
ENDBRANCH  12  13
ENDBRANCH   8  12
ENDBRANCH   4   6
BRANCH   5  22
HETATM   22  C   UNL     1      40.000 -12.809   5.804  1.00  0.00     0.256 C 
HETATM   23  N   UNL     1      39.738 -13.836   4.949  1.00  0.00    -0.366 N 
HETATM   24  H   UNL     1      40.467 -14.351   4.467  1.00  0.00     0.159 HD
HETATM   25  H   UNL     1      38.774 -14.091   4.777  1.00  0.00     0.159 HD
HETATM   26  O   UNL     1      39.070 -12.230   6.357  1.00  0.00    -0.268 OA
ENDBRANCH   5  22
BRANCH   1  27
HETATM   27  O   UNL     1      42.387 -14.705   5.975  1.00  0.00    -0.328 OA
BRANCH  27  28
HETATM   28  C   UNL     1      43.652 -15.374   6.041  1.00  0.00     0.222 C 
BRANCH  28  29
HETATM   29  C   UNL     1      43.619 -16.513   5.063  1.00  0.00     0.043 A 
HETATM   30  C   UNL     1      43.454 -16.293   3.697  1.00  0.00     0.129 A 
HETATM   31  C   UNL     1      43.426 -17.348   2.788  1.00  0.00     0.062 A 
HETATM   32  F   UNL     1      43.324 -15.043   3.234  1.00  0.00    -0.205 F 
HETATM   33  C   UNL     1      43.567 -18.653   3.254  1.00  0.00     0.016 A 
HETATM   34  C   UNL     1      43.738 -18.903   4.612  1.00  0.00     0.062 A 
HETATM   35 BR   UNL     1      43.526 -20.095   2.034  1.00  0.00    -0.051 Br
HETATM   36  C   UNL     1      43.767 -17.832   5.500  1.00  0.00     0.129 A 
HETATM   37  F   UNL     1      43.939 -18.083   6.806  1.00  0.00    -0.205 F 
ENDBRANCH  28  29
ENDBRANCH  27  28
ENDBRANCH   1  27
TORSDOF 10
ENDMDL
MODEL 10
REMARK VINA RESULT:      -7.3      4.456      9.991
REMARK  10 active torsions:
REMARK  status: ('A' for Active; 'I' for Inactive)
REMARK    1  A    between atoms: C_4  and  C_5 
REMARK    2  A    between atoms: C_5  and  O_6 
REMARK    3  A    between atoms: O_6  and  C_7 
REMARK    4  A    between atoms: C_10  and  N_11 
REMARK       I    between atoms: N_11  and  C_12 
REMARK       I    between atoms: C_12  and  N_13 
REMARK    5  A    between atoms: N_13  and  C_14 
REMARK    6  A    between atoms: C_14  and  C_15 
REMARK    7  A    between atoms: C_15  and  C_16 
REMARK    8  A    between atoms: C_16  and  C_17 
REMARK    9  A    between atoms: C_17  and  N_18 
REMARK   10  A    between atoms: C_25  and  C_26 
REMARK       I    between atoms: C_26  and  N_27 
ROOT
HETATM    1  C   UNL     1      43.593 -10.158   8.395  1.00  0.00     0.191 C 
HETATM    2  N   UNL     1      44.790 -10.711   8.556  1.00  0.00    -0.184 NA
HETATM    3  S   UNL     1      45.136 -11.563   7.185  1.00  0.00     0.033 SA
HETATM    4  C   UNL     1      43.744 -11.072   6.314  1.00  0.00     0.117 C 
HETATM    5  C   UNL     1      42.884 -10.395   7.168  1.00  0.00     0.120 C 
ENDROOT
BRANCH   4   6
HETATM    6  N   UNL     1      43.769 -11.492   4.997  1.00  0.00    -0.301 N 
HETATM    7  C   UNL     1      43.104 -12.557   4.462  1.00  0.00     0.321 C 
HETATM    8  N   UNL     1      42.566 -13.471   5.308  1.00  0.00    -0.343 N 
HETATM    9  O   UNL     1      42.918 -12.592   3.245  1.00  0.00    -0.247 OA
HETATM   10  H   UNL     1      43.239 -13.735   6.025  1.00  0.00     0.164 HD
HETATM   11  H   UNL     1      43.880 -10.756   4.309  1.00  0.00     0.171 HD
BRANCH   8  12
HETATM   12  C   UNL     1      41.757 -14.586   4.866  1.00  0.00     0.124 C 
BRANCH  12  13
HETATM   13  C   UNL     1      42.204 -15.930   5.449  1.00  0.00     0.021 C 
BRANCH  13  14
HETATM   14  C   UNL     1      43.129 -16.780   4.568  1.00  0.00     0.029 C 
BRANCH  14  15
HETATM   15  C   UNL     1      43.704 -17.985   5.308  1.00  0.00     0.235 C 
BRANCH  15  16
HETATM   16  N   UNL     1      44.381 -18.931   4.348  1.00  0.00    -0.071 N 
HETATM   17  H   UNL     1      45.396 -18.818   4.459  1.00  0.00     0.279 HD
HETATM   18  C   UNL     1      44.050 -18.636   2.894  1.00  0.00     0.235 C 
HETATM   19  C   UNL     1      43.341 -19.878   2.394  1.00  0.00     0.029 C 
HETATM   20  C   UNL     1      43.986 -20.990   3.194  1.00  0.00     0.029 C 
HETATM   21  C   UNL     1      44.053 -20.396   4.586  1.00  0.00     0.235 C 
ENDBRANCH  15  16
ENDBRANCH  14  15
ENDBRANCH  13  14
ENDBRANCH  12  13
ENDBRANCH   8  12
ENDBRANCH   4   6
BRANCH   5  22
HETATM   22  C   UNL     1      41.507 -10.024   6.888  1.00  0.00     0.256 C 
HETATM   23  N   UNL     1      40.631 -10.053   7.931  1.00  0.00    -0.366 N 
HETATM   24  H   UNL     1      40.904 -10.308   8.873  1.00  0.00     0.159 HD
HETATM   25  H   UNL     1      39.662  -9.820   7.756  1.00  0.00     0.159 HD
HETATM   26  O   UNL     1      41.110  -9.702   5.772  1.00  0.00    -0.268 OA
ENDBRANCH   5  22
BRANCH   1  27
HETATM   27  O   UNL     1      43.088  -9.455   9.438  1.00  0.00    -0.328 OA
BRANCH  27  28
HETATM   28  C   UNL     1      42.995 -10.237  10.635  1.00  0.00     0.222 C 
BRANCH  28  29
HETATM   29  C   UNL     1      42.329  -9.392  11.682  1.00  0.00     0.043 A 
HETATM   30  C   UNL     1      40.957  -9.469  11.914  1.00  0.00     0.129 A 
HETATM   31  C   UNL     1      40.338  -8.688  12.887  1.00  0.00     0.062 A 
HETATM   32  F   UNL     1      40.206 -10.313  11.194  1.00  0.00    -0.205 F 
HETATM   33  C   UNL     1      41.107  -7.810  13.647  1.00  0.00     0.016 A 
HETATM   34  C   UNL     1      42.480  -7.716  13.442  1.00  0.00     0.062 A 
HETATM   35 BR   UNL     1      40.282  -6.741  14.968  1.00  0.00    -0.051 Br
HETATM   36  C   UNL     1      43.076  -8.510  12.466  1.00  0.00     0.129 A 
HETATM   37  F   UNL     1      44.402  -8.416  12.282  1.00  0.00    -0.205 F 
ENDBRANCH  28  29
ENDBRANCH  27  28
ENDBRANCH   1  27
TORSDOF 10
ENDMDL
