MODEL 1
REMARK VINA RESULT:      -8.3      0.000      0.000
REMARK  9 active torsions:
REMARK  status: ('A' for Active; 'I' for Inactive)
REMARK    1  A    between atoms: O_2  and  C_3 
REMARK    2  A    between atoms: C_6  and  C_7 
REMARK    3  A    between atoms: C_13  and  C_14 
REMARK       I    between atoms: C_14  and  N_15 
REMARK    4  A    between atoms: N_15  and  N_16 
REMARK    5  A    between atoms: N_16  and  C_17 
REMARK    6  A    between atoms: C_17  and  N_18 
REMARK    7  A    between atoms: N_18  and  C_19 
REMARK    8  A    between atoms: C_19  and  C_20 
REMARK    9  A    between atoms: C_27  and  C_28 
ROOT
HETATM    1  C   UNL     1      41.408 -15.311   2.709  1.00  0.00     0.118 C 
HETATM    2  N   UNL     1      42.218 -14.124   2.983  1.00  0.00    -0.365 N 
HETATM    3  C   UNL     1      41.647 -12.915   2.736  1.00  0.00     0.138 A 
HETATM    4  N   UNL     1      40.630 -12.813   1.813  1.00  0.00    -0.240 N 
HETATM    5  N   UNL     1      40.050 -11.604   1.787  1.00  0.00    -0.181 NA
HETATM    6  C   UNL     1      40.819 -10.881   2.604  1.00  0.00     0.160 A 
HETATM    7  C   UNL     1      41.835 -11.642   3.241  1.00  0.00     0.098 A 
HETATM    8  C   UNL     1      40.066 -13.930   1.073  1.00  0.00     0.221 C 
HETATM    9  C   UNL     1      40.905 -15.209   1.262  1.00  0.00     0.066 C 
HETATM   10  H   UNL     1      42.861 -14.212   3.775  1.00  0.00     0.161 HD
ENDROOT
BRANCH   7  11
HETATM   11  C   UNL     1      42.830 -11.185   4.195  1.00  0.00     0.275 C 
HETATM   12  N   UNL     1      42.311 -10.896   5.447  1.00  0.00    -0.263 N 
HETATM   13  H   UNL     1      41.426 -11.293   5.751  1.00  0.00     0.190 HD
HETATM   14  O   UNL     1      44.020 -11.047   3.925  1.00  0.00    -0.266 OA
BRANCH  12  15
HETATM   15  N   UNL     1      43.160 -10.434   6.466  1.00  0.00    -0.274 N 
HETATM   16  H   UNL     1      43.500  -9.482   6.324  1.00  0.00     0.189 HD
BRANCH  15  17
HETATM   17  C   UNL     1      44.033 -11.295   7.088  1.00  0.00     0.186 C 
HETATM   18  S   UNL     1      45.673 -11.042   7.285  1.00  0.00    -0.040 SA
BRANCH  17  19
HETATM   19  N   UNL     1      43.495 -12.475   7.512  1.00  0.00    -0.360 N 
HETATM   20  H   UNL     1      43.300 -12.514   8.505  1.00  0.00     0.162 HD
BRANCH  19  21
HETATM   21  C   UNL     1      43.655 -13.762   6.852  1.00  0.00     0.187 C 
BRANCH  21  22
HETATM   22  C   UNL     1      42.348 -14.439   6.706  1.00  0.00     0.070 A 
HETATM   23  O   UNL     1      41.360 -13.737   6.078  1.00  0.00    -0.325 OA
HETATM   24  C   UNL     1      40.251 -14.520   6.087  1.00  0.00     0.142 A 
HETATM   25  C   UNL     1      40.508 -15.713   6.719  1.00  0.00     0.027 A 
HETATM   26  C   UNL     1      41.863 -15.662   7.123  1.00  0.00     0.036 A 
ENDBRANCH  21  22
ENDBRANCH  19  21
ENDBRANCH  17  19
ENDBRANCH  15  17
ENDBRANCH  12  15
ENDBRANCH   7  11
BRANCH   1  27
HETATM   27  C   UNL     1      42.180 -16.585   2.988  1.00  0.00    -0.035 A 
HETATM   28  C   UNL     1      42.118 -17.642   2.067  1.00  0.00     0.012 A 
HETATM   29  C   UNL     1      42.889 -18.793   2.245  1.00  0.00     0.037 A 
HETATM   30  C   UNL     1      43.742 -18.911   3.341  1.00  0.00     0.068 A 
HETATM   31  C   UNL     1      43.768 -17.897   4.296  1.00  0.00     0.037 A 
HETATM   32  C   UNL     1      42.985 -16.746   4.125  1.00  0.00     0.012 A 
BRANCH  30  33
HETATM   33  O   UNL     1      44.478 -20.062   3.385  1.00  0.00    -0.356 OA
HETATM   34  C   UNL     1      44.060 -21.026   4.345  1.00  0.00     0.210 C 
ENDBRANCH  30  33
ENDBRANCH   1  27
BRANCH   8  35
HETATM   35  C   UNL     1      39.957 -13.609  -0.402  1.00  0.00     0.409 C 
HETATM   36  F   UNL     1      40.988 -12.853  -0.845  1.00  0.00    -0.169 F 
HETATM   37  F   UNL     1      39.986 -14.762  -1.123  1.00  0.00    -0.169 F 
HETATM   38  F   UNL     1      38.807 -12.989  -0.736  1.00  0.00    -0.169 F 
ENDBRANCH   8  35
TORSDOF 9
ENDMDL
MODEL 2
REMARK VINA RESULT:      -8.1      2.943      5.741
REMARK  9 active torsions:
REMARK  status: ('A' for Active; 'I' for Inactive)
REMARK    1  A    between atoms: O_2  and  C_3 
REMARK    2  A    between atoms: C_6  and  C_7 
REMARK    3  A    between atoms: C_13  and  C_14 
REMARK       I    between atoms: C_14  and  N_15 
REMARK    4  A    between atoms: N_15  and  N_16 
REMARK    5  A    between atoms: N_16  and  C_17 
REMARK    6  A    between atoms: C_17  and  N_18 
REMARK    7  A    between atoms: N_18  and  C_19 
REMARK    8  A    between atoms: C_19  and  C_20 
REMARK    9  A    between atoms: C_27  and  C_28 
ROOT
HETATM    1  C   UNL     1      42.684 -15.532   2.266  1.00  0.00     0.118 C 
HETATM    2  N   UNL     1      42.447 -15.449   3.707  1.00  0.00    -0.365 N 
HETATM    3  C   UNL     1      43.247 -16.199   4.510  1.00  0.00     0.138 A 
HETATM    4  N   UNL     1      43.848 -17.334   4.011  1.00  0.00    -0.240 N 
HETATM    5  N   UNL     1      44.734 -17.886   4.854  1.00  0.00    -0.181 NA
HETATM    6  C   UNL     1      44.577 -17.171   5.969  1.00  0.00     0.160 A 
HETATM    7  C   UNL     1      43.667 -16.091   5.823  1.00  0.00     0.098 A 
HETATM    8  C   UNL     1      43.726 -17.803   2.640  1.00  0.00     0.221 C 
HETATM    9  C   UNL     1      42.648 -17.015   1.871  1.00  0.00     0.066 C 
HETATM   10  H   UNL     1      42.135 -14.534   4.042  1.00  0.00     0.161 HD
ENDROOT
BRANCH   7  11
HETATM   11  C   UNL     1      43.275 -15.109   6.819  1.00  0.00     0.275 C 
HETATM   12  N   UNL     1      43.749 -13.833   6.560  1.00  0.00    -0.263 N 
HETATM   13  H   UNL     1      44.024 -13.557   5.622  1.00  0.00     0.190 HD
HETATM   14  O   UNL     1      42.601 -15.375   7.811  1.00  0.00    -0.266 OA
BRANCH  12  15
HETATM   15  N   UNL     1      43.454 -12.785   7.447  1.00  0.00    -0.274 N 
HETATM   16  H   UNL     1      42.545 -12.871   7.905  1.00  0.00     0.189 HD
BRANCH  15  17
HETATM   17  C   UNL     1      43.865 -11.502   7.170  1.00  0.00     0.186 C 
HETATM   18  S   UNL     1      45.293 -10.805   7.689  1.00  0.00    -0.040 SA
BRANCH  17  19
HETATM   19  N   UNL     1      42.980 -10.739   6.465  1.00  0.00    -0.360 N 
HETATM   20  H   UNL     1      42.201 -10.390   7.010  1.00  0.00     0.162 HD
BRANCH  19  21
HETATM   21  C   UNL     1      42.761 -10.810   5.029  1.00  0.00     0.187 C 
BRANCH  21  22
HETATM   22  C   UNL     1      41.467 -11.462   4.730  1.00  0.00     0.070 A 
HETATM   23  O   UNL     1      41.339 -12.769   5.100  1.00  0.00    -0.325 OA
HETATM   24  C   UNL     1      40.106 -13.173   4.703  1.00  0.00     0.142 A 
HETATM   25  C   UNL     1      39.440 -12.147   4.076  1.00  0.00     0.027 A 
HETATM   26  C   UNL     1      40.320 -11.039   4.090  1.00  0.00     0.036 A 
ENDBRANCH  21  22
ENDBRANCH  19  21
ENDBRANCH  17  19
ENDBRANCH  15  17
ENDBRANCH  12  15
ENDBRANCH   7  11
BRANCH   1  27
HETATM   27  C   UNL     1      41.698 -14.680   1.493  1.00  0.00    -0.035 A 
HETATM   28  C   UNL     1      41.879 -13.288   1.448  1.00  0.00     0.012 A 
HETATM   29  C   UNL     1      41.045 -12.483   0.669  1.00  0.00     0.037 A 
HETATM   30  C   UNL     1      40.018 -13.048  -0.085  1.00  0.00     0.068 A 
HETATM   31  C   UNL     1      39.787 -14.420  -0.002  1.00  0.00     0.037 A 
HETATM   32  C   UNL     1      40.615 -15.228   0.789  1.00  0.00     0.012 A 
BRANCH  30  33
HETATM   33  O   UNL     1      39.297 -12.166  -0.840  1.00  0.00    -0.356 OA
HETATM   34  C   UNL     1      38.203 -12.721  -1.563  1.00  0.00     0.210 C 
ENDBRANCH  30  33
ENDBRANCH   1  27
BRANCH   8  35
HETATM   35  C   UNL     1      43.403 -19.281   2.595  1.00  0.00     0.409 C 
HETATM   36  F   UNL     1      43.287 -19.824   3.828  1.00  0.00    -0.169 F 
HETATM   37  F   UNL     1      42.204 -19.467   1.978  1.00  0.00    -0.169 F 
HETATM   38  F   UNL     1      44.298 -20.009   1.897  1.00  0.00    -0.169 F 
ENDBRANCH   8  35
TORSDOF 9
ENDMDL
MODEL 3
REMARK VINA RESULT:      -8.0      2.270      3.376
REMARK  9 active torsions:
REMARK  status: ('A' for Active; 'I' for Inactive)
REMARK    1  A    between atoms: O_2  and  C_3 
REMARK    2  A    between atoms: C_6  and  C_7 
REMARK    3  A    between atoms: C_13  and  C_14 
REMARK       I    between atoms: C_14  and  N_15 
REMARK    4  A    between atoms: N_15  and  N_16 
REMARK    5  A    between atoms: N_16  and  C_17 
REMARK    6  A    between atoms: C_17  and  N_18 
REMARK    7  A    between atoms: N_18  and  C_19 
REMARK    8  A    between atoms: C_19  and  C_20 
REMARK    9  A    between atoms: C_27  and  C_28 
ROOT
HETATM    1  C   UNL     1      41.049 -15.729   2.919  1.00  0.00     0.118 C 
HETATM    2  N   UNL     1      41.229 -14.507   3.701  1.00  0.00    -0.365 N 
HETATM    3  C   UNL     1      40.359 -13.488   3.466  1.00  0.00     0.138 A 
HETATM    4  N   UNL     1      39.725 -13.397   2.247  1.00  0.00    -0.240 N 
HETATM    5  N   UNL     1      38.777 -12.448   2.207  1.00  0.00    -0.181 NA
HETATM    6  C   UNL     1      38.921 -11.825   3.377  1.00  0.00     0.160 A 
HETATM    7  C   UNL     1      39.890 -12.429   4.221  1.00  0.00     0.098 A 
HETATM    8  C   UNL     1      39.881 -14.346   1.157  1.00  0.00     0.221 C 
HETATM    9  C   UNL     1      41.029 -15.336   1.435  1.00  0.00     0.066 C 
HETATM   10  H   UNL     1      41.572 -14.649   4.655  1.00  0.00     0.161 HD
ENDROOT
BRANCH   7  11
HETATM   11  C   UNL     1      40.288 -12.027   5.559  1.00  0.00     0.275 C 
HETATM   12  N   UNL     1      41.519 -11.391   5.607  1.00  0.00    -0.263 N 
HETATM   13  H   UNL     1      41.912 -10.949   4.780  1.00  0.00     0.190 HD
HETATM   14  O   UNL     1      39.616 -12.241   6.564  1.00  0.00    -0.266 OA
BRANCH  12  15
HETATM   15  N   UNL     1      42.033 -10.955   6.839  1.00  0.00    -0.274 N 
HETATM   16  H   UNL     1      41.623 -10.083   7.175  1.00  0.00     0.189 HD
BRANCH  15  17
HETATM   17  C   UNL     1      43.358 -11.153   7.149  1.00  0.00     0.186 C 
HETATM   18  S   UNL     1      44.228 -12.549   6.853  1.00  0.00    -0.040 SA
BRANCH  17  19
HETATM   19  N   UNL     1      43.967 -10.127   7.812  1.00  0.00    -0.360 N 
HETATM   20  H   UNL     1      44.033  -9.267   7.282  1.00  0.00     0.162 HD
BRANCH  19  21
HETATM   21  C   UNL     1      44.927 -10.274   8.894  1.00  0.00     0.187 C 
BRANCH  21  22
HETATM   22  C   UNL     1      44.278 -10.036  10.202  1.00  0.00     0.070 A 
HETATM   23  O   UNL     1      43.914 -11.140  10.916  1.00  0.00    -0.325 OA
HETATM   24  C   UNL     1      43.310 -10.698  12.049  1.00  0.00     0.142 A 
HETATM   25  C   UNL     1      43.274  -9.324  12.071  1.00  0.00     0.027 A 
HETATM   26  C   UNL     1      43.897  -8.894  10.876  1.00  0.00     0.036 A 
ENDBRANCH  21  22
ENDBRANCH  19  21
ENDBRANCH  17  19
ENDBRANCH  15  17
ENDBRANCH  12  15
ENDBRANCH   7  11
BRANCH   1  27
HETATM   27  C   UNL     1      42.109 -16.760   3.252  1.00  0.00    -0.035 A 
HETATM   28  C   UNL     1      42.629 -16.815   4.555  1.00  0.00     0.012 A 
HETATM   29  C   UNL     1      43.538 -17.811   4.922  1.00  0.00     0.037 A 
HETATM   30  C   UNL     1      43.941 -18.776   4.000  1.00  0.00     0.068 A 
HETATM   31  C   UNL     1      43.481 -18.697   2.687  1.00  0.00     0.037 A 
HETATM   32  C   UNL     1      42.579 -17.691   2.314  1.00  0.00     0.012 A 
BRANCH  30  33
HETATM   33  O   UNL     1      44.797 -19.723   4.486  1.00  0.00    -0.356 OA
HETATM   34  C   UNL     1      44.205 -20.738   5.290  1.00  0.00     0.210 C 
ENDBRANCH  30  33
ENDBRANCH   1  27
BRANCH   8  35
HETATM   35  C   UNL     1      40.132 -13.635  -0.155  1.00  0.00     0.409 C 
HETATM   36  F   UNL     1      41.070 -12.666  -0.048  1.00  0.00    -0.169 F 
HETATM   37  F   UNL     1      40.598 -14.524  -1.074  1.00  0.00    -0.169 F 
HETATM   38  F   UNL     1      39.023 -13.089  -0.694  1.00  0.00    -0.169 F 
ENDBRANCH   8  35
TORSDOF 9
ENDMDL
MODEL 4
REMARK VINA RESULT:      -7.9      1.832      2.639
REMARK  9 active torsions:
REMARK  status: ('A' for Active; 'I' for Inactive)
REMARK    1  A    between atoms: O_2  and  C_3 
REMARK    2  A    between atoms: C_6  and  C_7 
REMARK    3  A    between atoms: C_13  and  C_14 
REMARK       I    between atoms: C_14  and  N_15 
REMARK    4  A    between atoms: N_15  and  N_16 
REMARK    5  A    between atoms: N_16  and  C_17 
REMARK    6  A    between atoms: C_17  and  N_18 
REMARK    7  A    between atoms: N_18  and  C_19 
REMARK    8  A    between atoms: C_19  and  C_20 
REMARK    9  A    between atoms: C_27  and  C_28 
ROOT
HETATM    1  C   UNL     1      41.035 -15.762   2.812  1.00  0.00     0.118 C 
HETATM    2  N   UNL     1      41.083 -14.613   3.715  1.00  0.00    -0.365 N 
HETATM    3  C   UNL     1      40.206 -13.602   3.476  1.00  0.00     0.138 A 
HETATM    4  N   UNL     1      39.705 -13.415   2.207  1.00  0.00    -0.240 N 
HETATM    5  N   UNL     1      38.733 -12.493   2.146  1.00  0.00    -0.181 NA
HETATM    6  C   UNL     1      38.726 -11.977   3.376  1.00  0.00     0.160 A 
HETATM    7  C   UNL     1      39.619 -12.631   4.266  1.00  0.00     0.098 A 
HETATM    8  C   UNL     1      40.015 -14.254   1.061  1.00  0.00     0.221 C 
HETATM    9  C   UNL     1      41.161 -15.234   1.376  1.00  0.00     0.066 C 
HETATM   10  H   UNL     1      41.325 -14.834   4.685  1.00  0.00     0.161 HD
ENDROOT
BRANCH   7  11
HETATM   11  C   UNL     1      39.854 -12.344   5.670  1.00  0.00     0.275 C 
HETATM   12  N   UNL     1      40.085 -11.003   5.934  1.00  0.00    -0.263 N 
HETATM   13  H   UNL     1      39.775 -10.282   5.289  1.00  0.00     0.190 HD
HETATM   14  O   UNL     1      39.866 -13.202   6.549  1.00  0.00    -0.266 OA
BRANCH  12  15
HETATM   15  N   UNL     1      40.337 -10.584   7.251  1.00  0.00    -0.274 N 
HETATM   16  H   UNL     1      39.515 -10.598   7.856  1.00  0.00     0.189 HD
BRANCH  15  17
HETATM   17  C   UNL     1      41.246  -9.583   7.500  1.00  0.00     0.186 C 
HETATM   18  S   UNL     1      41.244  -8.069   6.792  1.00  0.00    -0.040 SA
BRANCH  17  19
HETATM   19  N   UNL     1      42.261  -9.907   8.354  1.00  0.00    -0.360 N 
HETATM   20  H   UNL     1      42.155  -9.536   9.290  1.00  0.00     0.162 HD
BRANCH  19  21
HETATM   21  C   UNL     1      43.620 -10.243   7.961  1.00  0.00     0.187 C 
BRANCH  21  22
HETATM   22  C   UNL     1      43.620 -11.355   6.985  1.00  0.00     0.070 A 
HETATM   23  O   UNL     1      43.372 -11.028   5.684  1.00  0.00    -0.325 OA
HETATM   24  C   UNL     1      43.381 -12.187   4.976  1.00  0.00     0.142 A 
HETATM   25  C   UNL     1      43.625 -13.256   5.804  1.00  0.00     0.027 A 
HETATM   26  C   UNL     1      43.777 -12.721   7.105  1.00  0.00     0.036 A 
ENDBRANCH  21  22
ENDBRANCH  19  21
ENDBRANCH  17  19
ENDBRANCH  15  17
ENDBRANCH  12  15
ENDBRANCH   7  11
BRANCH   1  27
HETATM   27  C   UNL     1      42.090 -16.791   3.168  1.00  0.00    -0.035 A 
HETATM   28  C   UNL     1      42.638 -16.794   4.460  1.00  0.00     0.012 A 
HETATM   29  C   UNL     1      43.542 -17.784   4.851  1.00  0.00     0.037 A 
HETATM   30  C   UNL     1      43.914 -18.794   3.965  1.00  0.00     0.068 A 
HETATM   31  C   UNL     1      43.427 -18.768   2.660  1.00  0.00     0.037 A 
HETATM   32  C   UNL     1      42.528 -17.768   2.262  1.00  0.00     0.012 A 
BRANCH  30  33
HETATM   33  O   UNL     1      44.770 -19.730   4.474  1.00  0.00    -0.356 OA
HETATM   34  C   UNL     1      44.173 -20.742   5.277  1.00  0.00     0.210 C 
ENDBRANCH  30  33
ENDBRANCH   1  27
BRANCH   8  35
HETATM   35  C   UNL     1      40.380 -13.417  -0.146  1.00  0.00     0.409 C 
HETATM   36  F   UNL     1      41.365 -12.529   0.118  1.00  0.00    -0.169 F 
HETATM   37  F   UNL     1      40.846 -14.225  -1.137  1.00  0.00    -0.169 F 
HETATM   38  F   UNL     1      39.337 -12.744  -0.673  1.00  0.00    -0.169 F 
ENDBRANCH   8  35
TORSDOF 9
ENDMDL
MODEL 5
REMARK VINA RESULT:      -7.8      4.138      6.715
REMARK  9 active torsions:
REMARK  status: ('A' for Active; 'I' for Inactive)
REMARK    1  A    between atoms: O_2  and  C_3 
REMARK    2  A    between atoms: C_6  and  C_7 
REMARK    3  A    between atoms: C_13  and  C_14 
REMARK       I    between atoms: C_14  and  N_15 
REMARK    4  A    between atoms: N_15  and  N_16 
REMARK    5  A    between atoms: N_16  and  C_17 
REMARK    6  A    between atoms: C_17  and  N_18 
REMARK    7  A    between atoms: N_18  and  C_19 
REMARK    8  A    between atoms: C_19  and  C_20 
REMARK    9  A    between atoms: C_27  and  C_28 
ROOT
HETATM    1  C   UNL     1      42.938 -15.165   3.042  1.00  0.00     0.118 C 
HETATM    2  N   UNL     1      41.651 -14.967   2.377  1.00  0.00    -0.365 N 
HETATM    3  C   UNL     1      41.214 -13.686   2.243  1.00  0.00     0.138 A 
HETATM    4  N   UNL     1      41.652 -12.718   3.120  1.00  0.00    -0.240 N 
HETATM    5  N   UNL     1      41.275 -11.477   2.778  1.00  0.00    -0.181 NA
HETATM    6  C   UNL     1      40.453 -11.682   1.747  1.00  0.00     0.160 A 
HETATM    7  C   UNL     1      40.374 -13.044   1.352  1.00  0.00     0.098 A 
HETATM    8  C   UNL     1      42.602 -12.943   4.197  1.00  0.00     0.221 C 
HETATM    9  C   UNL     1      42.879 -14.445   4.398  1.00  0.00     0.066 C 
HETATM   10  H   UNL     1      41.441 -15.638   1.633  1.00  0.00     0.161 HD
ENDROOT
BRANCH   7  11
HETATM   11  C   UNL     1      39.596 -13.619   0.269  1.00  0.00     0.275 C 
HETATM   12  N   UNL     1      38.630 -12.764  -0.238  1.00  0.00    -0.263 N 
HETATM   13  H   UNL     1      38.703 -11.758  -0.111  1.00  0.00     0.190 HD
HETATM   14  O   UNL     1      39.757 -14.760  -0.155  1.00  0.00    -0.266 OA
BRANCH  12  15
HETATM   15  N   UNL     1      37.797 -13.192  -1.284  1.00  0.00    -0.274 N 
HETATM   16  H   UNL     1      37.103 -13.888  -1.004  1.00  0.00     0.189 HD
BRANCH  15  17
HETATM   17  C   UNL     1      38.292 -13.320  -2.560  1.00  0.00     0.186 C 
HETATM   18  S   UNL     1      38.320 -14.732  -3.455  1.00  0.00    -0.040 SA
BRANCH  17  19
HETATM   19  N   UNL     1      38.859 -12.197  -3.088  1.00  0.00    -0.360 N 
HETATM   20  H   UNL     1      38.349 -11.795  -3.865  1.00  0.00     0.162 HD
BRANCH  19  21
HETATM   21  C   UNL     1      40.269 -11.848  -3.014  1.00  0.00     0.187 C 
BRANCH  21  22
HETATM   22  C   UNL     1      40.477 -10.709  -2.094  1.00  0.00     0.070 A 
HETATM   23  O   UNL     1      39.360 -10.163  -1.532  1.00  0.00    -0.325 OA
HETATM   24  C   UNL     1      39.772  -9.122  -0.764  1.00  0.00     0.142 A 
HETATM   25  C   UNL     1      41.138  -8.985  -0.829  1.00  0.00     0.027 A 
HETATM   26  C   UNL     1      41.596 -10.009  -1.692  1.00  0.00     0.036 A 
ENDBRANCH  21  22
ENDBRANCH  19  21
ENDBRANCH  17  19
ENDBRANCH  15  17
ENDBRANCH  12  15
ENDBRANCH   7  11
BRANCH   1  27
HETATM   27  C   UNL     1      43.281 -16.636   3.159  1.00  0.00    -0.035 A 
HETATM   28  C   UNL     1      43.864 -17.115   4.343  1.00  0.00     0.012 A 
HETATM   29  C   UNL     1      44.107 -18.479   4.520  1.00  0.00     0.037 A 
HETATM   30  C   UNL     1      43.769 -19.394   3.525  1.00  0.00     0.068 A 
HETATM   31  C   UNL     1      43.247 -18.927   2.319  1.00  0.00     0.037 A 
HETATM   32  C   UNL     1      43.014 -17.557   2.135  1.00  0.00     0.012 A 
BRANCH  30  33
HETATM   33  O   UNL     1      44.013 -20.703   3.829  1.00  0.00    -0.356 OA
HETATM   34  C   UNL     1      43.983 -21.033   5.214  1.00  0.00     0.210 C 
ENDBRANCH  30  33
ENDBRANCH   1  27
BRANCH   8  35
HETATM   35  C   UNL     1      42.110 -12.339   5.495  1.00  0.00     0.409 C 
HETATM   36  F   UNL     1      40.775 -12.482   5.658  1.00  0.00    -0.169 F 
HETATM   37  F   UNL     1      42.697 -12.976   6.544  1.00  0.00    -0.169 F 
HETATM   38  F   UNL     1      42.414 -11.033   5.633  1.00  0.00    -0.169 F 
ENDBRANCH   8  35
TORSDOF 9
ENDMDL
MODEL 6
REMARK VINA RESULT:      -7.7      2.562      3.602
REMARK  9 active torsions:
REMARK  status: ('A' for Active; 'I' for Inactive)
REMARK    1  A    between atoms: O_2  and  C_3 
REMARK    2  A    between atoms: C_6  and  C_7 
REMARK    3  A    between atoms: C_13  and  C_14 
REMARK       I    between atoms: C_14  and  N_15 
REMARK    4  A    between atoms: N_15  and  N_16 
REMARK    5  A    between atoms: N_16  and  C_17 
REMARK    6  A    between atoms: C_17  and  N_18 
REMARK    7  A    between atoms: N_18  and  C_19 
REMARK    8  A    between atoms: C_19  and  C_20 
REMARK    9  A    between atoms: C_27  and  C_28 
ROOT
HETATM    1  C   UNL     1      42.071 -15.378   3.326  1.00  0.00     0.118 C 
HETATM    2  N   UNL     1      43.030 -14.305   3.586  1.00  0.00    -0.365 N 
HETATM    3  C   UNL     1      42.565 -13.029   3.521  1.00  0.00     0.138 A 
HETATM    4  N   UNL     1      41.457 -12.743   2.754  1.00  0.00    -0.240 N 
HETATM    5  N   UNL     1      41.011 -11.487   2.908  1.00  0.00    -0.181 NA
HETATM    6  C   UNL     1      41.947 -10.923   3.672  1.00  0.00     0.160 A 
HETATM    7  C   UNL     1      42.948 -11.834   4.101  1.00  0.00     0.098 A 
HETATM    8  C   UNL     1      40.690 -13.725   2.005  1.00  0.00     0.221 C 
HETATM    9  C   UNL     1      41.404 -15.090   1.973  1.00  0.00     0.066 C 
HETATM   10  H   UNL     1      43.754 -14.529   4.275  1.00  0.00     0.161 HD
ENDROOT
BRANCH   7  11
HETATM   11  C   UNL     1      44.098 -11.568   4.947  1.00  0.00     0.275 C 
HETATM   12  N   UNL     1      43.838 -11.711   6.301  1.00  0.00    -0.263 N 
HETATM   13  H   UNL     1      43.056 -12.273   6.628  1.00  0.00     0.190 HD
HETATM   14  O   UNL     1      45.198 -11.229   4.518  1.00  0.00    -0.266 OA
BRANCH  12  15
HETATM   15  N   UNL     1      44.858 -11.475   7.238  1.00  0.00    -0.274 N 
HETATM   16  H   UNL     1      45.356 -12.317   7.530  1.00  0.00     0.189 HD
BRANCH  15  17
HETATM   17  C   UNL     1      44.709 -10.503   8.199  1.00  0.00     0.186 C 
HETATM   18  S   UNL     1      45.689  -9.163   8.387  1.00  0.00    -0.040 SA
BRANCH  17  19
HETATM   19  N   UNL     1      43.705 -10.714   9.099  1.00  0.00    -0.360 N 
HETATM   20  H   UNL     1      42.778 -10.501   8.751  1.00  0.00     0.162 HD
BRANCH  19  21
HETATM   21  C   UNL     1      43.852 -10.698  10.546  1.00  0.00     0.187 C 
BRANCH  21  22
HETATM   22  C   UNL     1      43.184  -9.512  11.125  1.00  0.00     0.070 A 
HETATM   23  O   UNL     1      41.916  -9.250  10.694  1.00  0.00    -0.325 OA
HETATM   24  C   UNL     1      41.514  -8.112  11.315  1.00  0.00     0.142 A 
HETATM   25  C   UNL     1      42.508  -7.632  12.134  1.00  0.00     0.027 A 
HETATM   26  C   UNL     1      43.591  -8.535  12.011  1.00  0.00     0.036 A 
ENDBRANCH  21  22
ENDBRANCH  19  21
ENDBRANCH  17  19
ENDBRANCH  15  17
ENDBRANCH  12  15
ENDBRANCH   7  11
BRANCH   1  27
HETATM   27  C   UNL     1      42.732 -16.740   3.391  1.00  0.00    -0.035 A 
HETATM   28  C   UNL     1      43.311 -17.166   4.597  1.00  0.00     0.012 A 
HETATM   29  C   UNL     1      43.846 -18.451   4.720  1.00  0.00     0.037 A 
HETATM   30  C   UNL     1      43.809 -19.338   3.646  1.00  0.00     0.068 A 
HETATM   31  C   UNL     1      43.295 -18.908   2.423  1.00  0.00     0.037 A 
HETATM   32  C   UNL     1      42.769 -17.615   2.295  1.00  0.00     0.012 A 
BRANCH  30  33
HETATM   33  O   UNL     1      44.322 -20.579   3.898  1.00  0.00    -0.356 OA
HETATM   34  C   UNL     1      44.366 -20.964   5.268  1.00  0.00     0.210 C 
ENDBRANCH  30  33
ENDBRANCH   1  27
BRANCH   8  35
HETATM   35  C   UNL     1      40.432 -13.253   0.591  1.00  0.00     0.409 C 
HETATM   36  F   UNL     1      40.222 -14.278  -0.266  1.00  0.00    -0.169 F 
HETATM   37  F   UNL     1      39.305 -12.491   0.563  1.00  0.00    -0.169 F 
HETATM   38  F   UNL     1      41.417 -12.481   0.090  1.00  0.00    -0.169 F 
ENDBRANCH   8  35
TORSDOF 9
ENDMDL
MODEL 7
REMARK VINA RESULT:      -7.7      3.445      5.864
REMARK  9 active torsions:
REMARK  status: ('A' for Active; 'I' for Inactive)
REMARK    1  A    between atoms: O_2  and  C_3 
REMARK    2  A    between atoms: C_6  and  C_7 
REMARK    3  A    between atoms: C_13  and  C_14 
REMARK       I    between atoms: C_14  and  N_15 
REMARK    4  A    between atoms: N_15  and  N_16 
REMARK    5  A    between atoms: N_16  and  C_17 
REMARK    6  A    between atoms: C_17  and  N_18 
REMARK    7  A    between atoms: N_18  and  C_19 
REMARK    8  A    between atoms: C_19  and  C_20 
REMARK    9  A    between atoms: C_27  and  C_28 
ROOT
HETATM    1  C   UNL     1      41.838 -14.120   2.043  1.00  0.00     0.118 C 
HETATM    2  N   UNL     1      41.140 -13.661   3.243  1.00  0.00    -0.365 N 
HETATM    3  C   UNL     1      41.790 -13.803   4.429  1.00  0.00     0.138 A 
HETATM    4  N   UNL     1      42.759 -14.772   4.567  1.00  0.00    -0.240 N 
HETATM    5  N   UNL     1      43.430 -14.696   5.726  1.00  0.00    -0.181 NA
HETATM    6  C   UNL     1      42.767 -13.754   6.400  1.00  0.00     0.160 A 
HETATM    7  C   UNL     1      41.731 -13.145   5.643  1.00  0.00     0.098 A 
HETATM    8  C   UNL     1      43.192 -15.670   3.508  1.00  0.00     0.221 C 
HETATM    9  C   UNL     1      42.267 -15.575   2.279  1.00  0.00     0.066 C 
HETATM   10  H   UNL     1      40.537 -12.844   3.108  1.00  0.00     0.161 HD
ENDROOT
BRANCH   7  11
HETATM   11  C   UNL     1      40.829 -12.083   6.053  1.00  0.00     0.275 C 
HETATM   12  N   UNL     1      41.417 -11.142   6.883  1.00  0.00    -0.263 N 
HETATM   13  H   UNL     1      42.426 -11.019   6.904  1.00  0.00     0.190 HD
HETATM   14  O   UNL     1      39.649 -12.023   5.718  1.00  0.00    -0.266 OA
BRANCH  12  15
HETATM   15  N   UNL     1      40.658 -10.063   7.365  1.00  0.00    -0.274 N 
HETATM   16  H   UNL     1      40.105  -9.591   6.647  1.00  0.00     0.189 HD
BRANCH  15  17
HETATM   17  C   UNL     1      41.147  -9.260   8.367  1.00  0.00     0.186 C 
HETATM   18  S   UNL     1      40.961  -7.601   8.463  1.00  0.00    -0.040 SA
BRANCH  17  19
HETATM   19  N   UNL     1      41.899  -9.892   9.315  1.00  0.00    -0.360 N 
HETATM   20  H   UNL     1      41.373 -10.504   9.927  1.00  0.00     0.162 HD
BRANCH  19  21
HETATM   21  C   UNL     1      43.169  -9.416   9.841  1.00  0.00     0.187 C 
BRANCH  21  22
HETATM   22  C   UNL     1      44.282  -9.813   8.952  1.00  0.00     0.070 A 
HETATM   23  O   UNL     1      44.132 -10.983   8.266  1.00  0.00    -0.325 OA
HETATM   24  C   UNL     1      45.271 -11.172   7.551  1.00  0.00     0.142 A 
HETATM   25  C   UNL     1      46.155 -10.143   7.772  1.00  0.00     0.027 A 
HETATM   26  C   UNL     1      45.519  -9.264   8.681  1.00  0.00     0.036 A 
ENDBRANCH  21  22
ENDBRANCH  19  21
ENDBRANCH  17  19
ENDBRANCH  15  17
ENDBRANCH  12  15
ENDBRANCH   7  11
BRANCH   1  27
HETATM   27  C   UNL     1      40.984 -13.940   0.803  1.00  0.00    -0.035 A 
HETATM   28  C   UNL     1      41.019 -12.716   0.117  1.00  0.00     0.012 A 
HETATM   29  C   UNL     1      40.318 -12.546  -1.080  1.00  0.00     0.037 A 
HETATM   30  C   UNL     1      39.574 -13.594  -1.619  1.00  0.00     0.068 A 
HETATM   31  C   UNL     1      39.480 -14.795  -0.917  1.00  0.00     0.037 A 
HETATM   32  C   UNL     1      40.172 -14.962   0.290  1.00  0.00     0.012 A 
BRANCH  30  33
HETATM   33  O   UNL     1      38.969 -13.324  -2.814  1.00  0.00    -0.356 OA
HETATM   34  C   UNL     1      38.242 -14.400  -3.397  1.00  0.00     0.210 C 
ENDBRANCH  30  33
ENDBRANCH   1  27
BRANCH   8  35
HETATM   35  C   UNL     1      43.245 -17.102   3.994  1.00  0.00     0.409 C 
HETATM   36  F   UNL     1      44.422 -17.404   4.588  1.00  0.00    -0.169 F 
HETATM   37  F   UNL     1      42.278 -17.301   4.931  1.00  0.00    -0.169 F 
HETATM   38  F   UNL     1      43.018 -18.011   3.024  1.00  0.00    -0.169 F 
ENDBRANCH   8  35
TORSDOF 9
ENDMDL
MODEL 8
REMARK VINA RESULT:      -7.6      2.614      3.632
REMARK  9 active torsions:
REMARK  status: ('A' for Active; 'I' for Inactive)
REMARK    1  A    between atoms: O_2  and  C_3 
REMARK    2  A    between atoms: C_6  and  C_7 
REMARK    3  A    between atoms: C_13  and  C_14 
REMARK       I    between atoms: C_14  and  N_15 
REMARK    4  A    between atoms: N_15  and  N_16 
REMARK    5  A    between atoms: N_16  and  C_17 
REMARK    6  A    between atoms: C_17  and  N_18 
REMARK    7  A    between atoms: N_18  and  C_19 
REMARK    8  A    between atoms: C_19  and  C_20 
REMARK    9  A    between atoms: C_27  and  C_28 
ROOT
HETATM    1  C   UNL     1      39.998 -14.454   1.090  1.00  0.00     0.118 C 
HETATM    2  N   UNL     1      40.048 -13.047   1.485  1.00  0.00    -0.365 N 
HETATM    3  C   UNL     1      39.246 -12.185   0.804  1.00  0.00     0.138 A 
HETATM    4  N   UNL     1      38.844 -12.491  -0.477  1.00  0.00    -0.240 N 
HETATM    5  N   UNL     1      37.930 -11.640  -0.969  1.00  0.00    -0.181 NA
HETATM    6  C   UNL     1      37.867 -10.689  -0.035  1.00  0.00     0.160 A 
HETATM    7  C   UNL     1      38.660 -10.970   1.109  1.00  0.00     0.098 A 
HETATM    8  C   UNL     1      39.185 -13.715  -1.185  1.00  0.00     0.221 C 
HETATM    9  C   UNL     1      40.251 -14.525  -0.423  1.00  0.00     0.066 C 
HETATM   10  H   UNL     1      40.211 -12.882   2.482  1.00  0.00     0.161 HD
ENDROOT
BRANCH   7  11
HETATM   11  C   UNL     1      38.814 -10.169   2.311  1.00  0.00     0.275 C 
HETATM   12  N   UNL     1      38.399 -10.813   3.466  1.00  0.00    -0.263 N 
HETATM   13  H   UNL     1      38.337 -11.826   3.508  1.00  0.00     0.190 HD
HETATM   14  O   UNL     1      39.253  -9.022   2.314  1.00  0.00    -0.266 OA
BRANCH  12  15
HETATM   15  N   UNL     1      38.482 -10.151   4.702  1.00  0.00    -0.274 N 
HETATM   16  H   UNL     1      38.610  -9.141   4.625  1.00  0.00     0.189 HD
BRANCH  15  17
HETATM   17  C   UNL     1      39.099 -10.753   5.774  1.00  0.00     0.186 C 
HETATM   18  S   UNL     1      39.461 -10.013   7.229  1.00  0.00    -0.040 SA
BRANCH  17  19
HETATM   19  N   UNL     1      39.494 -12.044   5.577  1.00  0.00    -0.360 N 
HETATM   20  H   UNL     1      38.736 -12.715   5.553  1.00  0.00     0.162 HD
BRANCH  19  21
HETATM   21  C   UNL     1      40.804 -12.586   5.906  1.00  0.00     0.187 C 
BRANCH  21  22
HETATM   22  C   UNL     1      41.749 -12.379   4.788  1.00  0.00     0.070 A 
HETATM   23  O   UNL     1      41.449 -11.379   3.908  1.00  0.00    -0.325 OA
HETATM   24  C   UNL     1      42.415 -11.389   2.953  1.00  0.00     0.142 A 
HETATM   25  C   UNL     1      43.328 -12.385   3.202  1.00  0.00     0.027 A 
HETATM   26  C   UNL     1      42.898 -13.029   4.387  1.00  0.00     0.036 A 
ENDBRANCH  21  22
ENDBRANCH  19  21
ENDBRANCH  17  19
ENDBRANCH  15  17
ENDBRANCH  12  15
ENDBRANCH   7  11
BRANCH   1  27
HETATM   27  C   UNL     1      40.968 -15.291   1.901  1.00  0.00    -0.035 A 
HETATM   28  C   UNL     1      42.252 -15.541   1.391  1.00  0.00     0.012 A 
HETATM   29  C   UNL     1      43.201 -16.229   2.151  1.00  0.00     0.037 A 
HETATM   30  C   UNL     1      42.893 -16.675   3.435  1.00  0.00     0.068 A 
HETATM   31  C   UNL     1      41.603 -16.488   3.929  1.00  0.00     0.037 A 
HETATM   32  C   UNL     1      40.645 -15.810   3.163  1.00  0.00     0.012 A 
BRANCH  30  33
HETATM   33  O   UNL     1      43.915 -17.295   4.097  1.00  0.00    -0.356 OA
HETATM   34  C   UNL     1      44.118 -16.884   5.445  1.00  0.00     0.210 C 
ENDBRANCH  30  33
ENDBRANCH   1  27
BRANCH   8  35
HETATM   35  C   UNL     1      39.677 -13.418  -2.585  1.00  0.00     0.409 C 
HETATM   36  F   UNL     1      40.320 -12.231  -2.667  1.00  0.00    -0.169 F 
HETATM   37  F   UNL     1      40.573 -14.370  -2.964  1.00  0.00    -0.169 F 
HETATM   38  F   UNL     1      38.701 -13.432  -3.515  1.00  0.00    -0.169 F 
ENDBRANCH   8  35
TORSDOF 9
ENDMDL
MODEL 9
REMARK VINA RESULT:      -7.5      4.134      7.404
REMARK  9 active torsions:
REMARK  status: ('A' for Active; 'I' for Inactive)
REMARK    1  A    between atoms: O_2  and  C_3 
REMARK    2  A    between atoms: C_6  and  C_7 
REMARK    3  A    between atoms: C_13  and  C_14 
REMARK       I    between atoms: C_14  and  N_15 
REMARK    4  A    between atoms: N_15  and  N_16 
REMARK    5  A    between atoms: N_16  and  C_17 
REMARK    6  A    between atoms: C_17  and  N_18 
REMARK    7  A    between atoms: N_18  and  C_19 
REMARK    8  A    between atoms: C_19  and  C_20 
REMARK    9  A    between atoms: C_27  and  C_28 
ROOT
HETATM    1  C   UNL     1      42.551 -13.712   5.756  1.00  0.00     0.118 C 
HETATM    2  N   UNL     1      42.658 -13.611   4.301  1.00  0.00    -0.365 N 
HETATM    3  C   UNL     1      42.314 -14.710   3.578  1.00  0.00     0.138 A 
HETATM    4  N   UNL     1      42.388 -15.959   4.153  1.00  0.00    -0.240 N 
HETATM    5  N   UNL     1      41.869 -16.931   3.389  1.00  0.00    -0.181 NA
HETATM    6  C   UNL     1      41.600 -16.306   2.242  1.00  0.00     0.160 A 
HETATM    7  C   UNL     1      41.847 -14.908   2.292  1.00  0.00     0.098 A 
HETATM    8  C   UNL     1      42.783 -16.217   5.528  1.00  0.00     0.221 C 
HETATM    9  C   UNL     1      43.346 -14.949   6.199  1.00  0.00     0.066 C 
HETATM   10  H   UNL     1      42.453 -12.685   3.915  1.00  0.00     0.161 HD
ENDROOT
BRANCH   7  11
HETATM   11  C   UNL     1      41.652 -13.926   1.240  1.00  0.00     0.275 C 
HETATM   12  N   UNL     1      41.048 -14.440   0.103  1.00  0.00    -0.263 N 
HETATM   13  H   UNL     1      40.496 -15.293   0.143  1.00  0.00     0.190 HD
HETATM   14  O   UNL     1      42.000 -12.752   1.330  1.00  0.00    -0.266 OA
BRANCH  12  15
HETATM   15  N   UNL     1      40.806 -13.603  -0.999  1.00  0.00    -0.274 N 
HETATM   16  H   UNL     1      41.613 -13.042  -1.279  1.00  0.00     0.189 HD
BRANCH  15  17
HETATM   17  C   UNL     1      39.577 -13.010  -1.166  1.00  0.00     0.186 C 
HETATM   18  S   UNL     1      38.363 -13.557  -2.177  1.00  0.00    -0.040 SA
BRANCH  17  19
HETATM   19  N   UNL     1      39.388 -11.843  -0.484  1.00  0.00    -0.360 N 
HETATM   20  H   UNL     1      40.229 -11.296  -0.350  1.00  0.00     0.162 HD
BRANCH  19  21
HETATM   21  C   UNL     1      38.309 -11.580   0.455  1.00  0.00     0.187 C 
BRANCH  21  22
HETATM   22  C   UNL     1      38.796 -11.675   1.848  1.00  0.00     0.070 A 
HETATM   23  O   UNL     1      39.485 -10.601   2.332  1.00  0.00    -0.325 OA
HETATM   24  C   UNL     1      39.867 -10.912   3.597  1.00  0.00     0.142 A 
HETATM   25  C   UNL     1      39.439 -12.175   3.933  1.00  0.00     0.027 A 
HETATM   26  C   UNL     1      38.749 -12.671   2.802  1.00  0.00     0.036 A 
ENDBRANCH  21  22
ENDBRANCH  19  21
ENDBRANCH  17  19
ENDBRANCH  15  17
ENDBRANCH  12  15
ENDBRANCH   7  11
BRANCH   1  27
HETATM   27  C   UNL     1      43.002 -12.434   6.434  1.00  0.00    -0.035 A 
HETATM   28  C   UNL     1      44.244 -12.405   7.089  1.00  0.00     0.012 A 
HETATM   29  C   UNL     1      44.733 -11.219   7.644  1.00  0.00     0.037 A 
HETATM   30  C   UNL     1      43.998 -10.039   7.552  1.00  0.00     0.068 A 
HETATM   31  C   UNL     1      42.736 -10.066   6.961  1.00  0.00     0.037 A 
HETATM   32  C   UNL     1      42.238 -11.257   6.415  1.00  0.00     0.012 A 
BRANCH  30  33
HETATM   33  O   UNL     1      44.597  -8.936   8.093  1.00  0.00    -0.356 OA
HETATM   34  C   UNL     1      46.003  -9.031   8.293  1.00  0.00     0.210 C 
ENDBRANCH  30  33
ENDBRANCH   1  27
BRANCH   8  35
HETATM   35  C   UNL     1      43.809 -17.328   5.603  1.00  0.00     0.409 C 
HETATM   36  F   UNL     1      44.527 -17.446   4.464  1.00  0.00    -0.169 F 
HETATM   37  F   UNL     1      44.700 -17.058   6.595  1.00  0.00    -0.169 F 
HETATM   38  F   UNL     1      43.279 -18.533   5.893  1.00  0.00    -0.169 F 
ENDBRANCH   8  35
TORSDOF 9
ENDMDL
MODEL 10
REMARK VINA RESULT:      -7.3      3.682      6.835
REMARK  9 active torsions:
REMARK  status: ('A' for Active; 'I' for Inactive)
REMARK    1  A    between atoms: O_2  and  C_3 
REMARK    2  A    between atoms: C_6  and  C_7 
REMARK    3  A    between atoms: C_13  and  C_14 
REMARK       I    between atoms: C_14  and  N_15 
REMARK    4  A    between atoms: N_15  and  N_16 
REMARK    5  A    between atoms: N_16  and  C_17 
REMARK    6  A    between atoms: C_17  and  N_18 
REMARK    7  A    between atoms: N_18  and  C_19 
REMARK    8  A    between atoms: C_19  and  C_20 
REMARK    9  A    between atoms: C_27  and  C_28 
ROOT
HETATM    1  C   UNL     1      41.069 -11.810  -1.745  1.00  0.00     0.118 C 
HETATM    2  N   UNL     1      40.560 -11.844  -0.375  1.00  0.00    -0.365 N 
HETATM    3  C   UNL     1      40.268 -13.065   0.147  1.00  0.00     0.138 A 
HETATM    4  N   UNL     1      39.953 -14.111  -0.692  1.00  0.00    -0.240 N 
HETATM    5  N   UNL     1      39.848 -15.290  -0.061  1.00  0.00    -0.181 NA
HETATM    6  C   UNL     1      39.947 -14.955   1.227  1.00  0.00     0.160 A 
HETATM    7  C   UNL     1      40.219 -13.576   1.431  1.00  0.00     0.098 A 
HETATM    8  C   UNL     1      39.938 -14.034  -2.144  1.00  0.00     0.221 C 
HETATM    9  C   UNL     1      40.077 -12.579  -2.631  1.00  0.00     0.066 C 
HETATM   10  H   UNL     1      40.939 -11.123   0.245  1.00  0.00     0.161 HD
ENDROOT
BRANCH   7  11
HETATM   11  C   UNL     1      40.404 -12.877   2.690  1.00  0.00     0.275 C 
HETATM   12  N   UNL     1      40.379 -13.708   3.798  1.00  0.00    -0.263 N 
HETATM   13  H   UNL     1      40.568 -14.703   3.711  1.00  0.00     0.190 HD
HETATM   14  O   UNL     1      40.551 -11.660   2.779  1.00  0.00    -0.266 OA
BRANCH  12  15
HETATM   15  N   UNL     1      40.536 -13.164   5.084  1.00  0.00    -0.274 N 
HETATM   16  H   UNL     1      40.096 -12.250   5.205  1.00  0.00     0.189 HD
BRANCH  15  17
HETATM   17  C   UNL     1      41.700 -13.366   5.788  1.00  0.00     0.186 C 
HETATM   18  S   UNL     1      43.174 -12.651   5.456  1.00  0.00    -0.040 SA
BRANCH  17  19
HETATM   19  N   UNL     1      41.627 -14.282   6.797  1.00  0.00    -0.360 N 
HETATM   20  H   UNL     1      42.155 -14.035   7.625  1.00  0.00     0.162 HD
BRANCH  19  21
HETATM   21  C   UNL     1      41.340 -15.698   6.633  1.00  0.00     0.187 C 
BRANCH  21  22
HETATM   22  C   UNL     1      42.099 -16.255   5.492  1.00  0.00     0.070 A 
HETATM   23  O   UNL     1      41.447 -16.322   4.295  1.00  0.00    -0.325 OA
HETATM   24  C   UNL     1      42.303 -16.891   3.409  1.00  0.00     0.142 A 
HETATM   25  C   UNL     1      43.496 -17.197   4.019  1.00  0.00     0.027 A 
HETATM   26  C   UNL     1      43.365 -16.789   5.368  1.00  0.00     0.036 A 
ENDBRANCH  21  22
ENDBRANCH  19  21
ENDBRANCH  17  19
ENDBRANCH  15  17
ENDBRANCH  12  15
ENDBRANCH   7  11
BRANCH   1  27
HETATM   27  C   UNL     1      41.313 -10.389  -2.211  1.00  0.00    -0.035 A 
HETATM   28  C   UNL     1      42.077  -9.525  -1.411  1.00  0.00     0.012 A 
HETATM   29  C   UNL     1      42.399  -8.239  -1.852  1.00  0.00     0.037 A 
HETATM   30  C   UNL     1      41.972  -7.791  -3.101  1.00  0.00     0.068 A 
HETATM   31  C   UNL     1      41.161  -8.615  -3.879  1.00  0.00     0.037 A 
HETATM   32  C   UNL     1      40.826  -9.900  -3.433  1.00  0.00     0.012 A 
BRANCH  30  33
HETATM   33  O   UNL     1      42.386  -6.534  -3.441  1.00  0.00    -0.356 OA
HETATM   34  C   UNL     1      42.867  -6.380  -4.772  1.00  0.00     0.210 C 
ENDBRANCH  30  33
ENDBRANCH   1  27
BRANCH   8  35
HETATM   35  C   UNL     1      38.671 -14.639  -2.709  1.00  0.00     0.409 C 
HETATM   36  F   UNL     1      38.579 -15.967  -2.468  1.00  0.00    -0.169 F 
HETATM   37  F   UNL     1      37.588 -14.064  -2.119  1.00  0.00    -0.169 F 
HETATM   38  F   UNL     1      38.523 -14.442  -4.035  1.00  0.00    -0.169 F 
ENDBRANCH   8  35
TORSDOF 9
ENDMDL
