MODEL 1
REMARK VINA RESULT:      -7.6      0.000      0.000
REMARK  6 active torsions:
REMARK  status: ('A' for Active; 'I' for Inactive)
REMARK    1  A    between atoms: C_3  and  N_4 
REMARK    2  A    between atoms: N_4  and  C_5 
REMARK    3  A    between atoms: C_5  and  C_6 
REMARK    4  A    between atoms: N_8  and  C_10 
REMARK    5  A    between atoms: C_10  and  C_11 
REMARK    6  A    between atoms: C_12  and  O_13 
ROOT
HETATM    1  C   UNL     1      39.451 -13.536   2.565  1.00  0.00     0.031 C 
HETATM    2  C   UNL     1      40.026 -14.950   2.685  1.00  0.00     0.241 C 
HETATM    3  N   UNL     1      41.244 -14.810   3.561  1.00  0.00    -0.067 N 
HETATM    4  H   UNL     1      41.176 -15.513   4.323  1.00  0.00     0.280 HD
HETATM    5  C   UNL     1      41.210 -13.450   4.213  1.00  0.00     0.235 C 
HETATM    6  C   UNL     1      39.810 -12.934   3.923  1.00  0.00     0.035 C 
ENDROOT
BRANCH   3   7
HETATM    7  C   UNL     1      42.550 -15.173   2.899  1.00  0.00     0.276 C 
BRANCH   7   8
HETATM    8  C   UNL     1      43.119 -16.476   3.380  1.00  0.00     0.002 A 
HETATM    9  C   UNL     1      43.644 -16.597   4.673  1.00  0.00     0.073 A 
HETATM   10  C   UNL     1      44.155 -17.806   5.138  1.00  0.00     0.038 A 
HETATM   11  C   UNL     1      44.151 -18.921   4.298  1.00  0.00     0.022 A 
HETATM   12  C   UNL     1      43.635 -18.817   3.009  1.00  0.00     0.011 A 
HETATM   13 BR   UNL     1      43.643 -20.320   1.865  1.00  0.00    -0.051 Br
HETATM   14  C   UNL     1      43.115 -17.606   2.548  1.00  0.00     0.030 A 
BRANCH   9  15
HETATM   15  O   UNL     1      43.668 -15.479   5.464  1.00  0.00    -0.360 OA
HETATM   16  H   UNL     1      43.763 -15.775   6.393  1.00  0.00     0.217 HD
ENDBRANCH   9  15
ENDBRANCH   7   8
ENDBRANCH   3   7
BRANCH   1  17
HETATM   17  C   UNL     1      40.047 -12.771   1.368  1.00  0.00     0.127 C 
BRANCH  17  18
HETATM   18  N   UNL     1      40.324 -13.682   0.253  1.00  0.00    -0.376 N 
HETATM   19  H   UNL     1      40.802 -14.535   0.533  1.00  0.00     0.161 HD
BRANCH  18  20
HETATM   20  C   UNL     1      39.470 -13.766  -0.835  1.00  0.00     0.100 A 
HETATM   21  C   UNL     1      39.566 -14.743  -1.836  1.00  0.00     0.048 A 
HETATM   22  C   UNL     1      38.667 -14.751  -2.902  1.00  0.00     0.005 A 
HETATM   23  C   UNL     1      37.664 -13.795  -2.958  1.00  0.00     0.017 A 
HETATM   24  C   UNL     1      37.574 -12.864  -1.937  1.00  0.00     0.089 A 
HETATM   25  N   UNL     1      38.456 -12.886  -0.926  1.00  0.00    -0.353 N 
HETATM   26  H   UNL     1      38.349 -12.196  -0.188  1.00  0.00     0.166 HD
ENDBRANCH  18  20
ENDBRANCH  17  18
ENDBRANCH   1  17
TORSDOF 6
ENDMDL
MODEL 2
REMARK VINA RESULT:      -7.5      5.761      7.917
REMARK  6 active torsions:
REMARK  status: ('A' for Active; 'I' for Inactive)
REMARK    1  A    between atoms: C_3  and  N_4 
REMARK    2  A    between atoms: N_4  and  C_5 
REMARK    3  A    between atoms: C_5  and  C_6 
REMARK    4  A    between atoms: N_8  and  C_10 
REMARK    5  A    between atoms: C_10  and  C_11 
REMARK    6  A    between atoms: C_12  and  O_13 
ROOT
HETATM    1  C   UNL     1      42.025 -15.342   5.971  1.00  0.00     0.031 C 
HETATM    2  C   UNL     1      43.014 -14.812   7.012  1.00  0.00     0.241 C 
HETATM    3  N   UNL     1      42.973 -13.312   6.871  1.00  0.00    -0.067 N 
HETATM    4  H   UNL     1      42.820 -12.903   7.813  1.00  0.00     0.280 HD
HETATM    5  C   UNL     1      41.776 -12.943   6.030  1.00  0.00     0.235 C 
HETATM    6  C   UNL     1      40.975 -14.232   5.940  1.00  0.00     0.035 C 
ENDROOT
BRANCH   3   7
HETATM    7  C   UNL     1      44.275 -12.676   6.448  1.00  0.00     0.276 C 
BRANCH   7   8
HETATM    8  C   UNL     1      44.724 -11.575   7.365  1.00  0.00     0.002 A 
HETATM    9  C   UNL     1      45.873 -10.826   7.077  1.00  0.00     0.073 A 
HETATM   10  C   UNL     1      46.288  -9.789   7.907  1.00  0.00     0.038 A 
HETATM   11  C   UNL     1      45.550  -9.490   9.054  1.00  0.00     0.022 A 
HETATM   12  C   UNL     1      44.407 -10.226   9.355  1.00  0.00     0.011 A 
HETATM   13 BR   UNL     1      43.416  -9.835  10.915  1.00  0.00    -0.051 Br
HETATM   14  C   UNL     1      43.988 -11.260   8.517  1.00  0.00     0.030 A 
BRANCH   9  15
HETATM   15  O   UNL     1      46.597 -11.163   5.965  1.00  0.00    -0.360 OA
HETATM   16  H   UNL     1      46.347 -10.542   5.249  1.00  0.00     0.217 HD
ENDBRANCH   9  15
ENDBRANCH   7   8
ENDBRANCH   3   7
BRANCH   1  17
HETATM   17  C   UNL     1      42.701 -15.596   4.611  1.00  0.00     0.127 C 
BRANCH  17  18
HETATM   18  N   UNL     1      43.802 -16.556   4.747  1.00  0.00    -0.376 N 
HETATM   19  H   UNL     1      44.282 -16.500   5.640  1.00  0.00     0.161 HD
BRANCH  18  20
HETATM   20  C   UNL     1      43.751 -17.797   4.134  1.00  0.00     0.100 A 
HETATM   21  C   UNL     1      43.355 -18.003   2.806  1.00  0.00     0.048 A 
HETATM   22  C   UNL     1      43.328 -19.289   2.268  1.00  0.00     0.005 A 
HETATM   23  C   UNL     1      43.711 -20.367   3.053  1.00  0.00     0.017 A 
HETATM   24  C   UNL     1      44.130 -20.129   4.351  1.00  0.00     0.089 A 
HETATM   25  N   UNL     1      44.145 -18.877   4.835  1.00  0.00    -0.353 N 
HETATM   26  H   UNL     1      44.471 -18.740   5.787  1.00  0.00     0.166 HD
ENDBRANCH  18  20
ENDBRANCH  17  18
ENDBRANCH   1  17
TORSDOF 6
ENDMDL
MODEL 3
REMARK VINA RESULT:      -7.5      3.047      7.402
REMARK  6 active torsions:
REMARK  status: ('A' for Active; 'I' for Inactive)
REMARK    1  A    between atoms: C_3  and  N_4 
REMARK    2  A    between atoms: N_4  and  C_5 
REMARK    3  A    between atoms: C_5  and  C_6 
REMARK    4  A    between atoms: N_8  and  C_10 
REMARK    5  A    between atoms: C_10  and  C_11 
REMARK    6  A    between atoms: C_12  and  O_13 
ROOT
HETATM    1  C   UNL     1      41.984 -15.191   4.306  1.00  0.00     0.031 C 
HETATM    2  C   UNL     1      41.554 -13.885   3.634  1.00  0.00     0.241 C 
HETATM    3  N   UNL     1      40.635 -14.300   2.513  1.00  0.00    -0.067 N 
HETATM    4  H   UNL     1      39.760 -13.746   2.593  1.00  0.00     0.280 HD
HETATM    5  C   UNL     1      40.261 -15.747   2.713  1.00  0.00     0.235 C 
HETATM    6  C   UNL     1      40.745 -16.066   4.118  1.00  0.00     0.035 C 
ENDROOT
BRANCH   3   7
HETATM    7  C   UNL     1      41.119 -13.946   1.129  1.00  0.00     0.276 C 
BRANCH   7   8
HETATM    8  C   UNL     1      40.022 -13.485   0.214  1.00  0.00     0.002 A 
HETATM    9  C   UNL     1      39.295 -12.321   0.495  1.00  0.00     0.073 A 
HETATM   10  C   UNL     1      38.290 -11.871  -0.357  1.00  0.00     0.038 A 
HETATM   11  C   UNL     1      37.993 -12.597  -1.512  1.00  0.00     0.022 A 
HETATM   12  C   UNL     1      38.704 -13.758  -1.804  1.00  0.00     0.011 A 
HETATM   13 BR   UNL     1      38.293 -14.751  -3.357  1.00  0.00    -0.051 Br
HETATM   14  C   UNL     1      39.718 -14.202  -0.953  1.00  0.00     0.030 A 
BRANCH   9  15
HETATM   15  O   UNL     1      39.583 -11.647   1.651  1.00  0.00    -0.360 OA
HETATM   16  H   UNL     1      38.776 -11.654   2.207  1.00  0.00     0.217 HD
ENDBRANCH   9  15
ENDBRANCH   7   8
ENDBRANCH   3   7
BRANCH   1  17
HETATM   17  C   UNL     1      43.259 -15.775   3.669  1.00  0.00     0.127 C 
BRANCH  17  18
HETATM   18  N   UNL     1      43.786 -16.881   4.476  1.00  0.00    -0.376 N 
HETATM   19  H   UNL     1      43.664 -16.749   5.476  1.00  0.00     0.161 HD
BRANCH  18  20
HETATM   20  C   UNL     1      43.770 -18.184   4.006  1.00  0.00     0.100 A 
HETATM   21  C   UNL     1      43.447 -18.540   2.689  1.00  0.00     0.048 A 
HETATM   22  C   UNL     1      43.450 -19.880   2.300  1.00  0.00     0.005 A 
HETATM   23  C   UNL     1      43.790 -20.859   3.222  1.00  0.00     0.017 A 
HETATM   24  C   UNL     1      44.136 -20.473   4.505  1.00  0.00     0.089 A 
HETATM   25  N   UNL     1      44.124 -19.174   4.845  1.00  0.00    -0.353 N 
HETATM   26  H   UNL     1      44.397 -18.929   5.792  1.00  0.00     0.166 HD
ENDBRANCH  18  20
ENDBRANCH  17  18
ENDBRANCH   1  17
TORSDOF 6
ENDMDL
MODEL 4
REMARK VINA RESULT:      -7.3      3.379      6.570
REMARK  6 active torsions:
REMARK  status: ('A' for Active; 'I' for Inactive)
REMARK    1  A    between atoms: C_3  and  N_4 
REMARK    2  A    between atoms: N_4  and  C_5 
REMARK    3  A    between atoms: C_5  and  C_6 
REMARK    4  A    between atoms: N_8  and  C_10 
REMARK    5  A    between atoms: C_10  and  C_11 
REMARK    6  A    between atoms: C_12  and  O_13 
ROOT
HETATM    1  C   UNL     1      43.024 -11.929   2.985  1.00  0.00     0.031 C 
HETATM    2  C   UNL     1      43.344 -13.423   2.910  1.00  0.00     0.241 C 
HETATM    3  N   UNL     1      42.008 -14.108   2.771  1.00  0.00    -0.067 N 
HETATM    4  H   UNL     1      42.061 -14.756   1.961  1.00  0.00     0.280 HD
HETATM    5  C   UNL     1      40.970 -13.067   2.434  1.00  0.00     0.235 C 
HETATM    6  C   UNL     1      41.783 -11.827   2.099  1.00  0.00     0.035 C 
ENDROOT
BRANCH   3   7
HETATM    7  C   UNL     1      41.645 -15.034   3.905  1.00  0.00     0.276 C 
BRANCH   7   8
HETATM    8  C   UNL     1      42.607 -16.175   4.073  1.00  0.00     0.002 A 
HETATM    9  C   UNL     1      43.519 -16.193   5.137  1.00  0.00     0.073 A 
HETATM   10  C   UNL     1      44.401 -17.256   5.317  1.00  0.00     0.038 A 
HETATM   11  C   UNL     1      44.383 -18.323   4.416  1.00  0.00     0.022 A 
HETATM   12  C   UNL     1      43.484 -18.318   3.353  1.00  0.00     0.011 A 
HETATM   13 BR   UNL     1      43.469 -19.752   2.124  1.00  0.00    -0.051 Br
HETATM   14  C   UNL     1      42.595 -17.256   3.180  1.00  0.00     0.030 A 
BRANCH   9  15
HETATM   15  O   UNL     1      43.539 -15.118   5.985  1.00  0.00    -0.360 OA
HETATM   16  H   UNL     1      44.416 -14.690   5.901  1.00  0.00     0.217 HD
ENDBRANCH   9  15
ENDBRANCH   7   8
ENDBRANCH   3   7
BRANCH   1  17
HETATM   17  C   UNL     1      42.793 -11.459   4.433  1.00  0.00     0.127 C 
BRANCH  17  18
HETATM   18  N   UNL     1      43.603 -12.245   5.370  1.00  0.00    -0.376 N 
HETATM   19  H   UNL     1      44.062 -13.044   4.942  1.00  0.00     0.161 HD
BRANCH  18  20
HETATM   20  C   UNL     1      44.251 -11.644   6.438  1.00  0.00     0.100 A 
HETATM   21  C   UNL     1      45.607 -11.293   6.437  1.00  0.00     0.048 A 
HETATM   22  C   UNL     1      46.182 -10.695   7.559  1.00  0.00     0.005 A 
HETATM   23  C   UNL     1      45.398 -10.435   8.673  1.00  0.00     0.017 A 
HETATM   24  C   UNL     1      44.054 -10.763   8.631  1.00  0.00     0.089 A 
HETATM   25  N   UNL     1      43.534 -11.336   7.534  1.00  0.00    -0.353 N 
HETATM   26  H   UNL     1      42.540 -11.549   7.536  1.00  0.00     0.166 HD
ENDBRANCH  18  20
ENDBRANCH  17  18
ENDBRANCH   1  17
TORSDOF 6
ENDMDL
MODEL 5
REMARK VINA RESULT:      -7.2      4.530      6.971
REMARK  6 active torsions:
REMARK  status: ('A' for Active; 'I' for Inactive)
REMARK    1  A    between atoms: C_3  and  N_4 
REMARK    2  A    between atoms: N_4  and  C_5 
REMARK    3  A    between atoms: C_5  and  C_6 
REMARK    4  A    between atoms: N_8  and  C_10 
REMARK    5  A    between atoms: C_10  and  C_11 
REMARK    6  A    between atoms: C_12  and  O_13 
ROOT
HETATM    1  C   UNL     1      41.575 -13.721   5.200  1.00  0.00     0.031 C 
HETATM    2  C   UNL     1      41.914 -14.972   4.384  1.00  0.00     0.241 C 
HETATM    3  N   UNL     1      42.200 -16.044   5.404  1.00  0.00    -0.067 N 
HETATM    4  H   UNL     1      41.631 -16.879   5.162  1.00  0.00     0.280 HD
HETATM    5  C   UNL     1      41.726 -15.561   6.752  1.00  0.00     0.235 C 
HETATM    6  C   UNL     1      40.905 -14.323   6.434  1.00  0.00     0.035 C 
ENDROOT
BRANCH   3   7
HETATM    7  C   UNL     1      43.606 -16.591   5.375  1.00  0.00     0.276 C 
BRANCH   7   8
HETATM    8  C   UNL     1      43.666 -18.063   5.083  1.00  0.00     0.002 A 
HETATM    9  C   UNL     1      43.608 -19.003   6.120  1.00  0.00     0.073 A 
HETATM   10  C   UNL     1      43.641 -20.371   5.861  1.00  0.00     0.038 A 
HETATM   11  C   UNL     1      43.741 -20.817   4.542  1.00  0.00     0.022 A 
HETATM   12  C   UNL     1      43.802 -19.895   3.500  1.00  0.00     0.011 A 
HETATM   13 BR   UNL     1      43.954 -20.496   1.716  1.00  0.00    -0.051 Br
HETATM   14  C   UNL     1      43.760 -18.525   3.762  1.00  0.00     0.030 A 
BRANCH   9  15
HETATM   15  O   UNL     1      43.545 -18.538   7.407  1.00  0.00    -0.360 OA
HETATM   16  H   UNL     1      44.009 -17.675   7.433  1.00  0.00     0.217 HD
ENDBRANCH   9  15
ENDBRANCH   7   8
ENDBRANCH   3   7
BRANCH   1  17
HETATM   17  C   UNL     1      42.827 -12.883   5.518  1.00  0.00     0.127 C 
BRANCH  17  18
HETATM   18  N   UNL     1      42.638 -12.112   6.751  1.00  0.00    -0.376 N 
HETATM   19  H   UNL     1      41.906 -12.479   7.353  1.00  0.00     0.161 HD
BRANCH  18  20
HETATM   20  C   UNL     1      43.702 -11.475   7.369  1.00  0.00     0.100 A 
HETATM   21  C   UNL     1      44.991 -11.393   6.827  1.00  0.00     0.048 A 
HETATM   22  C   UNL     1      46.008 -10.736   7.521  1.00  0.00     0.005 A 
HETATM   23  C   UNL     1      45.731 -10.148   8.746  1.00  0.00     0.017 A 
HETATM   24  C   UNL     1      44.439 -10.217   9.240  1.00  0.00     0.089 A 
HETATM   25  N   UNL     1      43.485 -10.856   8.545  1.00  0.00    -0.353 N 
HETATM   26  H   UNL     1      42.547 -10.874   8.933  1.00  0.00     0.166 HD
ENDBRANCH  18  20
ENDBRANCH  17  18
ENDBRANCH   1  17
TORSDOF 6
ENDMDL
MODEL 6
REMARK VINA RESULT:      -7.0      3.135      6.369
REMARK  6 active torsions:
REMARK  status: ('A' for Active; 'I' for Inactive)
REMARK    1  A    between atoms: C_3  and  N_4 
REMARK    2  A    between atoms: N_4  and  C_5 
REMARK    3  A    between atoms: C_5  and  C_6 
REMARK    4  A    between atoms: N_8  and  C_10 
REMARK    5  A    between atoms: C_10  and  C_11 
REMARK    6  A    between atoms: C_12  and  O_13 
ROOT
HETATM    1  C   UNL     1      43.192 -14.058   5.141  1.00  0.00     0.031 C 
HETATM    2  C   UNL     1      42.513 -13.525   3.877  1.00  0.00     0.241 C 
HETATM    3  N   UNL     1      41.335 -12.723   4.368  1.00  0.00    -0.067 N 
HETATM    4  H   UNL     1      41.370 -11.789   3.916  1.00  0.00     0.280 HD
HETATM    5  C   UNL     1      41.494 -12.500   5.852  1.00  0.00     0.235 C 
HETATM    6  C   UNL     1      42.921 -12.936   6.142  1.00  0.00     0.035 C 
ENDROOT
BRANCH   3   7
HETATM    7  C   UNL     1      39.986 -13.243   3.938  1.00  0.00     0.276 C 
BRANCH   7   8
HETATM    8  C   UNL     1      39.985 -13.821   2.552  1.00  0.00     0.002 A 
HETATM    9  C   UNL     1      39.899 -15.205   2.352  1.00  0.00     0.073 A 
HETATM   10  C   UNL     1      39.875 -15.752   1.071  1.00  0.00     0.038 A 
HETATM   11  C   UNL     1      39.945 -14.906  -0.038  1.00  0.00     0.022 A 
HETATM   12  C   UNL     1      40.033 -13.529   0.145  1.00  0.00     0.011 A 
HETATM   13 BR   UNL     1      40.145 -12.384  -1.354  1.00  0.00    -0.051 Br
HETATM   14  C   UNL     1      40.048 -12.982   1.429  1.00  0.00     0.030 A 
BRANCH   9  15
HETATM   15  O   UNL     1      39.867 -16.013   3.457  1.00  0.00    -0.360 OA
HETATM   16  H   UNL     1      39.948 -15.439   4.246  1.00  0.00     0.217 HD
ENDBRANCH   9  15
ENDBRANCH   7   8
ENDBRANCH   3   7
BRANCH   1  17
HETATM   17  C   UNL     1      42.624 -15.424   5.569  1.00  0.00     0.127 C 
BRANCH  17  18
HETATM   18  N   UNL     1      43.630 -16.480   5.412  1.00  0.00    -0.376 N 
HETATM   19  H   UNL     1      44.032 -16.793   6.291  1.00  0.00     0.161 HD
BRANCH  18  20
HETATM   20  C   UNL     1      43.538 -17.413   4.392  1.00  0.00     0.100 A 
HETATM   21  C   UNL     1      44.128 -18.683   4.434  1.00  0.00     0.048 A 
HETATM   22  C   UNL     1      43.991 -19.561   3.359  1.00  0.00     0.005 A 
HETATM   23  C   UNL     1      43.251 -19.175   2.251  1.00  0.00     0.017 A 
HETATM   24  C   UNL     1      42.652 -17.927   2.253  1.00  0.00     0.089 A 
HETATM   25  N   UNL     1      42.804 -17.108   3.306  1.00  0.00    -0.353 N 
HETATM   26  H   UNL     1      42.338 -16.206   3.276  1.00  0.00     0.166 HD
ENDBRANCH  18  20
ENDBRANCH  17  18
ENDBRANCH   1  17
TORSDOF 6
ENDMDL
MODEL 7
REMARK VINA RESULT:      -7.0      4.223      7.243
REMARK  6 active torsions:
REMARK  status: ('A' for Active; 'I' for Inactive)
REMARK    1  A    between atoms: C_3  and  N_4 
REMARK    2  A    between atoms: N_4  and  C_5 
REMARK    3  A    between atoms: C_5  and  C_6 
REMARK    4  A    between atoms: N_8  and  C_10 
REMARK    5  A    between atoms: C_10  and  C_11 
REMARK    6  A    between atoms: C_12  and  O_13 
ROOT
HETATM    1  C   UNL     1      41.622 -12.950   5.246  1.00  0.00     0.031 C 
HETATM    2  C   UNL     1      41.940 -13.820   4.027  1.00  0.00     0.241 C 
HETATM    3  N   UNL     1      42.141 -15.210   4.574  1.00  0.00    -0.067 N 
HETATM    4  H   UNL     1      41.547 -15.862   4.026  1.00  0.00     0.280 HD
HETATM    5  C   UNL     1      41.635 -15.242   5.995  1.00  0.00     0.235 C 
HETATM    6  C   UNL     1      40.879 -13.933   6.150  1.00  0.00     0.035 C 
ENDROOT
BRANCH   3   7
HETATM    7  C   UNL     1      43.523 -15.781   4.371  1.00  0.00     0.276 C 
BRANCH   7   8
HETATM    8  C   UNL     1      43.515 -17.188   3.847  1.00  0.00     0.002 A 
HETATM    9  C   UNL     1      43.159 -17.456   2.519  1.00  0.00     0.073 A 
HETATM   10  C   UNL     1      43.168 -18.754   2.015  1.00  0.00     0.038 A 
HETATM   11  C   UNL     1      43.533 -19.813   2.849  1.00  0.00     0.022 A 
HETATM   12  C   UNL     1      43.887 -19.562   4.173  1.00  0.00     0.011 A 
HETATM   13 BR   UNL     1      44.366 -20.994   5.308  1.00  0.00    -0.051 Br
HETATM   14  C   UNL     1      43.886 -18.259   4.673  1.00  0.00     0.030 A 
BRANCH   9  15
HETATM   15  O   UNL     1      42.772 -16.405   1.732  1.00  0.00    -0.360 OA
HETATM   16  H   UNL     1      43.311 -15.628   1.990  1.00  0.00     0.217 HD
ENDBRANCH   9  15
ENDBRANCH   7   8
ENDBRANCH   3   7
BRANCH   1  17
HETATM   17  C   UNL     1      42.894 -12.360   5.882  1.00  0.00     0.127 C 
BRANCH  17  18
HETATM   18  N   UNL     1      42.560 -11.527   7.041  1.00  0.00    -0.376 N 
HETATM   19  H   UNL     1      41.707 -11.812   7.514  1.00  0.00     0.161 HD
BRANCH  18  20
HETATM   20  C   UNL     1      43.549 -10.948   7.819  1.00  0.00     0.100 A 
HETATM   21  C   UNL     1      44.903 -10.902   7.462  1.00  0.00     0.048 A 
HETATM   22  C   UNL     1      45.836 -10.304   8.308  1.00  0.00     0.005 A 
HETATM   23  C   UNL     1      45.414  -9.738   9.502  1.00  0.00     0.017 A 
HETATM   24  C   UNL     1      44.065  -9.770   9.811  1.00  0.00     0.089 A 
HETATM   25  N   UNL     1      43.194 -10.353   8.973  1.00  0.00    -0.353 N 
HETATM   26  H   UNL     1      42.211 -10.344   9.228  1.00  0.00     0.166 HD
ENDBRANCH  18  20
ENDBRANCH  17  18
ENDBRANCH   1  17
TORSDOF 6
ENDMDL
MODEL 8
REMARK VINA RESULT:      -6.9      4.035      7.685
REMARK  6 active torsions:
REMARK  status: ('A' for Active; 'I' for Inactive)
REMARK    1  A    between atoms: C_3  and  N_4 
REMARK    2  A    between atoms: N_4  and  C_5 
REMARK    3  A    between atoms: C_5  and  C_6 
REMARK    4  A    between atoms: N_8  and  C_10 
REMARK    5  A    between atoms: C_10  and  C_11 
REMARK    6  A    between atoms: C_12  and  O_13 
ROOT
HETATM    1  C   UNL     1      41.214 -16.429   3.030  1.00  0.00     0.031 C 
HETATM    2  C   UNL     1      40.746 -15.640   4.255  1.00  0.00     0.241 C 
HETATM    3  N   UNL     1      40.180 -14.355   3.708  1.00  0.00    -0.067 N 
HETATM    4  H   UNL     1      39.234 -14.220   4.114  1.00  0.00     0.280 HD
HETATM    5  C   UNL     1      40.002 -14.508   2.217  1.00  0.00     0.235 C 
HETATM    6  C   UNL     1      40.202 -15.994   1.971  1.00  0.00     0.035 C 
ENDROOT
BRANCH   3   7
HETATM    7  C   UNL     1      40.902 -13.104   4.143  1.00  0.00     0.276 C 
BRANCH   7   8
HETATM    8  C   UNL     1      39.979 -12.015   4.608  1.00  0.00     0.002 A 
HETATM    9  C   UNL     1      39.485 -12.003   5.919  1.00  0.00     0.073 A 
HETATM   10  C   UNL     1      38.646 -10.987   6.368  1.00  0.00     0.038 A 
HETATM   11  C   UNL     1      38.282  -9.961   5.494  1.00  0.00     0.022 A 
HETATM   12  C   UNL     1      38.762  -9.959   4.188  1.00  0.00     0.011 A 
HETATM   13 BR   UNL     1      38.259  -8.580   2.999  1.00  0.00    -0.051 Br
HETATM   14  C   UNL     1      39.611 -10.974   3.742  1.00  0.00     0.030 A 
BRANCH   9  15
HETATM   15  O   UNL     1      39.830 -13.040   6.744  1.00  0.00    -0.360 OA
HETATM   16  H   UNL     1      40.563 -12.732   7.317  1.00  0.00     0.217 HD
ENDBRANCH   9  15
ENDBRANCH   7   8
ENDBRANCH   3   7
BRANCH   1  17
HETATM   17  C   UNL     1      42.675 -16.111   2.662  1.00  0.00     0.127 C 
BRANCH  17  18
HETATM   18  N   UNL     1      43.358 -17.307   2.161  1.00  0.00    -0.376 N 
HETATM   19  H   UNL     1      44.048 -17.111   1.442  1.00  0.00     0.161 HD
BRANCH  18  20
HETATM   20  C   UNL     1      43.599 -18.394   2.986  1.00  0.00     0.100 A 
HETATM   21  C   UNL     1      43.919 -18.293   4.347  1.00  0.00     0.048 A 
HETATM   22  C   UNL     1      44.152 -19.440   5.104  1.00  0.00     0.005 A 
HETATM   23  C   UNL     1      44.051 -20.688   4.506  1.00  0.00     0.017 A 
HETATM   24  C   UNL     1      43.701 -20.757   3.169  1.00  0.00     0.089 A 
HETATM   25  N   UNL     1      43.482 -19.632   2.470  1.00  0.00    -0.353 N 
HETATM   26  H   UNL     1      43.214 -19.724   1.494  1.00  0.00     0.166 HD
ENDBRANCH  18  20
ENDBRANCH  17  18
ENDBRANCH   1  17
TORSDOF 6
ENDMDL
MODEL 9
REMARK VINA RESULT:      -6.7      4.208      7.424
REMARK  6 active torsions:
REMARK  status: ('A' for Active; 'I' for Inactive)
REMARK    1  A    between atoms: C_3  and  N_4 
REMARK    2  A    between atoms: N_4  and  C_5 
REMARK    3  A    between atoms: C_5  and  C_6 
REMARK    4  A    between atoms: N_8  and  C_10 
REMARK    5  A    between atoms: C_10  and  C_11 
REMARK    6  A    between atoms: C_12  and  O_13 
ROOT
HETATM    1  C   UNL     1      41.643 -11.625   5.120  1.00  0.00     0.031 C 
HETATM    2  C   UNL     1      41.318 -12.807   4.205  1.00  0.00     0.241 C 
HETATM    3  N   UNL     1      40.062 -13.416   4.774  1.00  0.00    -0.067 N 
HETATM    4  H   UNL     1      39.373 -13.514   4.003  1.00  0.00     0.280 HD
HETATM    5  C   UNL     1      39.472 -12.449   5.771  1.00  0.00     0.235 C 
HETATM    6  C   UNL     1      40.250 -11.163   5.547  1.00  0.00     0.035 C 
ENDROOT
BRANCH   3   7
HETATM    7  C   UNL     1      40.207 -14.836   5.264  1.00  0.00     0.276 C 
BRANCH   7   8
HETATM    8  C   UNL     1      40.947 -15.724   4.305  1.00  0.00     0.002 A 
HETATM    9  C   UNL     1      40.507 -15.876   2.983  1.00  0.00     0.073 A 
HETATM   10  C   UNL     1      41.196 -16.679   2.079  1.00  0.00     0.038 A 
HETATM   11  C   UNL     1      42.346 -17.353   2.496  1.00  0.00     0.022 A 
HETATM   12  C   UNL     1      42.794 -17.214   3.807  1.00  0.00     0.011 A 
HETATM   13 BR   UNL     1      44.340 -18.137   4.379  1.00  0.00    -0.051 Br
HETATM   14  C   UNL     1      42.107 -16.401   4.710  1.00  0.00     0.030 A 
BRANCH   9  15
HETATM   15  O   UNL     1      39.358 -15.231   2.610  1.00  0.00    -0.360 OA
HETATM   16  H   UNL     1      39.014 -15.678   1.809  1.00  0.00     0.217 HD
ENDBRANCH   9  15
ENDBRANCH   7   8
ENDBRANCH   3   7
BRANCH   1  17
HETATM   17  C   UNL     1      42.549 -12.037   6.296  1.00  0.00     0.127 C 
BRANCH  17  18
HETATM   18  N   UNL     1      42.620 -10.969   7.298  1.00  0.00    -0.376 N 
HETATM   19  H   UNL     1      41.941 -11.068   8.048  1.00  0.00     0.161 HD
BRANCH  18  20
HETATM   20  C   UNL     1      43.824 -10.361   7.615  1.00  0.00     0.100 A 
HETATM   21  C   UNL     1      43.933  -9.111   8.239  1.00  0.00     0.048 A 
HETATM   22  C   UNL     1      45.187  -8.568   8.517  1.00  0.00     0.005 A 
HETATM   23  C   UNL     1      46.330  -9.281   8.186  1.00  0.00     0.017 A 
HETATM   24  C   UNL     1      46.190 -10.527   7.601  1.00  0.00     0.089 A 
HETATM   25  N   UNL     1      44.967 -11.020   7.349  1.00  0.00    -0.353 N 
HETATM   26  H   UNL     1      44.905 -11.944   6.931  1.00  0.00     0.166 HD
ENDBRANCH  18  20
ENDBRANCH  17  18
ENDBRANCH   1  17
TORSDOF 6
ENDMDL
MODEL 10
REMARK VINA RESULT:      -6.7      5.791      8.042
REMARK  6 active torsions:
REMARK  status: ('A' for Active; 'I' for Inactive)
REMARK    1  A    between atoms: C_3  and  N_4 
REMARK    2  A    between atoms: N_4  and  C_5 
REMARK    3  A    between atoms: C_5  and  C_6 
REMARK    4  A    between atoms: N_8  and  C_10 
REMARK    5  A    between atoms: C_10  and  C_11 
REMARK    6  A    between atoms: C_12  and  O_13 
ROOT
HETATM    1  C   UNL     1      42.092 -16.241   6.027  1.00  0.00     0.031 C 
HETATM    2  C   UNL     1      43.055 -15.351   6.816  1.00  0.00     0.241 C 
HETATM    3  N   UNL     1      42.437 -13.977   6.790  1.00  0.00    -0.067 N 
HETATM    4  H   UNL     1      42.396 -13.622   7.765  1.00  0.00     0.280 HD
HETATM    5  C   UNL     1      41.013 -14.102   6.307  1.00  0.00     0.235 C 
HETATM    6  C   UNL     1      40.741 -15.597   6.337  1.00  0.00     0.035 C 
ENDROOT
BRANCH   3   7
HETATM    7  C   UNL     1      43.261 -12.921   6.095  1.00  0.00     0.276 C 
BRANCH   7   8
HETATM    8  C   UNL     1      43.238 -11.592   6.794  1.00  0.00     0.002 A 
HETATM    9  C   UNL     1      42.385 -10.568   6.361  1.00  0.00     0.073 A 
HETATM   10  C   UNL     1      42.340  -9.340   7.014  1.00  0.00     0.038 A 
HETATM   11  C   UNL     1      43.164  -9.118   8.119  1.00  0.00     0.022 A 
HETATM   12  C   UNL     1      44.019 -10.125   8.560  1.00  0.00     0.011 A 
HETATM   13 BR   UNL     1      45.147  -9.823  10.045  1.00  0.00    -0.051 Br
HETATM   14  C   UNL     1      44.056 -11.359   7.909  1.00  0.00     0.030 A 
BRANCH   9  15
HETATM   15  O   UNL     1      41.613 -10.800   5.254  1.00  0.00    -0.360 OA
HETATM   16  H   UNL     1      41.371 -11.749   5.255  1.00  0.00     0.217 HD
ENDBRANCH   9  15
ENDBRANCH   7   8
ENDBRANCH   3   7
BRANCH   1  17
HETATM   17  C   UNL     1      42.435 -16.273   4.526  1.00  0.00     0.127 C 
BRANCH  17  18
HETATM   18  N   UNL     1      43.716 -16.950   4.298  1.00  0.00    -0.376 N 
HETATM   19  H   UNL     1      44.508 -16.478   4.727  1.00  0.00     0.161 HD
BRANCH  18  20
HETATM   20  C   UNL     1      43.789 -18.328   4.186  1.00  0.00     0.100 A 
HETATM   21  C   UNL     1      43.957 -19.198   5.272  1.00  0.00     0.048 A 
HETATM   22  C   UNL     1      44.027 -20.576   5.069  1.00  0.00     0.005 A 
HETATM   23  C   UNL     1      43.913 -21.085   3.783  1.00  0.00     0.017 A 
HETATM   24  C   UNL     1      43.714 -20.203   2.735  1.00  0.00     0.089 A 
HETATM   25  N   UNL     1      43.651 -18.882   2.967  1.00  0.00    -0.353 N 
HETATM   26  H   UNL     1      43.490 -18.268   2.174  1.00  0.00     0.166 HD
ENDBRANCH  18  20
ENDBRANCH  17  18
ENDBRANCH   1  17
TORSDOF 6
ENDMDL
