MODEL 1
REMARK VINA RESULT:      -9.3      0.000      0.000
REMARK  5 active torsions:
REMARK  status: ('A' for Active; 'I' for Inactive)
REMARK    1  A    between atoms: C_2  and  O_4 
REMARK    2  A    between atoms: O_4  and  C_5 
REMARK    3  A    between atoms: C_10  and  C_11 
REMARK    4  A    between atoms: C_13  and  N_14 
REMARK    5  A    between atoms: N_14  and  C_15 
ROOT
HETATM    1  C   UNL     1      40.601 -13.880   1.043  1.00  0.00     0.164 A 
HETATM    2  N   UNL     1      41.752 -14.500   1.333  1.00  0.00    -0.215 NA
HETATM    3  C   UNL     1      42.122 -14.571   2.623  1.00  0.00     0.122 A 
HETATM    4  C   UNL     1      41.378 -13.946   3.643  1.00  0.00     0.033 A 
HETATM    5  C   UNL     1      41.740 -13.890   5.016  1.00  0.00     0.017 A 
HETATM    6  C   UNL     1      40.916 -13.265   5.949  1.00  0.00     0.001 A 
HETATM    7  C   UNL     1      39.726 -12.688   5.529  1.00  0.00     0.002 A 
HETATM    8  C   UNL     1      39.376 -12.732   4.177  1.00  0.00     0.032 A 
HETATM    9  C   UNL     1      40.183 -13.344   3.226  1.00  0.00     0.072 A 
HETATM   10  N   UNL     1      39.784 -13.327   1.953  1.00  0.00    -0.228 NA
ENDROOT
BRANCH   3  11
HETATM   11  N   UNL     1      43.342 -15.235   2.954  1.00  0.00    -0.243 NA
HETATM   12  H   UNL     1      43.797 -14.687   3.681  1.00  0.00     0.135 HD
BRANCH  11  13
HETATM   13  C   UNL     1      43.463 -16.597   3.349  1.00  0.00     0.015 A 
HETATM   14  C   UNL     1      43.832 -16.970   4.648  1.00  0.00     0.026 A 
HETATM   15  C   UNL     1      44.039 -18.308   5.006  1.00  0.00     0.034 A 
HETATM   16  C   UNL     1      43.895 -19.262   3.999  1.00  0.00     0.061 A 
HETATM   17  N   UNL     1      44.018 -20.626   4.010  1.00  0.00    -0.278 N 
HETATM   18  C   UNL     1      43.571 -18.932   2.689  1.00  0.00     0.013 A 
HETATM   19  H   UNL     1      44.244 -21.218   4.801  1.00  0.00     0.189 HD
HETATM   20  N   UNL     1      43.811 -21.206   2.814  1.00  0.00    -0.186 NA
HETATM   21  C   UNL     1      43.536 -20.172   2.013  1.00  0.00     0.152 A 
HETATM   22  C   UNL     1      43.372 -17.582   2.350  1.00  0.00     0.039 A 
ENDBRANCH  11  13
ENDBRANCH   3  11
BRANCH   1  23
HETATM   23  C   UNL     1      40.174 -13.842  -0.363  1.00  0.00     0.046 A 
HETATM   24  C   UNL     1      40.469 -12.769  -1.224  1.00  0.00     0.093 A 
HETATM   25  C   UNL     1      40.032 -12.738  -2.554  1.00  0.00     0.038 A 
HETATM   26  C   UNL     1      39.312 -13.813  -3.067  1.00  0.00     0.003 A 
HETATM   27  C   UNL     1      39.011 -14.898  -2.247  1.00  0.00     0.001 A 
HETATM   28  C   UNL     1      39.432 -14.907  -0.912  1.00  0.00     0.018 A 
BRANCH  24  29
HETATM   29  O   UNL     1      41.111 -11.628  -0.714  1.00  0.00    -0.278 OA
BRANCH  29  30
HETATM   30  C   UNL     1      40.293 -10.508  -0.604  1.00  0.00     0.260 C 
HETATM   31  C   UNL     1      40.965  -9.359  -1.295  1.00  0.00     0.126 C 
HETATM   32  O   UNL     1      39.230 -10.428  -0.002  1.00  0.00    -0.265 OA
ENDBRANCH  29  30
ENDBRANCH  24  29
ENDBRANCH   1  23
TORSDOF 5
ENDMDL
MODEL 2
REMARK VINA RESULT:      -9.1      3.109      7.174
REMARK  5 active torsions:
REMARK  status: ('A' for Active; 'I' for Inactive)
REMARK    1  A    between atoms: C_2  and  O_4 
REMARK    2  A    between atoms: O_4  and  C_5 
REMARK    3  A    between atoms: C_10  and  C_11 
REMARK    4  A    between atoms: C_13  and  N_14 
REMARK    5  A    between atoms: N_14  and  C_15 
ROOT
HETATM    1  C   UNL     1      42.924 -16.235   5.504  1.00  0.00     0.164 A 
HETATM    2  N   UNL     1      41.828 -15.907   4.808  1.00  0.00    -0.215 NA
HETATM    3  C   UNL     1      41.467 -14.613   4.775  1.00  0.00     0.122 A 
HETATM    4  C   UNL     1      42.158 -13.630   5.511  1.00  0.00     0.033 A 
HETATM    5  C   UNL     1      41.794 -12.261   5.610  1.00  0.00     0.017 A 
HETATM    6  C   UNL     1      42.564 -11.366   6.349  1.00  0.00     0.001 A 
HETATM    7  C   UNL     1      43.702 -11.822   6.999  1.00  0.00     0.002 A 
HETATM    8  C   UNL     1      44.053 -13.172   6.913  1.00  0.00     0.032 A 
HETATM    9  C   UNL     1      43.298 -14.085   6.187  1.00  0.00     0.072 A 
HETATM   10  N   UNL     1      43.693 -15.360   6.170  1.00  0.00    -0.228 NA
ENDROOT
BRANCH   3  11
HETATM   11  N   UNL     1      40.306 -14.241   4.031  1.00  0.00    -0.243 NA
HETATM   12  H   UNL     1      40.006 -13.330   4.373  1.00  0.00     0.135 HD
BRANCH  11  13
HETATM   13  C   UNL     1      40.216 -14.181   2.612  1.00  0.00     0.015 A 
HETATM   14  C   UNL     1      39.875 -15.296   1.835  1.00  0.00     0.026 A 
HETATM   15  C   UNL     1      39.879 -15.255   0.435  1.00  0.00     0.034 A 
HETATM   16  C   UNL     1      40.273 -14.058  -0.162  1.00  0.00     0.061 A 
HETATM   17  N   UNL     1      40.381 -13.686  -1.475  1.00  0.00    -0.278 N 
HETATM   18  C   UNL     1      40.659 -12.942   0.570  1.00  0.00     0.013 A 
HETATM   19  H   UNL     1      40.177 -14.248  -2.294  1.00  0.00     0.189 HD
HETATM   20  N   UNL     1      40.815 -12.425  -1.655  1.00  0.00    -0.186 NA
HETATM   21  C   UNL     1      40.980 -11.975  -0.408  1.00  0.00     0.152 A 
HETATM   22  C   UNL     1      40.652 -13.006   1.975  1.00  0.00     0.039 A 
ENDBRANCH  11  13
ENDBRANCH   3  11
BRANCH   1  23
HETATM   23  C   UNL     1      43.345 -17.644   5.504  1.00  0.00     0.046 A 
HETATM   24  C   UNL     1      44.057 -18.229   4.442  1.00  0.00     0.093 A 
HETATM   25  C   UNL     1      44.428 -19.580   4.448  1.00  0.00     0.038 A 
HETATM   26  C   UNL     1      44.122 -20.372   5.550  1.00  0.00     0.003 A 
HETATM   27  C   UNL     1      43.427 -19.824   6.626  1.00  0.00     0.001 A 
HETATM   28  C   UNL     1      43.040 -18.479   6.598  1.00  0.00     0.018 A 
BRANCH  24  29
HETATM   29  O   UNL     1      44.300 -17.484   3.276  1.00  0.00    -0.278 OA
BRANCH  29  30
HETATM   30  C   UNL     1      43.277 -17.537   2.336  1.00  0.00     0.260 C 
HETATM   31  C   UNL     1      43.288 -16.262   1.547  1.00  0.00     0.126 C 
HETATM   32  O   UNL     1      42.454 -18.433   2.191  1.00  0.00    -0.265 OA
ENDBRANCH  29  30
ENDBRANCH  24  29
ENDBRANCH   1  23
TORSDOF 5
ENDMDL
MODEL 3
REMARK VINA RESULT:      -8.8      3.562      7.279
REMARK  5 active torsions:
REMARK  status: ('A' for Active; 'I' for Inactive)
REMARK    1  A    between atoms: C_2  and  O_4 
REMARK    2  A    between atoms: O_4  and  C_5 
REMARK    3  A    between atoms: C_10  and  C_11 
REMARK    4  A    between atoms: C_13  and  N_14 
REMARK    5  A    between atoms: N_14  and  C_15 
ROOT
HETATM    1  C   UNL     1      42.517 -15.449   2.515  1.00  0.00     0.164 A 
HETATM    2  N   UNL     1      42.945 -14.280   3.009  1.00  0.00    -0.215 NA
HETATM    3  C   UNL     1      42.424 -13.151   2.499  1.00  0.00     0.122 A 
HETATM    4  C   UNL     1      41.519 -13.174   1.420  1.00  0.00     0.033 A 
HETATM    5  C   UNL     1      40.991 -12.033   0.758  1.00  0.00     0.017 A 
HETATM    6  C   UNL     1      40.080 -12.168  -0.286  1.00  0.00     0.001 A 
HETATM    7  C   UNL     1      39.685 -13.437  -0.686  1.00  0.00     0.002 A 
HETATM    8  C   UNL     1      40.214 -14.560  -0.043  1.00  0.00     0.032 A 
HETATM    9  C   UNL     1      41.128 -14.451   0.997  1.00  0.00     0.072 A 
HETATM   10  N   UNL     1      41.598 -15.574   1.545  1.00  0.00    -0.228 NA
ENDROOT
BRANCH   3  11
HETATM   11  N   UNL     1      42.862 -11.895   3.019  1.00  0.00    -0.243 NA
HETATM   12  H   UNL     1      42.247 -11.179   2.637  1.00  0.00     0.135 HD
BRANCH  11  13
HETATM   13  C   UNL     1      43.026 -11.582   4.397  1.00  0.00     0.015 A 
HETATM   14  C   UNL     1      41.990 -11.045   5.173  1.00  0.00     0.026 A 
HETATM   15  C   UNL     1      42.185 -10.652   6.503  1.00  0.00     0.034 A 
HETATM   16  C   UNL     1      43.473 -10.788   7.021  1.00  0.00     0.061 A 
HETATM   17  N   UNL     1      43.992 -10.510   8.257  1.00  0.00    -0.278 N 
HETATM   18  C   UNL     1      44.538 -11.277   6.275  1.00  0.00     0.013 A 
HETATM   19  H   UNL     1      43.501 -10.140   9.063  1.00  0.00     0.189 HD
HETATM   20  N   UNL     1      45.308 -10.769   8.371  1.00  0.00    -0.186 NA
HETATM   21  C   UNL     1      45.635 -11.239   7.163  1.00  0.00     0.152 A 
HETATM   22  C   UNL     1      44.322 -11.661   4.939  1.00  0.00     0.039 A 
ENDBRANCH  11  13
ENDBRANCH   3  11
BRANCH   1  23
HETATM   23  C   UNL     1      43.053 -16.685   3.104  1.00  0.00     0.046 A 
HETATM   24  C   UNL     1      43.232 -16.858   4.488  1.00  0.00     0.093 A 
HETATM   25  C   UNL     1      43.768 -18.033   5.029  1.00  0.00     0.038 A 
HETATM   26  C   UNL     1      44.103 -19.088   4.186  1.00  0.00     0.003 A 
HETATM   27  C   UNL     1      43.928 -18.957   2.810  1.00  0.00     0.001 A 
HETATM   28  C   UNL     1      43.415 -17.768   2.278  1.00  0.00     0.018 A 
BRANCH  24  29
HETATM   29  O   UNL     1      42.992 -15.781   5.358  1.00  0.00    -0.278 OA
BRANCH  29  30
HETATM   30  C   UNL     1      42.021 -16.027   6.322  1.00  0.00     0.260 C 
HETATM   31  C   UNL     1      40.685 -16.104   5.644  1.00  0.00     0.126 C 
HETATM   32  O   UNL     1      42.188 -16.111   7.533  1.00  0.00    -0.265 OA
ENDBRANCH  29  30
ENDBRANCH  24  29
ENDBRANCH   1  23
TORSDOF 5
ENDMDL
MODEL 4
REMARK VINA RESULT:      -8.7      4.304      7.768
REMARK  5 active torsions:
REMARK  status: ('A' for Active; 'I' for Inactive)
REMARK    1  A    between atoms: C_2  and  O_4 
REMARK    2  A    between atoms: O_4  and  C_5 
REMARK    3  A    between atoms: C_10  and  C_11 
REMARK    4  A    between atoms: C_13  and  N_14 
REMARK    5  A    between atoms: N_14  and  C_15 
ROOT
HETATM    1  C   UNL     1      42.160 -15.304   3.976  1.00  0.00     0.164 A 
HETATM    2  N   UNL     1      42.502 -14.666   5.103  1.00  0.00    -0.215 NA
HETATM    3  C   UNL     1      41.887 -13.503   5.380  1.00  0.00     0.122 A 
HETATM    4  C   UNL     1      40.971 -12.917   4.485  1.00  0.00     0.033 A 
HETATM    5  C   UNL     1      40.346 -11.652   4.650  1.00  0.00     0.017 A 
HETATM    6  C   UNL     1      39.433 -11.176   3.712  1.00  0.00     0.001 A 
HETATM    7  C   UNL     1      39.134 -11.949   2.600  1.00  0.00     0.002 A 
HETATM    8  C   UNL     1      39.759 -13.187   2.430  1.00  0.00     0.032 A 
HETATM    9  C   UNL     1      40.676 -13.682   3.348  1.00  0.00     0.072 A 
HETATM   10  N   UNL     1      41.240 -14.866   3.103  1.00  0.00    -0.228 NA
ENDROOT
BRANCH   3  11
HETATM   11  N   UNL     1      42.232 -12.811   6.581  1.00  0.00    -0.243 NA
HETATM   12  H   UNL     1      42.294 -13.506   7.323  1.00  0.00     0.135 HD
BRANCH  11  13
HETATM   13  C   UNL     1      43.353 -11.951   6.748  1.00  0.00     0.015 A 
HETATM   14  C   UNL     1      44.650 -12.330   6.377  1.00  0.00     0.026 A 
HETATM   15  C   UNL     1      45.763 -11.517   6.629  1.00  0.00     0.034 A 
HETATM   16  C   UNL     1      45.530 -10.317   7.302  1.00  0.00     0.061 A 
HETATM   17  N   UNL     1      46.374  -9.312   7.691  1.00  0.00    -0.278 N 
HETATM   18  C   UNL     1      44.267  -9.923   7.724  1.00  0.00     0.013 A 
HETATM   19  H   UNL     1      47.376  -9.258   7.546  1.00  0.00     0.189 HD
HETATM   20  N   UNL     1      45.764  -8.304   8.340  1.00  0.00    -0.186 NA
HETATM   21  C   UNL     1      44.481  -8.678   8.355  1.00  0.00     0.152 A 
HETATM   22  C   UNL     1      43.164 -10.756   7.465  1.00  0.00     0.039 A 
ENDBRANCH  11  13
ENDBRANCH   3  11
BRANCH   1  23
HETATM   23  C   UNL     1      42.800 -16.597   3.695  1.00  0.00     0.046 A 
HETATM   24  C   UNL     1      43.680 -17.227   4.593  1.00  0.00     0.093 A 
HETATM   25  C   UNL     1      44.300 -18.448   4.298  1.00  0.00     0.038 A 
HETATM   26  C   UNL     1      44.017 -19.089   3.096  1.00  0.00     0.003 A 
HETATM   27  C   UNL     1      43.141 -18.501   2.187  1.00  0.00     0.001 A 
HETATM   28  C   UNL     1      42.546 -17.269   2.482  1.00  0.00     0.018 A 
BRANCH  24  29
HETATM   29  O   UNL     1      44.060 -16.564   5.772  1.00  0.00    -0.278 OA
BRANCH  29  30
HETATM   30  C   UNL     1      43.546 -17.123   6.937  1.00  0.00     0.260 C 
HETATM   31  C   UNL     1      43.347 -16.028   7.943  1.00  0.00     0.126 C 
HETATM   32  O   UNL     1      43.338 -18.310   7.156  1.00  0.00    -0.265 OA
ENDBRANCH  29  30
ENDBRANCH  24  29
ENDBRANCH   1  23
TORSDOF 5
ENDMDL
MODEL 5
REMARK VINA RESULT:      -8.6      3.070      7.623
REMARK  5 active torsions:
REMARK  status: ('A' for Active; 'I' for Inactive)
REMARK    1  A    between atoms: C_2  and  O_4 
REMARK    2  A    between atoms: O_4  and  C_5 
REMARK    3  A    between atoms: C_10  and  C_11 
REMARK    4  A    between atoms: C_13  and  N_14 
REMARK    5  A    between atoms: N_14  and  C_15 
ROOT
HETATM    1  C   UNL     1      41.947 -15.636   2.957  1.00  0.00     0.164 A 
HETATM    2  N   UNL     1      41.866 -15.074   1.745  1.00  0.00    -0.215 NA
HETATM    3  C   UNL     1      41.243 -13.888   1.640  1.00  0.00     0.122 A 
HETATM    4  C   UNL     1      40.614 -13.280   2.744  1.00  0.00     0.033 A 
HETATM    5  C   UNL     1      39.856 -12.079   2.707  1.00  0.00     0.017 A 
HETATM    6  C   UNL     1      39.295 -11.551   3.868  1.00  0.00     0.001 A 
HETATM    7  C   UNL     1      39.479 -12.209   5.074  1.00  0.00     0.002 A 
HETATM    8  C   UNL     1      40.214 -13.398   5.108  1.00  0.00     0.032 A 
HETATM    9  C   UNL     1      40.778 -13.948   3.965  1.00  0.00     0.072 A 
HETATM   10  N   UNL     1      41.451 -15.095   4.081  1.00  0.00    -0.228 NA
ENDROOT
BRANCH   3  11
HETATM   11  N   UNL     1      41.154 -13.268   0.356  1.00  0.00    -0.243 NA
HETATM   12  H   UNL     1      41.965 -13.568  -0.181  1.00  0.00     0.135 HD
BRANCH  11  13
HETATM   13  C   UNL     1      40.041 -13.350  -0.528  1.00  0.00     0.015 A 
HETATM   14  C   UNL     1      39.787 -14.485  -1.310  1.00  0.00     0.026 A 
HETATM   15  C   UNL     1      38.746 -14.524  -2.246  1.00  0.00     0.034 A 
HETATM   16  C   UNL     1      37.984 -13.365  -2.393  1.00  0.00     0.061 A 
HETATM   17  N   UNL     1      36.914 -13.074  -3.196  1.00  0.00    -0.278 N 
HETATM   18  C   UNL     1      38.228 -12.205  -1.668  1.00  0.00     0.013 A 
HETATM   19  H   UNL     1      36.456 -13.688  -3.860  1.00  0.00     0.189 HD
HETATM   20  N   UNL     1      36.450 -11.818  -3.059  1.00  0.00    -0.186 NA
HETATM   21  C   UNL     1      37.250 -11.294  -2.126  1.00  0.00     0.152 A 
HETATM   22  C   UNL     1      39.281 -12.185  -0.738  1.00  0.00     0.039 A 
ENDBRANCH  11  13
ENDBRANCH   3  11
BRANCH   1  23
HETATM   23  C   UNL     1      42.668 -16.911   3.080  1.00  0.00     0.046 A 
HETATM   24  C   UNL     1      43.609 -17.163   4.094  1.00  0.00     0.093 A 
HETATM   25  C   UNL     1      44.305 -18.375   4.181  1.00  0.00     0.038 A 
HETATM   26  C   UNL     1      44.041 -19.387   3.263  1.00  0.00     0.003 A 
HETATM   27  C   UNL     1      43.106 -19.178   2.252  1.00  0.00     0.001 A 
HETATM   28  C   UNL     1      42.435 -17.953   2.160  1.00  0.00     0.018 A 
BRANCH  24  29
HETATM   29  O   UNL     1      43.967 -16.133   4.979  1.00  0.00    -0.278 OA
BRANCH  29  30
HETATM   30  C   UNL     1      43.981 -16.504   6.320  1.00  0.00     0.260 C 
HETATM   31  C   UNL     1      42.567 -16.744   6.761  1.00  0.00     0.126 C 
HETATM   32  O   UNL     1      44.957 -16.573   7.056  1.00  0.00    -0.265 OA
ENDBRANCH  29  30
ENDBRANCH  24  29
ENDBRANCH   1  23
TORSDOF 5
ENDMDL
MODEL 6
REMARK VINA RESULT:      -8.5     14.988     17.207
REMARK  5 active torsions:
REMARK  status: ('A' for Active; 'I' for Inactive)
REMARK    1  A    between atoms: C_2  and  O_4 
REMARK    2  A    between atoms: O_4  and  C_5 
REMARK    3  A    between atoms: C_10  and  C_11 
REMARK    4  A    between atoms: C_13  and  N_14 
REMARK    5  A    between atoms: N_14  and  C_15 
ROOT
HETATM    1  C   UNL     1      46.763 -29.910   2.097  1.00  0.00     0.164 A 
HETATM    2  N   UNL     1      46.414 -29.158   1.046  1.00  0.00    -0.215 NA
HETATM    3  C   UNL     1      45.107 -29.063   0.745  1.00  0.00     0.122 A 
HETATM    4  C   UNL     1      44.129 -29.791   1.451  1.00  0.00     0.033 A 
HETATM    5  C   UNL     1      42.742 -29.824   1.146  1.00  0.00     0.017 A 
HETATM    6  C   UNL     1      41.855 -30.561   1.927  1.00  0.00     0.001 A 
HETATM    7  C   UNL     1      42.335 -31.273   3.016  1.00  0.00     0.002 A 
HETATM    8  C   UNL     1      43.702 -31.251   3.308  1.00  0.00     0.032 A 
HETATM    9  C   UNL     1      44.607 -30.528   2.542  1.00  0.00     0.072 A 
HETATM   10  N   UNL     1      45.898 -30.574   2.878  1.00  0.00    -0.228 NA
ENDROOT
BRANCH   3  11
HETATM   11  N   UNL     1      44.714 -28.259  -0.368  1.00  0.00    -0.243 NA
HETATM   12  H   UNL     1      45.198 -27.367  -0.283  1.00  0.00     0.135 HD
BRANCH  11  13
HETATM   13  C   UNL     1      44.812 -28.635  -1.737  1.00  0.00     0.015 A 
HETATM   14  C   UNL     1      45.074 -27.705  -2.752  1.00  0.00     0.026 A 
HETATM   15  C   UNL     1      45.078 -28.065  -4.106  1.00  0.00     0.034 A 
HETATM   16  C   UNL     1      44.774 -29.392  -4.409  1.00  0.00     0.061 A 
HETATM   17  N   UNL     1      44.699 -30.061  -5.601  1.00  0.00    -0.278 N 
HETATM   18  C   UNL     1      44.469 -30.336  -3.436  1.00  0.00     0.013 A 
HETATM   19  H   UNL     1      44.864 -29.688  -6.529  1.00  0.00     0.189 HD
HETATM   20  N   UNL     1      44.359 -31.358  -5.483  1.00  0.00    -0.186 NA
HETATM   21  C   UNL     1      44.223 -31.522  -4.164  1.00  0.00     0.152 A 
HETATM   22  C   UNL     1      44.466 -29.953  -2.083  1.00  0.00     0.039 A 
ENDBRANCH  11  13
ENDBRANCH   3  11
BRANCH   1  23
HETATM   23  C   UNL     1      48.188 -29.978   2.453  1.00  0.00     0.046 A 
HETATM   24  C   UNL     1      49.194 -30.300   1.524  1.00  0.00     0.093 A 
HETATM   25  C   UNL     1      50.544 -30.385   1.888  1.00  0.00     0.038 A 
HETATM   26  C   UNL     1      50.923 -30.108   3.198  1.00  0.00     0.003 A 
HETATM   27  C   UNL     1      49.955 -29.775   4.142  1.00  0.00     0.001 A 
HETATM   28  C   UNL     1      48.605 -29.717   3.774  1.00  0.00     0.018 A 
BRANCH  24  29
HETATM   29  O   UNL     1      48.838 -30.676   0.219  1.00  0.00    -0.278 OA
BRANCH  29  30
HETATM   30  C   UNL     1      49.483 -29.957  -0.783  1.00  0.00     0.260 C 
HETATM   31  C   UNL     1      48.449 -29.217  -1.579  1.00  0.00     0.126 C 
HETATM   32  O   UNL     1      50.682 -29.955  -1.034  1.00  0.00    -0.265 OA
ENDBRANCH  29  30
ENDBRANCH  24  29
ENDBRANCH   1  23
TORSDOF 5
ENDMDL
MODEL 7
REMARK VINA RESULT:      -8.5      2.637      5.520
REMARK  5 active torsions:
REMARK  status: ('A' for Active; 'I' for Inactive)
REMARK    1  A    between atoms: C_2  and  O_4 
REMARK    2  A    between atoms: O_4  and  C_5 
REMARK    3  A    between atoms: C_10  and  C_11 
REMARK    4  A    between atoms: C_13  and  N_14 
REMARK    5  A    between atoms: N_14  and  C_15 
ROOT
HETATM    1  C   UNL     1      41.019 -14.804   1.855  1.00  0.00     0.164 A 
HETATM    2  N   UNL     1      40.824 -14.363   3.104  1.00  0.00    -0.215 NA
HETATM    3  C   UNL     1      41.474 -14.986   4.102  1.00  0.00     0.122 A 
HETATM    4  C   UNL     1      42.274 -16.122   3.870  1.00  0.00     0.033 A 
HETATM    5  C   UNL     1      42.921 -16.896   4.870  1.00  0.00     0.017 A 
HETATM    6  C   UNL     1      43.711 -17.991   4.528  1.00  0.00     0.001 A 
HETATM    7  C   UNL     1      43.866 -18.329   3.192  1.00  0.00     0.002 A 
HETATM    8  C   UNL     1      43.219 -17.575   2.209  1.00  0.00     0.032 A 
HETATM    9  C   UNL     1      42.421 -16.482   2.524  1.00  0.00     0.072 A 
HETATM   10  N   UNL     1      41.825 -15.826   1.527  1.00  0.00    -0.228 NA
ENDROOT
BRANCH   3  11
HETATM   11  N   UNL     1      41.285 -14.524   5.440  1.00  0.00    -0.243 NA
HETATM   12  H   UNL     1      41.593 -15.268   6.063  1.00  0.00     0.135 HD
BRANCH  11  13
HETATM   13  C   UNL     1      41.807 -13.315   5.979  1.00  0.00     0.015 A 
HETATM   14  C   UNL     1      41.063 -12.127   6.014  1.00  0.00     0.026 A 
HETATM   15  C   UNL     1      41.613 -10.919   6.460  1.00  0.00     0.034 A 
HETATM   16  C   UNL     1      42.955 -10.937   6.841  1.00  0.00     0.061 A 
HETATM   17  N   UNL     1      43.779  -9.954   7.319  1.00  0.00    -0.278 N 
HETATM   18  C   UNL     1      43.739 -12.082   6.783  1.00  0.00     0.013 A 
HETATM   19  H   UNL     1      43.545  -8.984   7.495  1.00  0.00     0.189 HD
HETATM   20  N   UNL     1      45.037 -10.365   7.566  1.00  0.00    -0.186 NA
HETATM   21  C   UNL     1      45.007 -11.661   7.242  1.00  0.00     0.152 A 
HETATM   22  C   UNL     1      43.169 -13.284   6.328  1.00  0.00     0.039 A 
ENDBRANCH  11  13
ENDBRANCH   3  11
BRANCH   1  23
HETATM   23  C   UNL     1      40.344 -14.095   0.759  1.00  0.00     0.046 A 
HETATM   24  C   UNL     1      40.177 -12.699   0.739  1.00  0.00     0.093 A 
HETATM   25  C   UNL     1      39.508 -12.042  -0.302  1.00  0.00     0.038 A 
HETATM   26  C   UNL     1      39.020 -12.778  -1.378  1.00  0.00     0.003 A 
HETATM   27  C   UNL     1      39.176 -14.162  -1.397  1.00  0.00     0.001 A 
HETATM   28  C   UNL     1      39.825 -14.810  -0.339  1.00  0.00     0.018 A 
BRANCH  24  29
HETATM   29  O   UNL     1      40.575 -11.937   1.850  1.00  0.00    -0.278 OA
BRANCH  29  30
HETATM   30  C   UNL     1      41.726 -11.183   1.648  1.00  0.00     0.260 C 
HETATM   31  C   UNL     1      42.706 -11.509   2.736  1.00  0.00     0.126 C 
HETATM   32  O   UNL     1      41.914 -10.344   0.776  1.00  0.00    -0.265 OA
ENDBRANCH  29  30
ENDBRANCH  24  29
ENDBRANCH   1  23
TORSDOF 5
ENDMDL
MODEL 8
REMARK VINA RESULT:      -8.4      3.196      7.356
REMARK  5 active torsions:
REMARK  status: ('A' for Active; 'I' for Inactive)
REMARK    1  A    between atoms: C_2  and  O_4 
REMARK    2  A    between atoms: O_4  and  C_5 
REMARK    3  A    between atoms: C_10  and  C_11 
REMARK    4  A    between atoms: C_13  and  N_14 
REMARK    5  A    between atoms: N_14  and  C_15 
ROOT
HETATM    1  C   UNL     1      42.429 -15.305   3.342  1.00  0.00     0.164 A 
HETATM    2  N   UNL     1      41.236 -15.084   2.775  1.00  0.00    -0.215 NA
HETATM    3  C   UNL     1      40.784 -13.819   2.730  1.00  0.00     0.122 A 
HETATM    4  C   UNL     1      41.491 -12.757   3.327  1.00  0.00     0.033 A 
HETATM    5  C   UNL     1      41.048 -11.410   3.409  1.00  0.00     0.017 A 
HETATM    6  C   UNL     1      41.840 -10.430   4.003  1.00  0.00     0.001 A 
HETATM    7  C   UNL     1      43.078 -10.778   4.524  1.00  0.00     0.002 A 
HETATM    8  C   UNL     1      43.508 -12.106   4.456  1.00  0.00     0.032 A 
HETATM    9  C   UNL     1      42.735 -13.102   3.873  1.00  0.00     0.072 A 
HETATM   10  N   UNL     1      43.212 -14.348   3.864  1.00  0.00    -0.228 NA
ENDROOT
BRANCH   3  11
HETATM   11  N   UNL     1      39.517 -13.562   2.123  1.00  0.00    -0.243 NA
HETATM   12  H   UNL     1      39.080 -12.804   2.644  1.00  0.00     0.135 HD
BRANCH  11  13
HETATM   13  C   UNL     1      39.303 -13.271   0.746  1.00  0.00     0.015 A 
HETATM   14  C   UNL     1      38.772 -12.048   0.312  1.00  0.00     0.026 A 
HETATM   15  C   UNL     1      38.477 -11.803  -1.035  1.00  0.00     0.034 A 
HETATM   16  C   UNL     1      38.703 -12.846  -1.932  1.00  0.00     0.061 A 
HETATM   17  N   UNL     1      38.531 -12.936  -3.288  1.00  0.00    -0.278 N 
HETATM   18  C   UNL     1      39.189 -14.087  -1.539  1.00  0.00     0.013 A 
HETATM   19  H   UNL     1      38.193 -12.215  -3.915  1.00  0.00     0.189 HD
HETATM   20  N   UNL     1      38.855 -14.136  -3.804  1.00  0.00    -0.186 NA
HETATM   21  C   UNL     1      39.258 -14.832  -2.737  1.00  0.00     0.152 A 
HETATM   22  C   UNL     1      39.474 -14.314  -0.181  1.00  0.00     0.039 A 
ENDBRANCH  11  13
ENDBRANCH   3  11
BRANCH   1  23
HETATM   23  C   UNL     1      42.943 -16.682   3.352  1.00  0.00     0.046 A 
HETATM   24  C   UNL     1      43.642 -17.230   4.443  1.00  0.00     0.093 A 
HETATM   25  C   UNL     1      44.147 -18.536   4.425  1.00  0.00     0.038 A 
HETATM   26  C   UNL     1      43.926 -19.344   3.313  1.00  0.00     0.003 A 
HETATM   27  C   UNL     1      43.228 -18.839   2.218  1.00  0.00     0.001 A 
HETATM   28  C   UNL     1      42.749 -17.524   2.237  1.00  0.00     0.018 A 
BRANCH  24  29
HETATM   29  O   UNL     1      43.963 -16.414   5.540  1.00  0.00    -0.278 OA
BRANCH  29  30
HETATM   30  C   UNL     1      43.131 -16.578   6.642  1.00  0.00     0.260 C 
HETATM   31  C   UNL     1      43.985 -16.766   7.861  1.00  0.00     0.126 C 
HETATM   32  O   UNL     1      41.907 -16.626   6.641  1.00  0.00    -0.265 OA
ENDBRANCH  29  30
ENDBRANCH  24  29
ENDBRANCH   1  23
TORSDOF 5
ENDMDL
MODEL 9
REMARK VINA RESULT:      -8.2      2.289      5.944
REMARK  5 active torsions:
REMARK  status: ('A' for Active; 'I' for Inactive)
REMARK    1  A    between atoms: C_2  and  O_4 
REMARK    2  A    between atoms: O_4  and  C_5 
REMARK    3  A    between atoms: C_10  and  C_11 
REMARK    4  A    between atoms: C_13  and  N_14 
REMARK    5  A    between atoms: N_14  and  C_15 
ROOT
HETATM    1  C   UNL     1      41.534 -15.097   2.039  1.00  0.00     0.164 A 
HETATM    2  N   UNL     1      41.379 -14.534   3.244  1.00  0.00    -0.215 NA
HETATM    3  C   UNL     1      41.969 -15.126   4.297  1.00  0.00     0.122 A 
HETATM    4  C   UNL     1      42.662 -16.346   4.170  1.00  0.00     0.033 A 
HETATM    5  C   UNL     1      43.234 -17.088   5.237  1.00  0.00     0.017 A 
HETATM    6  C   UNL     1      43.921 -18.275   4.997  1.00  0.00     0.001 A 
HETATM    7  C   UNL     1      44.045 -18.739   3.695  1.00  0.00     0.002 A 
HETATM    8  C   UNL     1      43.470 -18.016   2.646  1.00  0.00     0.032 A 
HETATM    9  C   UNL     1      42.776 -16.832   2.861  1.00  0.00     0.072 A 
HETATM   10  N   UNL     1      42.243 -16.212   1.806  1.00  0.00    -0.228 NA
ENDROOT
BRANCH   3  11
HETATM   11  N   UNL     1      41.822 -14.536   5.589  1.00  0.00    -0.243 NA
HETATM   12  H   UNL     1      42.679 -14.723   6.106  1.00  0.00     0.135 HD
BRANCH  11  13
HETATM   13  C   UNL     1      41.494 -13.175   5.846  1.00  0.00     0.015 A 
HETATM   14  C   UNL     1      42.471 -12.207   6.118  1.00  0.00     0.026 A 
HETATM   15  C   UNL     1      42.137 -10.891   6.461  1.00  0.00     0.034 A 
HETATM   16  C   UNL     1      40.778 -10.587   6.555  1.00  0.00     0.061 A 
HETATM   17  N   UNL     1      40.124  -9.423   6.856  1.00  0.00    -0.278 N 
HETATM   18  C   UNL     1      39.779 -11.526   6.334  1.00  0.00     0.013 A 
HETATM   19  H   UNL     1      40.535  -8.522   7.072  1.00  0.00     0.189 HD
HETATM   20  N   UNL     1      38.783  -9.532   6.859  1.00  0.00    -0.186 NA
HETATM   21  C   UNL     1      38.577 -10.813   6.538  1.00  0.00     0.152 A 
HETATM   22  C   UNL     1      40.136 -12.843   5.996  1.00  0.00     0.039 A 
ENDBRANCH  11  13
ENDBRANCH   3  11
BRANCH   1  23
HETATM   23  C   UNL     1      40.927 -14.425   0.881  1.00  0.00     0.046 A 
HETATM   24  C   UNL     1      41.233 -13.102   0.517  1.00  0.00     0.093 A 
HETATM   25  C   UNL     1      40.626 -12.469  -0.576  1.00  0.00     0.038 A 
HETATM   26  C   UNL     1      39.714 -13.173  -1.358  1.00  0.00     0.003 A 
HETATM   27  C   UNL     1      39.395 -14.489  -1.034  1.00  0.00     0.001 A 
HETATM   28  C   UNL     1      39.990 -15.103   0.075  1.00  0.00     0.018 A 
BRANCH  24  29
HETATM   29  O   UNL     1      42.076 -12.334   1.337  1.00  0.00    -0.278 OA
BRANCH  29  30
HETATM   30  C   UNL     1      41.631 -11.036   1.566  1.00  0.00     0.260 C 
HETATM   31  C   UNL     1      40.613 -11.069   2.667  1.00  0.00     0.126 C 
HETATM   32  O   UNL     1      41.952 -10.028   0.950  1.00  0.00    -0.265 OA
ENDBRANCH  29  30
ENDBRANCH  24  29
ENDBRANCH   1  23
TORSDOF 5
ENDMDL
MODEL 10
REMARK VINA RESULT:      -8.1     15.482     17.547
REMARK  5 active torsions:
REMARK  status: ('A' for Active; 'I' for Inactive)
REMARK    1  A    between atoms: C_2  and  O_4 
REMARK    2  A    between atoms: O_4  and  C_5 
REMARK    3  A    between atoms: C_10  and  C_11 
REMARK    4  A    between atoms: C_13  and  N_14 
REMARK    5  A    between atoms: N_14  and  C_15 
ROOT
HETATM    1  C   UNL     1      46.974 -29.723   0.596  1.00  0.00     0.164 A 
HETATM    2  N   UNL     1      45.974 -30.587   0.808  1.00  0.00    -0.215 NA
HETATM    3  C   UNL     1      45.024 -30.698  -0.136  1.00  0.00     0.122 A 
HETATM    4  C   UNL     1      45.018 -29.878  -1.282  1.00  0.00     0.033 A 
HETATM    5  C   UNL     1      44.010 -29.860  -2.282  1.00  0.00     0.017 A 
HETATM    6  C   UNL     1      44.115 -29.023  -3.390  1.00  0.00     0.001 A 
HETATM    7  C   UNL     1      45.221 -28.196  -3.516  1.00  0.00     0.002 A 
HETATM    8  C   UNL     1      46.207 -28.204  -2.526  1.00  0.00     0.032 A 
HETATM    9  C   UNL     1      46.122 -29.024  -1.409  1.00  0.00     0.072 A 
HETATM   10  N   UNL     1      47.098 -28.958  -0.501  1.00  0.00    -0.228 NA
ENDROOT
BRANCH   3  11
HETATM   11  N   UNL     1      43.954 -31.621   0.069  1.00  0.00    -0.243 NA
HETATM   12  H   UNL     1      44.371 -32.531   0.253  1.00  0.00     0.135 HD
BRANCH  11  13
HETATM   13  C   UNL     1      42.900 -31.470   1.013  1.00  0.00     0.015 A 
HETATM   14  C   UNL     1      42.703 -30.284   1.733  1.00  0.00     0.026 A 
HETATM   15  C   UNL     1      41.723 -30.172   2.728  1.00  0.00     0.034 A 
HETATM   16  C   UNL     1      40.965 -31.311   3.000  1.00  0.00     0.061 A 
HETATM   17  N   UNL     1      39.946 -31.538   3.886  1.00  0.00    -0.278 N 
HETATM   18  C   UNL     1      41.155 -32.519   2.339  1.00  0.00     0.013 A 
HETATM   19  H   UNL     1      39.535 -30.877   4.535  1.00  0.00     0.189 HD
HETATM   20  N   UNL     1      39.467 -32.795   3.861  1.00  0.00    -0.186 NA
HETATM   21  C   UNL     1      40.204 -33.388   2.917  1.00  0.00     0.152 A 
HETATM   22  C   UNL     1      42.148 -32.610   1.347  1.00  0.00     0.039 A 
ENDBRANCH  11  13
ENDBRANCH   3  11
BRANCH   1  23
HETATM   23  C   UNL     1      48.037 -29.634   1.607  1.00  0.00     0.046 A 
HETATM   24  C   UNL     1      49.265 -30.308   1.487  1.00  0.00     0.093 A 
HETATM   25  C   UNL     1      50.257 -30.232   2.474  1.00  0.00     0.038 A 
HETATM   26  C   UNL     1      50.049 -29.438   3.598  1.00  0.00     0.003 A 
HETATM   27  C   UNL     1      48.849 -28.747   3.745  1.00  0.00     0.001 A 
HETATM   28  C   UNL     1      47.855 -28.850   2.765  1.00  0.00     0.018 A 
BRANCH  24  29
HETATM   29  O   UNL     1      49.470 -31.190   0.414  1.00  0.00    -0.278 OA
BRANCH  29  30
HETATM   30  C   UNL     1      50.557 -30.871  -0.394  1.00  0.00     0.260 C 
HETATM   31  C   UNL     1      51.559 -31.983  -0.306  1.00  0.00     0.126 C 
HETATM   32  O   UNL     1      50.723 -29.839  -1.033  1.00  0.00    -0.265 OA
ENDBRANCH  29  30
ENDBRANCH  24  29
ENDBRANCH   1  23
TORSDOF 5
ENDMDL
