MODEL 1
REMARK VINA RESULT:      -7.6      0.000      0.000
REMARK  3 active torsions:
REMARK  status: ('A' for Active; 'I' for Inactive)
REMARK       I    between atoms: C_2  and  N_3 
REMARK    1  A    between atoms: N_3  and  C_4 
REMARK    2  A    between atoms: C_9  and  N_10 
REMARK       I    between atoms: N_10  and  C_11 
REMARK    3  A    between atoms: C_11  and  C_12 
ROOT
HETATM    1  C   UNL     1      39.900 -13.695   2.258  1.00  0.00     0.156 A 
HETATM    2  N   UNL     1      39.216 -12.699   1.633  1.00  0.00    -0.241 NA
HETATM    3  C   UNL     1      39.219 -12.669   0.286  1.00  0.00     0.119 A 
HETATM    4  C   UNL     1      39.878 -13.596  -0.488  1.00  0.00     0.022 A 
HETATM    5  C   UNL     1      40.577 -14.611   0.158  1.00  0.00     0.035 A 
HETATM    6  C   UNL     1      40.616 -14.688   1.557  1.00  0.00     0.081 A 
ENDROOT
BRANCH   6   7
HETATM    7  N   UNL     1      41.325 -15.728   2.209  1.00  0.00    -0.320 N 
HETATM    8  C   UNL     1      42.690 -15.949   2.227  1.00  0.00     0.256 C 
HETATM    9  O   UNL     1      43.553 -15.215   1.757  1.00  0.00    -0.267 OA
HETATM   10  H   UNL     1      40.755 -16.339   2.793  1.00  0.00     0.169 HD
BRANCH   8  11
HETATM   11  C   UNL     1      43.142 -17.190   2.924  1.00  0.00     0.032 A 
HETATM   12  C   UNL     1      43.182 -18.437   2.286  1.00  0.00     0.018 A 
HETATM   13  C   UNL     1      43.643 -19.564   2.975  1.00  0.00     0.025 A 
HETATM   14  C   UNL     1      44.075 -19.445   4.294  1.00  0.00     0.034 A 
HETATM   15 CL   UNL     1      44.648 -20.833   5.134  1.00  0.00    -0.084 Cl
HETATM   16  C   UNL     1      44.057 -18.207   4.934  1.00  0.00     0.025 A 
HETATM   17  C   UNL     1      43.595 -17.081   4.248  1.00  0.00     0.018 A 
ENDBRANCH   8  11
ENDBRANCH   6   7
BRANCH   1  18
HETATM   18  N   UNL     1      39.760 -13.526   3.643  1.00  0.00    -0.310 N 
HETATM   19  C   UNL     1      40.665 -13.418   4.658  1.00  0.00     0.219 C 
HETATM   20  C   UNL     1      40.021 -13.236   6.010  1.00  0.00     0.117 C 
HETATM   21  O   UNL     1      41.885 -13.488   4.553  1.00  0.00    -0.274 OA
HETATM   22  H   UNL     1      38.775 -13.504   3.877  1.00  0.00     0.170 HD
ENDBRANCH   1  18
TORSDOF 3
ENDMDL
MODEL 2
REMARK VINA RESULT:      -7.3      3.649      6.448
REMARK  3 active torsions:
REMARK  status: ('A' for Active; 'I' for Inactive)
REMARK       I    between atoms: C_2  and  N_3 
REMARK    1  A    between atoms: N_3  and  C_4 
REMARK    2  A    between atoms: C_9  and  N_10 
REMARK       I    between atoms: N_10  and  C_11 
REMARK    3  A    between atoms: C_11  and  C_12 
ROOT
HETATM    1  C   UNL     1      43.761 -17.994   4.022  1.00  0.00     0.156 A 
HETATM    2  N   UNL     1      44.276 -19.098   4.628  1.00  0.00    -0.241 NA
HETATM    3  C   UNL     1      44.181 -20.281   3.990  1.00  0.00     0.119 A 
HETATM    4  C   UNL     1      43.589 -20.427   2.757  1.00  0.00     0.022 A 
HETATM    5  C   UNL     1      43.062 -19.294   2.144  1.00  0.00     0.035 A 
HETATM    6  C   UNL     1      43.125 -18.038   2.764  1.00  0.00     0.081 A 
ENDROOT
BRANCH   6   7
HETATM    7  N   UNL     1      42.593 -16.887   2.132  1.00  0.00    -0.320 N 
HETATM    8  C   UNL     1      41.438 -16.196   2.452  1.00  0.00     0.256 C 
HETATM    9  O   UNL     1      40.711 -16.400   3.419  1.00  0.00    -0.267 OA
HETATM   10  H   UNL     1      43.177 -16.487   1.400  1.00  0.00     0.169 HD
BRANCH   8  11
HETATM   11  C   UNL     1      41.077 -15.069   1.541  1.00  0.00     0.032 A 
HETATM   12  C   UNL     1      41.709 -13.819   1.608  1.00  0.00     0.018 A 
HETATM   13  C   UNL     1      41.355 -12.804   0.711  1.00  0.00     0.025 A 
HETATM   14  C   UNL     1      40.382 -13.041  -0.259  1.00  0.00     0.034 A 
HETATM   15 CL   UNL     1      39.956 -11.792  -1.364  1.00  0.00    -0.084 Cl
HETATM   16  C   UNL     1      39.760 -14.285  -0.347  1.00  0.00     0.025 A 
HETATM   17  C   UNL     1      40.111 -15.298   0.550  1.00  0.00     0.018 A 
ENDBRANCH   8  11
ENDBRANCH   6   7
BRANCH   1  18
HETATM   18  N   UNL     1      43.972 -16.890   4.861  1.00  0.00    -0.310 N 
HETATM   19  C   UNL     1      43.276 -16.391   5.924  1.00  0.00     0.219 C 
HETATM   20  C   UNL     1      43.914 -15.163   6.524  1.00  0.00     0.117 C 
HETATM   21  O   UNL     1      42.220 -16.826   6.370  1.00  0.00    -0.274 OA
HETATM   22  H   UNL     1      44.805 -16.400   4.563  1.00  0.00     0.170 HD
ENDBRANCH   1  18
TORSDOF 3
ENDMDL
MODEL 3
REMARK VINA RESULT:      -7.3      2.736      4.401
REMARK  3 active torsions:
REMARK  status: ('A' for Active; 'I' for Inactive)
REMARK       I    between atoms: C_2  and  N_3 
REMARK    1  A    between atoms: N_3  and  C_4 
REMARK    2  A    between atoms: C_9  and  N_10 
REMARK       I    between atoms: N_10  and  C_11 
REMARK    3  A    between atoms: C_11  and  C_12 
ROOT
HETATM    1  C   UNL     1      42.318 -12.206   5.579  1.00  0.00     0.156 A 
HETATM    2  N   UNL     1      42.308 -11.030   6.264  1.00  0.00    -0.241 NA
HETATM    3  C   UNL     1      43.286 -10.805   7.163  1.00  0.00     0.119 A 
HETATM    4  C   UNL     1      44.295 -11.705   7.421  1.00  0.00     0.022 A 
HETATM    5  C   UNL     1      44.298 -12.906   6.719  1.00  0.00     0.035 A 
HETATM    6  C   UNL     1      43.300 -13.198   5.777  1.00  0.00     0.081 A 
ENDROOT
BRANCH   6   7
HETATM    7  N   UNL     1      43.313 -14.420   5.060  1.00  0.00    -0.320 N 
HETATM    8  C   UNL     1      42.612 -15.579   5.339  1.00  0.00     0.256 C 
HETATM    9  O   UNL     1      41.764 -15.726   6.214  1.00  0.00    -0.267 OA
HETATM   10  H   UNL     1      43.850 -14.408   4.195  1.00  0.00     0.169 HD
BRANCH   8  11
HETATM   11  C   UNL     1      42.901 -16.747   4.454  1.00  0.00     0.032 A 
HETATM   12  C   UNL     1      42.338 -16.878   3.177  1.00  0.00     0.018 A 
HETATM   13  C   UNL     1      42.665 -17.977   2.374  1.00  0.00     0.025 A 
HETATM   14  C   UNL     1      43.561 -18.937   2.840  1.00  0.00     0.034 A 
HETATM   15 CL   UNL     1      43.966 -20.282   1.846  1.00  0.00    -0.084 Cl
HETATM   16  C   UNL     1      44.142 -18.809   4.101  1.00  0.00     0.025 A 
HETATM   17  C   UNL     1      43.814 -17.713   4.904  1.00  0.00     0.018 A 
ENDBRANCH   8  11
ENDBRANCH   6   7
BRANCH   1  18
HETATM   18  N   UNL     1      41.218 -12.220   4.710  1.00  0.00    -0.310 N 
HETATM   19  C   UNL     1      39.930 -12.648   4.855  1.00  0.00     0.219 C 
HETATM   20  C   UNL     1      39.095 -12.444   3.616  1.00  0.00     0.117 C 
HETATM   21  O   UNL     1      39.451 -13.183   5.850  1.00  0.00    -0.274 OA
HETATM   22  H   UNL     1      41.497 -11.844   3.813  1.00  0.00     0.170 HD
ENDBRANCH   1  18
TORSDOF 3
ENDMDL
MODEL 4
REMARK VINA RESULT:      -7.1      1.948      2.906
REMARK  3 active torsions:
REMARK  status: ('A' for Active; 'I' for Inactive)
REMARK       I    between atoms: C_2  and  N_3 
REMARK    1  A    between atoms: N_3  and  C_4 
REMARK    2  A    between atoms: C_9  and  N_10 
REMARK       I    between atoms: N_10  and  C_11 
REMARK    3  A    between atoms: C_11  and  C_12 
ROOT
HETATM    1  C   UNL     1      41.737 -13.086   1.989  1.00  0.00     0.156 A 
HETATM    2  N   UNL     1      41.427 -11.810   1.634  1.00  0.00    -0.241 NA
HETATM    3  C   UNL     1      42.003 -10.800   2.314  1.00  0.00     0.119 A 
HETATM    4  C   UNL     1      42.889 -10.995   3.349  1.00  0.00     0.022 A 
HETATM    5  C   UNL     1      43.199 -12.303   3.708  1.00  0.00     0.035 A 
HETATM    6  C   UNL     1      42.624 -13.394   3.041  1.00  0.00     0.081 A 
ENDROOT
BRANCH   6   7
HETATM    7  N   UNL     1      42.949 -14.724   3.407  1.00  0.00    -0.320 N 
HETATM    8  C   UNL     1      43.390 -15.749   2.590  1.00  0.00     0.256 C 
HETATM    9  O   UNL     1      43.679 -15.661   1.401  1.00  0.00    -0.267 OA
HETATM   10  H   UNL     1      42.921 -14.916   4.407  1.00  0.00     0.169 HD
BRANCH   8  11
HETATM   11  C   UNL     1      43.563 -17.080   3.246  1.00  0.00     0.032 A 
HETATM   12  C   UNL     1      43.602 -18.277   2.517  1.00  0.00     0.018 A 
HETATM   13  C   UNL     1      43.796 -19.495   3.177  1.00  0.00     0.025 A 
HETATM   14  C   UNL     1      43.963 -19.519   4.561  1.00  0.00     0.034 A 
HETATM   15 CL   UNL     1      44.208 -21.019   5.366  1.00  0.00    -0.084 Cl
HETATM   16  C   UNL     1      43.943 -18.334   5.295  1.00  0.00     0.025 A 
HETATM   17  C   UNL     1      43.747 -17.117   4.637  1.00  0.00     0.018 A 
ENDBRANCH   8  11
ENDBRANCH   6   7
BRANCH   1  18
HETATM   18  N   UNL     1      41.027 -13.962   1.154  1.00  0.00    -0.310 N 
HETATM   19  C   UNL     1      40.145 -14.971   1.410  1.00  0.00     0.219 C 
HETATM   20  C   UNL     1      39.626 -15.635   0.159  1.00  0.00     0.117 C 
HETATM   21  O   UNL     1      39.796 -15.368   2.517  1.00  0.00    -0.274 OA
HETATM   22  H   UNL     1      41.268 -13.771   0.190  1.00  0.00     0.170 HD
ENDBRANCH   1  18
TORSDOF 3
ENDMDL
MODEL 5
REMARK VINA RESULT:      -7.1      2.976      4.512
REMARK  3 active torsions:
REMARK  status: ('A' for Active; 'I' for Inactive)
REMARK       I    between atoms: C_2  and  N_3 
REMARK    1  A    between atoms: N_3  and  C_4 
REMARK    2  A    between atoms: C_9  and  N_10 
REMARK       I    between atoms: N_10  and  C_11 
REMARK    3  A    between atoms: C_11  and  C_12 
ROOT
HETATM    1  C   UNL     1      42.022 -11.513   6.167  1.00  0.00     0.156 A 
HETATM    2  N   UNL     1      41.486 -10.369   6.671  1.00  0.00    -0.241 NA
HETATM    3  C   UNL     1      40.146 -10.289   6.787  1.00  0.00     0.119 A 
HETATM    4  C   UNL     1      39.295 -11.306   6.423  1.00  0.00     0.022 A 
HETATM    5  C   UNL     1      39.850 -12.473   5.906  1.00  0.00     0.035 A 
HETATM    6  C   UNL     1      41.238 -12.609   5.754  1.00  0.00     0.081 A 
ENDROOT
BRANCH   6   7
HETATM    7  N   UNL     1      41.798 -13.802   5.234  1.00  0.00    -0.320 N 
HETATM    8  C   UNL     1      42.597 -13.951   4.114  1.00  0.00     0.256 C 
HETATM    9  O   UNL     1      43.052 -13.050   3.418  1.00  0.00    -0.267 OA
HETATM   10  H   UNL     1      41.648 -14.634   5.803  1.00  0.00     0.169 HD
BRANCH   8  11
HETATM   11  C   UNL     1      42.962 -15.354   3.754  1.00  0.00     0.032 A 
HETATM   12  C   UNL     1      43.295 -16.314   4.720  1.00  0.00     0.018 A 
HETATM   13  C   UNL     1      43.601 -17.624   4.332  1.00  0.00     0.025 A 
HETATM   14  C   UNL     1      43.562 -17.978   2.985  1.00  0.00     0.034 A 
HETATM   15 CL   UNL     1      43.931 -19.592   2.515  1.00  0.00    -0.084 Cl
HETATM   16  C   UNL     1      43.215 -17.037   2.017  1.00  0.00     0.025 A 
HETATM   17  C   UNL     1      42.912 -15.729   2.403  1.00  0.00     0.018 A 
ENDBRANCH   8  11
ENDBRANCH   6   7
BRANCH   1  18
HETATM   18  N   UNL     1      43.418 -11.371   6.137  1.00  0.00    -0.310 N 
HETATM   19  C   UNL     1      44.387 -11.561   7.079  1.00  0.00     0.219 C 
HETATM   20  C   UNL     1      45.777 -11.283   6.563  1.00  0.00     0.117 C 
HETATM   21  O   UNL     1      44.209 -11.889   8.247  1.00  0.00    -0.274 OA
HETATM   22  H   UNL     1      43.700 -11.047   5.220  1.00  0.00     0.170 HD
ENDBRANCH   1  18
TORSDOF 3
ENDMDL
MODEL 6
REMARK VINA RESULT:      -7.0      1.351      1.753
REMARK  3 active torsions:
REMARK  status: ('A' for Active; 'I' for Inactive)
REMARK       I    between atoms: C_2  and  N_3 
REMARK    1  A    between atoms: N_3  and  C_4 
REMARK    2  A    between atoms: C_9  and  N_10 
REMARK       I    between atoms: N_10  and  C_11 
REMARK    3  A    between atoms: C_11  and  C_12 
ROOT
HETATM    1  C   UNL     1      40.231 -13.067   1.029  1.00  0.00     0.156 A 
HETATM    2  N   UNL     1      39.530 -12.199   0.249  1.00  0.00    -0.241 NA
HETATM    3  C   UNL     1      39.000 -12.658  -0.901  1.00  0.00     0.119 A 
HETATM    4  C   UNL     1      39.131 -13.959  -1.326  1.00  0.00     0.022 A 
HETATM    5  C   UNL     1      39.851 -14.841  -0.525  1.00  0.00     0.035 A 
HETATM    6  C   UNL     1      40.432 -14.418   0.679  1.00  0.00     0.081 A 
ENDROOT
BRANCH   6   7
HETATM    7  N   UNL     1      41.158 -15.322   1.493  1.00  0.00    -0.320 N 
HETATM    8  C   UNL     1      42.456 -15.200   1.956  1.00  0.00     0.256 C 
HETATM    9  O   UNL     1      43.188 -14.224   1.825  1.00  0.00    -0.267 OA
HETATM   10  H   UNL     1      40.625 -16.121   1.833  1.00  0.00     0.169 HD
BRANCH   8  11
HETATM   11  C   UNL     1      42.989 -16.366   2.722  1.00  0.00     0.032 A 
HETATM   12  C   UNL     1      43.401 -16.261   4.058  1.00  0.00     0.018 A 
HETATM   13  C   UNL     1      43.866 -17.391   4.740  1.00  0.00     0.025 A 
HETATM   14  C   UNL     1      43.907 -18.625   4.095  1.00  0.00     0.034 A 
HETATM   15 CL   UNL     1      44.472 -20.013   4.942  1.00  0.00    -0.084 Cl
HETATM   16  C   UNL     1      43.485 -18.746   2.773  1.00  0.00     0.025 A 
HETATM   17  C   UNL     1      43.023 -17.618   2.089  1.00  0.00     0.018 A 
ENDBRANCH   8  11
ENDBRANCH   6   7
BRANCH   1  18
HETATM   18  N   UNL     1      40.685 -12.376   2.162  1.00  0.00    -0.310 N 
HETATM   19  C   UNL     1      40.282 -12.372   3.466  1.00  0.00     0.219 C 
HETATM   20  C   UNL     1      41.101 -11.451   4.336  1.00  0.00     0.117 C 
HETATM   21  O   UNL     1      39.340 -13.000   3.936  1.00  0.00    -0.274 OA
HETATM   22  H   UNL     1      41.448 -11.766   1.896  1.00  0.00     0.170 HD
ENDBRANCH   1  18
TORSDOF 3
ENDMDL
MODEL 7
REMARK VINA RESULT:      -6.8      3.496      6.317
REMARK  3 active torsions:
REMARK  status: ('A' for Active; 'I' for Inactive)
REMARK       I    between atoms: C_2  and  N_3 
REMARK    1  A    between atoms: N_3  and  C_4 
REMARK    2  A    between atoms: C_9  and  N_10 
REMARK       I    between atoms: N_10  and  C_11 
REMARK    3  A    between atoms: C_11  and  C_12 
ROOT
HETATM    1  C   UNL     1      42.793 -17.610   2.823  1.00  0.00     0.156 A 
HETATM    2  N   UNL     1      42.827 -18.846   2.254  1.00  0.00    -0.241 NA
HETATM    3  C   UNL     1      43.584 -19.796   2.837  1.00  0.00     0.119 A 
HETATM    4  C   UNL     1      44.322 -19.579   3.977  1.00  0.00     0.022 A 
HETATM    5  C   UNL     1      44.285 -18.312   4.551  1.00  0.00     0.035 A 
HETATM    6  C   UNL     1      43.521 -17.282   3.985  1.00  0.00     0.081 A 
ENDROOT
BRANCH   6   7
HETATM    7  N   UNL     1      43.481 -15.996   4.578  1.00  0.00    -0.320 N 
HETATM    8  C   UNL     1      42.735 -15.582   5.667  1.00  0.00     0.256 C 
HETATM    9  O   UNL     1      42.040 -16.292   6.386  1.00  0.00    -0.267 OA
HETATM   10  H   UNL     1      44.141 -15.321   4.193  1.00  0.00     0.169 HD
BRANCH   8  11
HETATM   11  C   UNL     1      42.827 -14.131   6.009  1.00  0.00     0.032 A 
HETATM   12  C   UNL     1      41.833 -13.210   5.648  1.00  0.00     0.018 A 
HETATM   13  C   UNL     1      41.953 -11.866   6.019  1.00  0.00     0.025 A 
HETATM   14  C   UNL     1      43.054 -11.444   6.761  1.00  0.00     0.034 A 
HETATM   15 CL   UNL     1      43.192  -9.792   7.221  1.00  0.00    -0.084 Cl
HETATM   16  C   UNL     1      44.040 -12.353   7.142  1.00  0.00     0.025 A 
HETATM   17  C   UNL     1      43.923 -13.695   6.769  1.00  0.00     0.018 A 
ENDBRANCH   8  11
ENDBRANCH   6   7
BRANCH   1  18
HETATM   18  N   UNL     1      41.951 -16.793   2.054  1.00  0.00    -0.310 N 
HETATM   19  C   UNL     1      40.826 -16.081   2.354  1.00  0.00     0.219 C 
HETATM   20  C   UNL     1      40.265 -15.333   1.171  1.00  0.00     0.117 C 
HETATM   21  O   UNL     1      40.262 -16.040   3.442  1.00  0.00    -0.274 OA
HETATM   22  H   UNL     1      42.283 -16.780   1.097  1.00  0.00     0.170 HD
ENDBRANCH   1  18
TORSDOF 3
ENDMDL
MODEL 8
REMARK VINA RESULT:      -6.6      3.397      6.636
REMARK  3 active torsions:
REMARK  status: ('A' for Active; 'I' for Inactive)
REMARK       I    between atoms: C_2  and  N_3 
REMARK    1  A    between atoms: N_3  and  C_4 
REMARK    2  A    between atoms: C_9  and  N_10 
REMARK       I    between atoms: N_10  and  C_11 
REMARK    3  A    between atoms: C_11  and  C_12 
ROOT
HETATM    1  C   UNL     1      43.361 -16.786   4.732  1.00  0.00     0.156 A 
HETATM    2  N   UNL     1      44.057 -17.139   5.846  1.00  0.00    -0.241 NA
HETATM    3  C   UNL     1      44.268 -16.203   6.791  1.00  0.00     0.119 A 
HETATM    4  C   UNL     1      43.814 -14.909   6.686  1.00  0.00     0.022 A 
HETATM    5  C   UNL     1      43.105 -14.553   5.543  1.00  0.00     0.035 A 
HETATM    6  C   UNL     1      42.862 -15.484   4.522  1.00  0.00     0.081 A 
ENDROOT
BRANCH   6   7
HETATM    7  N   UNL     1      42.134 -15.118   3.363  1.00  0.00    -0.320 N 
HETATM    8  C   UNL     1      42.430 -14.123   2.448  1.00  0.00     0.256 C 
HETATM    9  O   UNL     1      43.446 -13.437   2.421  1.00  0.00    -0.267 OA
HETATM   10  H   UNL     1      41.336 -15.713   3.148  1.00  0.00     0.169 HD
BRANCH   8  11
HETATM   11  C   UNL     1      41.419 -13.904   1.371  1.00  0.00     0.032 A 
HETATM   12  C   UNL     1      41.162 -12.636   0.831  1.00  0.00     0.018 A 
HETATM   13  C   UNL     1      40.225 -12.488  -0.199  1.00  0.00     0.025 A 
HETATM   14  C   UNL     1      39.556 -13.604  -0.697  1.00  0.00     0.034 A 
HETATM   15 CL   UNL     1      38.412 -13.418  -1.968  1.00  0.00    -0.084 Cl
HETATM   16  C   UNL     1      39.816 -14.872  -0.181  1.00  0.00     0.025 A 
HETATM   17  C   UNL     1      40.749 -15.021   0.849  1.00  0.00     0.018 A 
ENDBRANCH   8  11
ENDBRANCH   6   7
BRANCH   1  18
HETATM   18  N   UNL     1      43.266 -17.908   3.895  1.00  0.00    -0.310 N 
HETATM   19  C   UNL     1      43.332 -18.060   2.541  1.00  0.00     0.219 C 
HETATM   20  C   UNL     1      43.180 -19.494   2.098  1.00  0.00     0.117 C 
HETATM   21  O   UNL     1      43.466 -17.163   1.715  1.00  0.00    -0.274 OA
HETATM   22  H   UNL     1      43.100 -18.731   4.461  1.00  0.00     0.170 HD
ENDBRANCH   1  18
TORSDOF 3
ENDMDL
MODEL 9
REMARK VINA RESULT:      -6.5      9.269     12.111
REMARK  3 active torsions:
REMARK  status: ('A' for Active; 'I' for Inactive)
REMARK       I    between atoms: C_2  and  N_3 
REMARK    1  A    between atoms: N_3  and  C_4 
REMARK    2  A    between atoms: C_9  and  N_10 
REMARK       I    between atoms: N_10  and  C_11 
REMARK    3  A    between atoms: C_11  and  C_12 
ROOT
HETATM    1  C   UNL     1      43.141  -9.810   8.904  1.00  0.00     0.156 A 
HETATM    2  N   UNL     1      43.494 -10.332   7.698  1.00  0.00    -0.241 NA
HETATM    3  C   UNL     1      44.805 -10.461   7.417  1.00  0.00     0.119 A 
HETATM    4  C   UNL     1      45.803 -10.092   8.289  1.00  0.00     0.022 A 
HETATM    5  C   UNL     1      45.435  -9.557   9.519  1.00  0.00     0.035 A 
HETATM    6  C   UNL     1      44.085  -9.392   9.863  1.00  0.00     0.081 A 
ENDROOT
BRANCH   6   7
HETATM    7  N   UNL     1      43.716  -8.853  11.120  1.00  0.00    -0.320 N 
HETATM    8  C   UNL     1      43.120  -9.504  12.185  1.00  0.00     0.256 C 
HETATM    9  O   UNL     1      42.893 -10.707  12.270  1.00  0.00    -0.267 OA
HETATM   10  H   UNL     1      43.994  -7.885  11.274  1.00  0.00     0.169 HD
BRANCH   8  11
HETATM   11  C   UNL     1      42.759  -8.649  13.355  1.00  0.00     0.032 A 
HETATM   12  C   UNL     1      43.372  -7.412  13.598  1.00  0.00     0.018 A 
HETATM   13  C   UNL     1      42.976  -6.634  14.692  1.00  0.00     0.025 A 
HETATM   14  C   UNL     1      41.961  -7.084  15.535  1.00  0.00     0.034 A 
HETATM   15 CL   UNL     1      41.473  -6.120  16.874  1.00  0.00    -0.084 Cl
HETATM   16  C   UNL     1      41.332  -8.304  15.294  1.00  0.00     0.025 A 
HETATM   17  C   UNL     1      41.728  -9.083  14.203  1.00  0.00     0.018 A 
ENDBRANCH   8  11
ENDBRANCH   6   7
BRANCH   1  18
HETATM   18  N   UNL     1      41.740  -9.770   8.975  1.00  0.00    -0.310 N 
HETATM   19  C   UNL     1      40.859  -8.783   9.310  1.00  0.00     0.219 C 
HETATM   20  C   UNL     1      39.419  -9.223   9.228  1.00  0.00     0.117 C 
HETATM   21  O   UNL     1      41.145  -7.650   9.681  1.00  0.00    -0.274 OA
HETATM   22  H   UNL     1      41.369 -10.681   8.736  1.00  0.00     0.170 HD
ENDBRANCH   1  18
TORSDOF 3
ENDMDL
MODEL 10
REMARK VINA RESULT:      -6.5     14.914     17.034
REMARK  3 active torsions:
REMARK  status: ('A' for Active; 'I' for Inactive)
REMARK       I    between atoms: C_2  and  N_3 
REMARK    1  A    between atoms: N_3  and  C_4 
REMARK    2  A    between atoms: C_9  and  N_10 
REMARK       I    between atoms: N_10  and  C_11 
REMARK    3  A    between atoms: C_11  and  C_12 
ROOT
HETATM    1  C   UNL     1      49.744 -30.385   1.609  1.00  0.00     0.156 A 
HETATM    2  N   UNL     1      50.409 -30.340   2.795  1.00  0.00    -0.241 NA
HETATM    3  C   UNL     1      49.861 -29.643   3.809  1.00  0.00     0.119 A 
HETATM    4  C   UNL     1      48.663 -28.976   3.705  1.00  0.00     0.022 A 
HETATM    5  C   UNL     1      47.990 -29.023   2.488  1.00  0.00     0.035 A 
HETATM    6  C   UNL     1      48.516 -29.726   1.395  1.00  0.00     0.081 A 
ENDROOT
BRANCH   6   7
HETATM    7  N   UNL     1      47.823 -29.777   0.160  1.00  0.00    -0.320 N 
HETATM    8  C   UNL     1      47.502 -28.726  -0.681  1.00  0.00     0.256 C 
HETATM    9  O   UNL     1      47.853 -27.558  -0.555  1.00  0.00    -0.267 OA
HETATM   10  H   UNL     1      47.602 -30.713  -0.174  1.00  0.00     0.169 HD
BRANCH   8  11
HETATM   11  C   UNL     1      46.676 -29.075  -1.876  1.00  0.00     0.032 A 
HETATM   12  C   UNL     1      45.843 -28.142  -2.510  1.00  0.00     0.018 A 
HETATM   13  C   UNL     1      45.112 -28.511  -3.645  1.00  0.00     0.025 A 
HETATM   14  C   UNL     1      45.222 -29.804  -4.154  1.00  0.00     0.034 A 
HETATM   15 CL   UNL     1      44.327 -30.249  -5.555  1.00  0.00    -0.084 Cl
HETATM   16  C   UNL     1      46.060 -30.735  -3.543  1.00  0.00     0.025 A 
HETATM   17  C   UNL     1      46.789 -30.368  -2.408  1.00  0.00     0.018 A 
ENDBRANCH   8  11
ENDBRANCH   6   7
BRANCH   1  18
HETATM   18  N   UNL     1      50.495 -31.157   0.710  1.00  0.00    -0.310 N 
HETATM   19  C   UNL     1      50.954 -30.921  -0.554  1.00  0.00     0.219 C 
HETATM   20  C   UNL     1      51.740 -32.075  -1.123  1.00  0.00     0.117 C 
HETATM   21  O   UNL     1      50.753 -29.913  -1.222  1.00  0.00    -0.274 OA
HETATM   22  H   UNL     1      50.690 -32.058   1.128  1.00  0.00     0.170 HD
ENDBRANCH   1  18
TORSDOF 3
ENDMDL
