MODEL 1
REMARK VINA RESULT:      -9.7      0.000      0.000
REMARK  7 active torsions:
REMARK  status: ('A' for Active; 'I' for Inactive)
REMARK    1  A    between atoms: O_2  and  C_3 
REMARK    2  A    between atoms: C_5  and  C_15 
REMARK    3  A    between atoms: C_8  and  C_9 
REMARK       I    between atoms: C_15  and  N_17 
REMARK    4  A    between atoms: N_17  and  C_18 
REMARK    5  A    between atoms: C_18  and  C_19 
REMARK    6  A    between atoms: C_23  and  C_25 
REMARK       I    between atoms: C_25  and  N_27 
REMARK    7  A    between atoms: N_27  and  C_28 
ROOT
HETATM    1  C   UNL     1      43.328 -11.429   7.188  1.00  0.00    -0.040 A 
HETATM    2  C   UNL     1      42.354 -10.542   6.706  1.00  0.00     0.009 A 
HETATM    3  C   UNL     1      41.444 -10.953   5.733  1.00  0.00     0.002 A 
HETATM    4  C   UNL     1      41.504 -12.251   5.228  1.00  0.00     0.017 A 
HETATM    5  C   UNL     1      42.479 -13.149   5.683  1.00  0.00     0.033 A 
HETATM    6  C   UNL     1      43.387 -12.733   6.667  1.00  0.00     0.026 A 
ENDROOT
BRANCH   1   7
HETATM    7  C   UNL     1      44.308 -10.987   8.245  1.00  0.00     0.161 C 
BRANCH   7   8
HETATM    8  N   UNL     1      43.634 -10.380   9.370  1.00  0.00    -0.353 N 
HETATM    9  C   UNL     1      44.206 -10.346  10.623  1.00  0.00     0.252 C 
HETATM   10  O   UNL     1      45.305 -10.826  10.878  1.00  0.00    -0.268 OA
HETATM   11  H   UNL     1      42.860  -9.765   9.165  1.00  0.00     0.163 HD
BRANCH   9  12
HETATM   12  C   UNL     1      43.422  -9.648  11.684  1.00  0.00     0.034 A 
HETATM   13  C   UNL     1      42.263 -10.266  12.175  1.00  0.00     0.054 A 
HETATM   14  C   UNL     1      41.486  -9.650  13.167  1.00  0.00     0.080 A 
HETATM   15  C   UNL     1      41.873  -8.388  13.670  1.00  0.00     0.010 A 
HETATM   16  C   UNL     1      43.026  -7.770  13.155  1.00  0.00     0.016 A 
HETATM   17  C   UNL     1      43.794  -8.391  12.167  1.00  0.00     0.018 A 
BRANCH  14  18
HETATM   18  O   UNL     1      40.353 -10.211  13.703  1.00  0.00    -0.355 OA
HETATM   19  C   UNL     1      39.406 -10.788  12.814  1.00  0.00     0.210 C 
ENDBRANCH  14  18
BRANCH  15  20
HETATM   20  C   UNL     1      41.099  -7.692  14.691  1.00  0.00     0.013 A 
HETATM   21  C   UNL     1      40.011  -6.794  14.583  1.00  0.00     0.152 A 
HETATM   22  N   UNL     1      39.579  -6.358  15.771  1.00  0.00    -0.187 NA
HETATM   23  N   UNL     1      40.376  -6.991  16.644  1.00  0.00    -0.289 N 
HETATM   24  H   UNL     1      40.227  -6.828  17.635  1.00  0.00     0.188 HD
HETATM   25  C   UNL     1      41.307  -7.794  16.051  1.00  0.00     0.123 A 
ENDBRANCH  15  20
ENDBRANCH   9  12
ENDBRANCH   7   8
ENDBRANCH   1   7
BRANCH   5  26
HETATM   26  C   UNL     1      42.470 -14.537   5.125  1.00  0.00     0.257 C 
HETATM   27  O   UNL     1      41.499 -14.875   4.458  1.00  0.00    -0.267 OA
HETATM   28  N   UNL     1      43.584 -15.297   5.404  1.00  0.00    -0.301 N 
HETATM   29  H   UNL     1      44.386 -14.913   5.876  1.00  0.00     0.171 HD
BRANCH  28  30
HETATM   30  C   UNL     1      43.686 -16.605   5.014  1.00  0.00     0.174 A 
HETATM   31  N   UNL     1      43.768 -17.114   3.810  1.00  0.00    -0.228 NA
HETATM   32  C   UNL     1      43.834 -18.484   3.909  1.00  0.00     0.054 A 
HETATM   33  C   UNL     1      43.963 -19.367   2.717  1.00  0.00     0.090 C 
HETATM   34  C   UNL     1      43.804 -18.991   5.191  1.00  0.00     0.039 A 
HETATM   35  C   UNL     1      43.697 -20.837   3.119  1.00  0.00     0.276 C 
HETATM   36  N   UNL     1      44.354 -21.232   4.388  1.00  0.00     0.088 N 
HETATM   37  C   UNL     1      43.834 -20.441   5.526  1.00  0.00     0.317 C 
HETATM   38  H   UNL     1      45.353 -21.038   4.305  1.00  0.00     0.316 HD
HETATM   39  S   UNL     1      43.685 -17.721   6.318  1.00  0.00    -0.053 SA
ENDBRANCH  28  30
ENDBRANCH   5  26
TORSDOF 7
ENDMDL
MODEL 2
REMARK VINA RESULT:      -9.6      2.650     12.216
REMARK  7 active torsions:
REMARK  status: ('A' for Active; 'I' for Inactive)
REMARK    1  A    between atoms: O_2  and  C_3 
REMARK    2  A    between atoms: C_5  and  C_15 
REMARK    3  A    between atoms: C_8  and  C_9 
REMARK       I    between atoms: C_15  and  N_17 
REMARK    4  A    between atoms: N_17  and  C_18 
REMARK    5  A    between atoms: C_18  and  C_19 
REMARK    6  A    between atoms: C_23  and  C_25 
REMARK       I    between atoms: C_25  and  N_27 
REMARK    7  A    between atoms: N_27  and  C_28 
ROOT
HETATM    1  C   UNL     1      43.891 -11.024   6.123  1.00  0.00    -0.040 A 
HETATM    2  C   UNL     1      45.255 -11.352   6.118  1.00  0.00     0.009 A 
HETATM    3  C   UNL     1      46.086 -10.933   7.156  1.00  0.00     0.002 A 
HETATM    4  C   UNL     1      45.564 -10.178   8.204  1.00  0.00     0.017 A 
HETATM    5  C   UNL     1      44.208  -9.824   8.222  1.00  0.00     0.033 A 
HETATM    6  C   UNL     1      43.375 -10.254   7.180  1.00  0.00     0.026 A 
ENDROOT
BRANCH   1   7
HETATM    7  C   UNL     1      42.990 -11.482   5.004  1.00  0.00     0.161 C 
BRANCH   7   8
HETATM    8  N   UNL     1      43.115 -12.903   4.775  1.00  0.00    -0.353 N 
HETATM    9  C   UNL     1      42.828 -13.464   3.549  1.00  0.00     0.252 C 
HETATM   10  O   UNL     1      42.442 -12.817   2.581  1.00  0.00    -0.268 OA
HETATM   11  H   UNL     1      43.654 -13.432   5.445  1.00  0.00     0.163 HD
BRANCH   9  12
HETATM   12  C   UNL     1      43.043 -14.936   3.435  1.00  0.00     0.034 A 
HETATM   13  C   UNL     1      43.236 -15.678   4.610  1.00  0.00     0.054 A 
HETATM   14  C   UNL     1      43.449 -17.064   4.558  1.00  0.00     0.080 A 
HETATM   15  C   UNL     1      43.480 -17.717   3.305  1.00  0.00     0.010 A 
HETATM   16  C   UNL     1      43.306 -16.958   2.134  1.00  0.00     0.016 A 
HETATM   17  C   UNL     1      43.094 -15.579   2.195  1.00  0.00     0.018 A 
BRANCH  14  18
HETATM   18  O   UNL     1      43.624 -17.848   5.671  1.00  0.00    -0.355 OA
HETATM   19  C   UNL     1      43.248 -17.313   6.933  1.00  0.00     0.210 C 
ENDBRANCH  14  18
BRANCH  15  20
HETATM   20  C   UNL     1      43.713 -19.151   3.186  1.00  0.00     0.013 A 
HETATM   21  C   UNL     1      43.692 -20.007   2.060  1.00  0.00     0.152 A 
HETATM   22  N   UNL     1      43.950 -21.281   2.372  1.00  0.00    -0.187 NA
HETATM   23  N   UNL     1      44.156 -21.242   3.697  1.00  0.00    -0.289 N 
HETATM   24  H   UNL     1      44.389 -22.108   4.172  1.00  0.00     0.188 HD
HETATM   25  C   UNL     1      44.018 -19.994   4.235  1.00  0.00     0.123 A 
ENDBRANCH  15  20
ENDBRANCH   9  12
ENDBRANCH   7   8
ENDBRANCH   1   7
BRANCH   5  26
HETATM   26  C   UNL     1      43.702  -9.039   9.391  1.00  0.00     0.257 C 
HETATM   27  O   UNL     1      43.509  -7.839   9.228  1.00  0.00    -0.267 OA
HETATM   28  N   UNL     1      43.481  -9.761  10.542  1.00  0.00    -0.301 N 
HETATM   29  H   UNL     1      43.569 -10.764  10.566  1.00  0.00     0.171 HD
BRANCH  28  30
HETATM   30  C   UNL     1      43.080  -9.165  11.707  1.00  0.00     0.174 A 
HETATM   31  N   UNL     1      43.633  -8.186  12.378  1.00  0.00    -0.228 NA
HETATM   32  C   UNL     1      42.882  -7.937  13.503  1.00  0.00     0.054 A 
HETATM   33  C   UNL     1      43.224  -6.859  14.471  1.00  0.00     0.090 C 
HETATM   34  C   UNL     1      41.768  -8.734  13.664  1.00  0.00     0.039 A 
HETATM   35  C   UNL     1      42.395  -7.031  15.766  1.00  0.00     0.276 C 
HETATM   36  N   UNL     1      40.971  -7.358  15.519  1.00  0.00     0.088 N 
HETATM   37  C   UNL     1      40.835  -8.656  14.822  1.00  0.00     0.317 C 
HETATM   38  H   UNL     1      40.578  -6.636  14.913  1.00  0.00     0.316 HD
HETATM   39  S   UNL     1      41.648  -9.836  12.373  1.00  0.00    -0.053 SA
ENDBRANCH  28  30
ENDBRANCH   5  26
TORSDOF 7
ENDMDL
MODEL 3
REMARK VINA RESULT:      -8.9      3.069     12.336
REMARK  7 active torsions:
REMARK  status: ('A' for Active; 'I' for Inactive)
REMARK    1  A    between atoms: O_2  and  C_3 
REMARK    2  A    between atoms: C_5  and  C_15 
REMARK    3  A    between atoms: C_8  and  C_9 
REMARK       I    between atoms: C_15  and  N_17 
REMARK    4  A    between atoms: N_17  and  C_18 
REMARK    5  A    between atoms: C_18  and  C_19 
REMARK    6  A    between atoms: C_23  and  C_25 
REMARK       I    between atoms: C_25  and  N_27 
REMARK    7  A    between atoms: N_27  and  C_28 
ROOT
HETATM    1  C   UNL     1      43.981 -10.881   6.517  1.00  0.00    -0.040 A 
HETATM    2  C   UNL     1      45.353 -11.083   6.731  1.00  0.00     0.009 A 
HETATM    3  C   UNL     1      45.922 -10.805   7.973  1.00  0.00     0.002 A 
HETATM    4  C   UNL     1      45.128 -10.317   9.009  1.00  0.00     0.017 A 
HETATM    5  C   UNL     1      43.759 -10.092   8.814  1.00  0.00     0.033 A 
HETATM    6  C   UNL     1      43.190 -10.380   7.565  1.00  0.00     0.026 A 
ENDROOT
BRANCH   1   7
HETATM    7  C   UNL     1      43.362 -11.187   5.176  1.00  0.00     0.161 C 
BRANCH   7   8
HETATM    8  N   UNL     1      43.418 -12.600   4.880  1.00  0.00    -0.353 N 
HETATM    9  C   UNL     1      42.721 -13.144   3.824  1.00  0.00     0.252 C 
HETATM   10  O   UNL     1      42.006 -12.488   3.074  1.00  0.00    -0.268 OA
HETATM   11  H   UNL     1      44.168 -13.129   5.300  1.00  0.00     0.163 HD
BRANCH   9  12
HETATM   12  C   UNL     1      42.903 -14.609   3.602  1.00  0.00     0.034 A 
HETATM   13  C   UNL     1      42.884 -15.462   4.715  1.00  0.00     0.054 A 
HETATM   14  C   UNL     1      43.057 -16.846   4.563  1.00  0.00     0.080 A 
HETATM   15  C   UNL     1      43.262 -17.384   3.273  1.00  0.00     0.010 A 
HETATM   16  C   UNL     1      43.299 -16.515   2.168  1.00  0.00     0.016 A 
HETATM   17  C   UNL     1      43.126 -15.139   2.328  1.00  0.00     0.018 A 
BRANCH  14  18
HETATM   18  O   UNL     1      43.029 -17.735   5.608  1.00  0.00    -0.355 OA
HETATM   19  C   UNL     1      43.496 -17.294   6.876  1.00  0.00     0.210 C 
ENDBRANCH  14  18
BRANCH  15  20
HETATM   20  C   UNL     1      43.463 -18.811   3.052  1.00  0.00     0.013 A 
HETATM   21  C   UNL     1      44.062 -19.803   3.863  1.00  0.00     0.152 A 
HETATM   22  N   UNL     1      44.061 -21.011   3.291  1.00  0.00    -0.187 NA
HETATM   23  N   UNL     1      43.441 -20.801   2.120  1.00  0.00    -0.289 N 
HETATM   24  H   UNL     1      43.304 -21.593   1.502  1.00  0.00     0.188 HD
HETATM   25  C   UNL     1      43.071 -19.501   1.924  1.00  0.00     0.123 A 
ENDBRANCH  15  20
ENDBRANCH   9  12
ENDBRANCH   7   8
ENDBRANCH   1   7
BRANCH   5  26
HETATM   26  C   UNL     1      42.956  -9.598   9.975  1.00  0.00     0.257 C 
HETATM   27  O   UNL     1      43.003 -10.244  11.015  1.00  0.00    -0.267 OA
HETATM   28  N   UNL     1      42.252  -8.434   9.758  1.00  0.00    -0.301 N 
HETATM   29  H   UNL     1      42.345  -7.907   8.906  1.00  0.00     0.171 HD
BRANCH  28  30
HETATM   30  C   UNL     1      41.424  -7.899  10.708  1.00  0.00     0.174 A 
HETATM   31  N   UNL     1      40.199  -8.229  11.030  1.00  0.00    -0.228 NA
HETATM   32  C   UNL     1      39.762  -7.396  12.033  1.00  0.00     0.054 A 
HETATM   33  C   UNL     1      38.412  -7.524  12.649  1.00  0.00     0.090 C 
HETATM   34  C   UNL     1      40.668  -6.447  12.457  1.00  0.00     0.039 A 
HETATM   35  C   UNL     1      38.103  -6.273  13.505  1.00  0.00     0.276 C 
HETATM   36  N   UNL     1      39.243  -5.831  14.343  1.00  0.00     0.088 N 
HETATM   37  C   UNL     1      40.394  -5.427  13.506  1.00  0.00     0.317 C 
HETATM   38  H   UNL     1      39.539  -6.620  14.920  1.00  0.00     0.316 HD
HETATM   39  S   UNL     1      42.117  -6.590  11.575  1.00  0.00    -0.053 SA
ENDBRANCH  28  30
ENDBRANCH   5  26
TORSDOF 7
ENDMDL
MODEL 4
REMARK VINA RESULT:      -8.8      4.252      5.486
REMARK  7 active torsions:
REMARK  status: ('A' for Active; 'I' for Inactive)
REMARK    1  A    between atoms: O_2  and  C_3 
REMARK    2  A    between atoms: C_5  and  C_15 
REMARK    3  A    between atoms: C_8  and  C_9 
REMARK       I    between atoms: C_15  and  N_17 
REMARK    4  A    between atoms: N_17  and  C_18 
REMARK    5  A    between atoms: C_18  and  C_19 
REMARK    6  A    between atoms: C_23  and  C_25 
REMARK       I    between atoms: C_25  and  N_27 
REMARK    7  A    between atoms: N_27  and  C_28 
ROOT
HETATM    1  C   UNL     1      43.134 -13.586   6.312  1.00  0.00    -0.040 A 
HETATM    2  C   UNL     1      42.742 -14.711   7.052  1.00  0.00     0.009 A 
HETATM    3  C   UNL     1      41.682 -15.507   6.620  1.00  0.00     0.002 A 
HETATM    4  C   UNL     1      41.000 -15.183   5.448  1.00  0.00     0.017 A 
HETATM    5  C   UNL     1      41.364 -14.055   4.701  1.00  0.00     0.033 A 
HETATM    6  C   UNL     1      42.435 -13.261   5.136  1.00  0.00     0.026 A 
ENDROOT
BRANCH   1   7
HETATM    7  C   UNL     1      44.285 -12.729   6.774  1.00  0.00     0.161 C 
BRANCH   7   8
HETATM    8  N   UNL     1      43.917 -11.925   7.916  1.00  0.00    -0.353 N 
HETATM    9  C   UNL     1      44.585 -10.759   8.225  1.00  0.00     0.252 C 
HETATM   10  O   UNL     1      45.530 -10.328   7.573  1.00  0.00    -0.268 OA
HETATM   11  H   UNL     1      43.011 -12.097   8.328  1.00  0.00     0.163 HD
BRANCH   9  12
HETATM   12  C   UNL     1      44.073 -10.002   9.404  1.00  0.00     0.034 A 
HETATM   13  C   UNL     1      43.806  -8.633   9.256  1.00  0.00     0.054 A 
HETATM   14  C   UNL     1      43.330  -7.873  10.335  1.00  0.00     0.080 A 
HETATM   15  C   UNL     1      43.126  -8.493  11.587  1.00  0.00     0.010 A 
HETATM   16  C   UNL     1      43.416  -9.862  11.728  1.00  0.00     0.016 A 
HETATM   17  C   UNL     1      43.890 -10.611  10.648  1.00  0.00     0.018 A 
BRANCH  14  18
HETATM   18  O   UNL     1      43.032  -6.535  10.249  1.00  0.00    -0.355 OA
HETATM   19  C   UNL     1      41.945  -6.142   9.422  1.00  0.00     0.210 C 
ENDBRANCH  14  18
BRANCH  15  20
HETATM   20  C   UNL     1      42.647  -7.754  12.749  1.00  0.00     0.013 A 
HETATM   21  C   UNL     1      41.346  -7.333  13.113  1.00  0.00     0.152 A 
HETATM   22  N   UNL     1      41.323  -6.659  14.267  1.00  0.00    -0.187 NA
HETATM   23  N   UNL     1      42.607  -6.663  14.657  1.00  0.00    -0.289 N 
HETATM   24  H   UNL     1      42.843  -6.214  15.535  1.00  0.00     0.188 HD
HETATM   25  C   UNL     1      43.441  -7.298  13.781  1.00  0.00     0.123 A 
ENDBRANCH  15  20
ENDBRANCH   9  12
ENDBRANCH   7   8
ENDBRANCH   1   7
BRANCH   5  26
HETATM   26  C   UNL     1      40.613 -13.778   3.437  1.00  0.00     0.257 C 
HETATM   27  O   UNL     1      39.458 -13.381   3.537  1.00  0.00    -0.267 OA
HETATM   28  N   UNL     1      41.317 -13.981   2.271  1.00  0.00    -0.301 N 
HETATM   29  H   UNL     1      42.297 -14.213   2.274  1.00  0.00     0.171 HD
BRANCH  28  30
HETATM   30  C   UNL     1      40.740 -13.830   1.039  1.00  0.00     0.174 A 
HETATM   31  N   UNL     1      40.131 -14.713   0.288  1.00  0.00    -0.228 NA
HETATM   32  C   UNL     1      39.731 -14.104  -0.879  1.00  0.00     0.054 A 
HETATM   33  C   UNL     1      38.981 -14.828  -1.943  1.00  0.00     0.090 C 
HETATM   34  C   UNL     1      40.043 -12.766  -0.990  1.00  0.00     0.039 A 
HETATM   35  C   UNL     1      38.954 -13.981  -3.238  1.00  0.00     0.276 C 
HETATM   36  N   UNL     1      38.671 -12.546  -3.001  1.00  0.00     0.088 N 
HETATM   37  C   UNL     1      39.731 -11.923  -2.178  1.00  0.00     0.317 C 
HETATM   38  H   UNL     1      37.794 -12.474  -2.484  1.00  0.00     0.316 HD
HETATM   39  S   UNL     1      40.867 -12.241   0.403  1.00  0.00    -0.053 SA
ENDBRANCH  28  30
ENDBRANCH   5  26
TORSDOF 7
ENDMDL
MODEL 5
REMARK VINA RESULT:      -8.7      3.348     12.157
REMARK  7 active torsions:
REMARK  status: ('A' for Active; 'I' for Inactive)
REMARK    1  A    between atoms: O_2  and  C_3 
REMARK    2  A    between atoms: C_5  and  C_15 
REMARK    3  A    between atoms: C_8  and  C_9 
REMARK       I    between atoms: C_15  and  N_17 
REMARK    4  A    between atoms: N_17  and  C_18 
REMARK    5  A    between atoms: C_18  and  C_19 
REMARK    6  A    between atoms: C_23  and  C_25 
REMARK       I    between atoms: C_25  and  N_27 
REMARK    7  A    between atoms: N_27  and  C_28 
ROOT
HETATM    1  C   UNL     1      42.114 -10.758   4.536  1.00  0.00    -0.040 A 
HETATM    2  C   UNL     1      40.736 -10.972   4.382  1.00  0.00     0.009 A 
HETATM    3  C   UNL     1      39.836 -10.493   5.333  1.00  0.00     0.002 A 
HETATM    4  C   UNL     1      40.304  -9.802   6.449  1.00  0.00     0.017 A 
HETATM    5  C   UNL     1      41.677  -9.591   6.633  1.00  0.00     0.033 A 
HETATM    6  C   UNL     1      42.578 -10.069   5.670  1.00  0.00     0.026 A 
ENDROOT
BRANCH   1   7
HETATM    7  C   UNL     1      43.088 -11.270   3.506  1.00  0.00     0.161 C 
BRANCH   7   8
HETATM    8  N   UNL     1      43.229 -12.706   3.581  1.00  0.00    -0.353 N 
HETATM    9  C   UNL     1      42.669 -13.537   2.635  1.00  0.00     0.252 C 
HETATM   10  O   UNL     1      42.013 -13.132   1.681  1.00  0.00    -0.268 OA
HETATM   11  H   UNL     1      43.951 -13.066   4.188  1.00  0.00     0.163 HD
BRANCH   9  12
HETATM   12  C   UNL     1      42.930 -14.996   2.806  1.00  0.00     0.034 A 
HETATM   13  C   UNL     1      42.951 -15.524   4.105  1.00  0.00     0.054 A 
HETATM   14  C   UNL     1      43.199 -16.888   4.322  1.00  0.00     0.080 A 
HETATM   15  C   UNL     1      43.439 -17.736   3.218  1.00  0.00     0.010 A 
HETATM   16  C   UNL     1      43.434 -17.190   1.923  1.00  0.00     0.016 A 
HETATM   17  C   UNL     1      43.186 -15.831   1.716  1.00  0.00     0.018 A 
BRANCH  14  18
HETATM   18  O   UNL     1      43.213 -17.470   5.566  1.00  0.00    -0.355 OA
HETATM   19  C   UNL     1      42.583 -16.778   6.637  1.00  0.00     0.210 C 
ENDBRANCH  14  18
BRANCH  15  20
HETATM   20  C   UNL     1      43.716 -19.158   3.381  1.00  0.00     0.013 A 
HETATM   21  C   UNL     1      43.588 -20.241   2.479  1.00  0.00     0.152 A 
HETATM   22  N   UNL     1      43.939 -21.411   3.021  1.00  0.00    -0.187 NA
HETATM   23  N   UNL     1      44.312 -21.080   4.266  1.00  0.00    -0.289 N 
HETATM   24  H   UNL     1      44.642 -21.817   4.880  1.00  0.00     0.188 HD
HETATM   25  C   UNL     1      44.190 -19.746   4.535  1.00  0.00     0.123 A 
ENDBRANCH  15  20
ENDBRANCH   9  12
ENDBRANCH   7   8
ENDBRANCH   1   7
BRANCH   5  26
HETATM   26  C   UNL     1      42.114  -8.816   7.835  1.00  0.00     0.257 C 
HETATM   27  O   UNL     1      43.124  -8.130   7.732  1.00  0.00    -0.267 OA
HETATM   28  N   UNL     1      41.310  -8.939   8.947  1.00  0.00    -0.301 N 
HETATM   29  H   UNL     1      40.440  -9.445   8.921  1.00  0.00     0.171 HD
BRANCH  28  30
HETATM   30  C   UNL     1      41.621  -8.339  10.137  1.00  0.00     0.174 A 
HETATM   31  N   UNL     1      42.435  -8.733  11.084  1.00  0.00    -0.228 NA
HETATM   32  C   UNL     1      42.409  -7.812  12.105  1.00  0.00     0.054 A 
HETATM   33  C   UNL     1      43.248  -7.948  13.327  1.00  0.00     0.090 C 
HETATM   34  C   UNL     1      41.574  -6.731  11.912  1.00  0.00     0.039 A 
HETATM   35  C   UNL     1      42.772  -6.948  14.408  1.00  0.00     0.276 C 
HETATM   36  N   UNL     1      42.481  -5.596  13.876  1.00  0.00     0.088 N 
HETATM   37  C   UNL     1      41.371  -5.635  12.899  1.00  0.00     0.317 C 
HETATM   38  H   UNL     1      43.313  -5.258  13.390  1.00  0.00     0.316 HD
HETATM   39  S   UNL     1      40.788  -6.863  10.409  1.00  0.00    -0.053 SA
ENDBRANCH  28  30
ENDBRANCH   5  26
TORSDOF 7
ENDMDL
MODEL 6
REMARK VINA RESULT:      -8.6      2.504      3.967
REMARK  7 active torsions:
REMARK  status: ('A' for Active; 'I' for Inactive)
REMARK    1  A    between atoms: O_2  and  C_3 
REMARK    2  A    between atoms: C_5  and  C_15 
REMARK    3  A    between atoms: C_8  and  C_9 
REMARK       I    between atoms: C_15  and  N_17 
REMARK    4  A    between atoms: N_17  and  C_18 
REMARK    5  A    between atoms: C_18  and  C_19 
REMARK    6  A    between atoms: C_23  and  C_25 
REMARK       I    between atoms: C_25  and  N_27 
REMARK    7  A    between atoms: N_27  and  C_28 
ROOT
HETATM    1  C   UNL     1      43.159  -9.034   9.287  1.00  0.00    -0.040 A 
HETATM    2  C   UNL     1      44.326  -8.730  10.003  1.00  0.00     0.009 A 
HETATM    3  C   UNL     1      45.493  -9.464   9.796  1.00  0.00     0.002 A 
HETATM    4  C   UNL     1      45.503 -10.512   8.877  1.00  0.00     0.017 A 
HETATM    5  C   UNL     1      44.344 -10.846   8.163  1.00  0.00     0.033 A 
HETATM    6  C   UNL     1      43.175 -10.099   8.370  1.00  0.00     0.026 A 
ENDROOT
BRANCH   1   7
HETATM    7  C   UNL     1      41.898  -8.237   9.505  1.00  0.00     0.161 C 
BRANCH   7   8
HETATM    8  N   UNL     1      41.729  -7.888  10.897  1.00  0.00    -0.353 N 
HETATM    9  C   UNL     1      40.996  -8.678  11.756  1.00  0.00     0.252 C 
HETATM   10  O   UNL     1      40.435  -9.712  11.412  1.00  0.00    -0.268 OA
HETATM   11  H   UNL     1      42.362  -7.200  11.279  1.00  0.00     0.163 HD
BRANCH   9  12
HETATM   12  C   UNL     1      40.941  -8.226  13.177  1.00  0.00     0.034 A 
HETATM   13  C   UNL     1      39.997  -7.251  13.533  1.00  0.00     0.054 A 
HETATM   14  C   UNL     1      39.908  -6.786  14.853  1.00  0.00     0.080 A 
HETATM   15  C   UNL     1      40.785  -7.301  15.833  1.00  0.00     0.010 A 
HETATM   16  C   UNL     1      41.739  -8.263  15.459  1.00  0.00     0.016 A 
HETATM   17  C   UNL     1      41.822  -8.721  14.142  1.00  0.00     0.018 A 
BRANCH  14  18
HETATM   18  O   UNL     1      38.994  -5.849  15.269  1.00  0.00    -0.355 OA
HETATM   19  C   UNL     1      39.095  -4.534  14.740  1.00  0.00     0.210 C 
ENDBRANCH  14  18
BRANCH  15  20
HETATM   20  C   UNL     1      40.750  -6.847  17.219  1.00  0.00     0.013 A 
HETATM   21  C   UNL     1      41.333  -5.720  17.844  1.00  0.00     0.152 A 
HETATM   22  N   UNL     1      41.073  -5.661  19.154  1.00  0.00    -0.187 NA
HETATM   23  N   UNL     1      40.305  -6.740  19.368  1.00  0.00    -0.289 N 
HETATM   24  H   UNL     1      39.961  -6.905  20.308  1.00  0.00     0.188 HD
HETATM   25  C   UNL     1      40.088  -7.487  18.246  1.00  0.00     0.123 A 
ENDBRANCH  15  20
ENDBRANCH   9  12
ENDBRANCH   7   8
ENDBRANCH   1   7
BRANCH   5  26
HETATM   26  C   UNL     1      44.427 -11.961   7.170  1.00  0.00     0.257 C 
HETATM   27  O   UNL     1      45.334 -11.921   6.346  1.00  0.00    -0.267 OA
HETATM   28  N   UNL     1      43.474 -12.945   7.300  1.00  0.00    -0.301 N 
HETATM   29  H   UNL     1      42.821 -12.957   8.067  1.00  0.00     0.171 HD
BRANCH  28  30
HETATM   30  C   UNL     1      43.388 -13.992   6.423  1.00  0.00     0.174 A 
HETATM   31  N   UNL     1      43.879 -15.203   6.515  1.00  0.00    -0.228 NA
HETATM   32  C   UNL     1      43.553 -15.904   5.378  1.00  0.00     0.054 A 
HETATM   33  C   UNL     1      43.939 -17.328   5.177  1.00  0.00     0.090 C 
HETATM   34  C   UNL     1      42.815 -15.211   4.442  1.00  0.00     0.039 A 
HETATM   35  C   UNL     1      43.712 -17.733   3.701  1.00  0.00     0.276 C 
HETATM   36  N   UNL     1      42.428 -17.246   3.144  1.00  0.00     0.088 N 
HETATM   37  C   UNL     1      42.381 -15.767   3.130  1.00  0.00     0.317 C 
HETATM   38  H   UNL     1      41.673 -17.575   3.747  1.00  0.00     0.316 HD
HETATM   39  S   UNL     1      42.517 -13.628   4.989  1.00  0.00    -0.053 SA
ENDBRANCH  28  30
ENDBRANCH   5  26
TORSDOF 7
ENDMDL
MODEL 7
REMARK VINA RESULT:      -8.6      4.864     11.472
REMARK  7 active torsions:
REMARK  status: ('A' for Active; 'I' for Inactive)
REMARK    1  A    between atoms: O_2  and  C_3 
REMARK    2  A    between atoms: C_5  and  C_15 
REMARK    3  A    between atoms: C_8  and  C_9 
REMARK       I    between atoms: C_15  and  N_17 
REMARK    4  A    between atoms: N_17  and  C_18 
REMARK    5  A    between atoms: C_18  and  C_19 
REMARK    6  A    between atoms: C_23  and  C_25 
REMARK       I    between atoms: C_25  and  N_27 
REMARK    7  A    between atoms: N_27  and  C_28 
ROOT
HETATM    1  C   UNL     1      42.833 -16.834   3.617  1.00  0.00    -0.040 A 
HETATM    2  C   UNL     1      43.570 -17.958   4.019  1.00  0.00     0.009 A 
HETATM    3  C   UNL     1      44.250 -17.959   5.236  1.00  0.00     0.002 A 
HETATM    4  C   UNL     1      44.207 -16.834   6.058  1.00  0.00     0.017 A 
HETATM    5  C   UNL     1      43.492 -15.693   5.669  1.00  0.00     0.033 A 
HETATM    6  C   UNL     1      42.803 -15.701   4.448  1.00  0.00     0.026 A 
ENDROOT
BRANCH   1   7
HETATM    7  C   UNL     1      42.092 -16.834   2.304  1.00  0.00     0.161 C 
BRANCH   7   8
HETATM    8  N   UNL     1      42.021 -15.507   1.738  1.00  0.00    -0.353 N 
HETATM    9  C   UNL     1      40.852 -15.012   1.203  1.00  0.00     0.252 C 
HETATM   10  O   UNL     1      39.804 -15.648   1.158  1.00  0.00    -0.268 OA
HETATM   11  H   UNL     1      42.766 -14.867   1.971  1.00  0.00     0.163 HD
BRANCH   9  12
HETATM   12  C   UNL     1      40.905 -13.610   0.694  1.00  0.00     0.034 A 
HETATM   13  C   UNL     1      40.539 -13.367  -0.638  1.00  0.00     0.054 A 
HETATM   14  C   UNL     1      40.578 -12.069  -1.168  1.00  0.00     0.080 A 
HETATM   15  C   UNL     1      41.000 -10.996  -0.353  1.00  0.00     0.010 A 
HETATM   16  C   UNL     1      41.384 -11.256   0.975  1.00  0.00     0.016 A 
HETATM   17  C   UNL     1      41.342 -12.552   1.495  1.00  0.00     0.018 A 
BRANCH  14  18
HETATM   18  O   UNL     1      40.214 -11.763  -2.456  1.00  0.00    -0.355 OA
HETATM   19  C   UNL     1      38.856 -11.953  -2.832  1.00  0.00     0.210 C 
ENDBRANCH  14  18
BRANCH  15  20
HETATM   20  C   UNL     1      41.076  -9.628  -0.851  1.00  0.00     0.013 A 
HETATM   21  C   UNL     1      42.128  -8.923  -1.481  1.00  0.00     0.152 A 
HETATM   22  N   UNL     1      41.801  -7.663  -1.781  1.00  0.00    -0.187 NA
HETATM   23  N   UNL     1      40.531  -7.561  -1.363  1.00  0.00    -0.289 N 
HETATM   24  H   UNL     1      40.049  -6.679  -1.500  1.00  0.00     0.188 HD
HETATM   25  C   UNL     1      40.051  -8.705  -0.791  1.00  0.00     0.123 A 
ENDBRANCH  15  20
ENDBRANCH   9  12
ENDBRANCH   7   8
ENDBRANCH   1   7
BRANCH   5  26
HETATM   26  C   UNL     1      43.459 -14.531   6.610  1.00  0.00     0.257 C 
HETATM   27  O   UNL     1      43.057 -14.734   7.750  1.00  0.00    -0.267 OA
HETATM   28  N   UNL     1      43.912 -13.337   6.096  1.00  0.00    -0.301 N 
HETATM   29  H   UNL     1      44.321 -13.273   5.178  1.00  0.00     0.171 HD
BRANCH  28  30
HETATM   30  C   UNL     1      43.880 -12.176   6.820  1.00  0.00     0.174 A 
HETATM   31  N   UNL     1      44.563 -11.835   7.884  1.00  0.00    -0.228 NA
HETATM   32  C   UNL     1      44.178 -10.574   8.276  1.00  0.00     0.054 A 
HETATM   33  C   UNL     1      44.786  -9.878   9.443  1.00  0.00     0.090 C 
HETATM   34  C   UNL     1      43.208  -9.979   7.498  1.00  0.00     0.039 A 
HETATM   35  C   UNL     1      43.941  -8.637   9.816  1.00  0.00     0.276 C 
HETATM   36  N   UNL     1      43.509  -7.841   8.643  1.00  0.00     0.088 N 
HETATM   37  C   UNL     1      42.626  -8.633   7.758  1.00  0.00     0.317 C 
HETATM   38  H   UNL     1      44.339  -7.586   8.107  1.00  0.00     0.316 HD
HETATM   39  S   UNL     1      42.753 -11.022   6.233  1.00  0.00    -0.053 SA
ENDBRANCH  28  30
ENDBRANCH   5  26
TORSDOF 7
ENDMDL
MODEL 8
REMARK VINA RESULT:      -8.4      3.020     12.473
REMARK  7 active torsions:
REMARK  status: ('A' for Active; 'I' for Inactive)
REMARK    1  A    between atoms: O_2  and  C_3 
REMARK    2  A    between atoms: C_5  and  C_15 
REMARK    3  A    between atoms: C_8  and  C_9 
REMARK       I    between atoms: C_15  and  N_17 
REMARK    4  A    between atoms: N_17  and  C_18 
REMARK    5  A    between atoms: C_18  and  C_19 
REMARK    6  A    between atoms: C_23  and  C_25 
REMARK       I    between atoms: C_25  and  N_27 
REMARK    7  A    between atoms: N_27  and  C_28 
ROOT
HETATM    1  C   UNL     1      43.364  -9.907   8.295  1.00  0.00    -0.040 A 
HETATM    2  C   UNL     1      44.740 -10.167   8.381  1.00  0.00     0.009 A 
HETATM    3  C   UNL     1      45.401 -10.073   9.605  1.00  0.00     0.002 A 
HETATM    4  C   UNL     1      44.696  -9.713  10.752  1.00  0.00     0.017 A 
HETATM    5  C   UNL     1      43.325  -9.432  10.688  1.00  0.00     0.033 A 
HETATM    6  C   UNL     1      42.662  -9.535   9.456  1.00  0.00     0.026 A 
ENDROOT
BRANCH   1   7
HETATM    7  C   UNL     1      42.646 -10.014   6.974  1.00  0.00     0.161 C 
BRANCH   7   8
HETATM    8  N   UNL     1      42.767 -11.340   6.414  1.00  0.00    -0.353 N 
HETATM    9  C   UNL     1      42.254 -11.649   5.173  1.00  0.00     0.252 C 
HETATM   10  O   UNL     1      41.659 -10.843   4.466  1.00  0.00    -0.268 OA
HETATM   11  H   UNL     1      43.449 -11.956   6.833  1.00  0.00     0.163 HD
BRANCH   9  12
HETATM   12  C   UNL     1      42.490 -13.043   4.694  1.00  0.00     0.034 A 
HETATM   13  C   UNL     1      42.262 -14.104   5.583  1.00  0.00     0.054 A 
HETATM   14  C   UNL     1      42.475 -15.432   5.185  1.00  0.00     0.080 A 
HETATM   15  C   UNL     1      42.933 -15.702   3.877  1.00  0.00     0.010 A 
HETATM   16  C   UNL     1      43.177 -14.628   3.002  1.00  0.00     0.016 A 
HETATM   17  C   UNL     1      42.963 -13.309   3.406  1.00  0.00     0.018 A 
BRANCH  14  18
HETATM   18  O   UNL     1      42.251 -16.514   6.000  1.00  0.00    -0.355 OA
HETATM   19  C   UNL     1      42.941 -16.573   7.241  1.00  0.00     0.210 C 
ENDBRANCH  14  18
BRANCH  15  20
HETATM   20  C   UNL     1      43.187 -17.060   3.410  1.00  0.00     0.013 A 
HETATM   21  C   UNL     1      44.098 -18.044   3.860  1.00  0.00     0.152 A 
HETATM   22  N   UNL     1      44.031 -19.176   3.152  1.00  0.00    -0.187 NA
HETATM   23  N   UNL     1      43.061 -18.928   2.259  1.00  0.00    -0.289 N 
HETATM   24  H   UNL     1      42.811 -19.663   1.605  1.00  0.00     0.188 HD
HETATM   25  C   UNL     1      42.528 -17.675   2.365  1.00  0.00     0.123 A 
ENDBRANCH  15  20
ENDBRANCH   9  12
ENDBRANCH   7   8
ENDBRANCH   1   7
BRANCH   5  26
HETATM   26  C   UNL     1      42.619  -9.081  11.959  1.00  0.00     0.257 C 
HETATM   27  O   UNL     1      42.264 -10.003  12.684  1.00  0.00    -0.267 OA
HETATM   28  N   UNL     1      42.459  -7.735  12.198  1.00  0.00    -0.301 N 
HETATM   29  H   UNL     1      42.868  -7.036  11.601  1.00  0.00     0.171 HD
BRANCH  28  30
HETATM   30  C   UNL     1      41.776  -7.268  13.288  1.00  0.00     0.174 A 
HETATM   31  N   UNL     1      40.509  -6.961  13.413  1.00  0.00    -0.228 NA
HETATM   32  C   UNL     1      40.283  -6.513  14.694  1.00  0.00     0.054 A 
HETATM   33  C   UNL     1      38.933  -6.108  15.173  1.00  0.00     0.090 C 
HETATM   34  C   UNL     1      41.386  -6.492  15.521  1.00  0.00     0.039 A 
HETATM   35  C   UNL     1      39.054  -5.366  16.526  1.00  0.00     0.276 C 
HETATM   36  N   UNL     1      39.996  -6.011  17.472  1.00  0.00     0.088 N 
HETATM   37  C   UNL     1      41.373  -6.017  16.932  1.00  0.00     0.317 C 
HETATM   38  H   UNL     1      39.707  -6.982  17.598  1.00  0.00     0.316 HD
HETATM   39  S   UNL     1      42.758  -7.043  14.678  1.00  0.00    -0.053 SA
ENDBRANCH  28  30
ENDBRANCH   5  26
TORSDOF 7
ENDMDL
MODEL 9
REMARK VINA RESULT:      -8.4      6.040     12.367
REMARK  7 active torsions:
REMARK  status: ('A' for Active; 'I' for Inactive)
REMARK    1  A    between atoms: O_2  and  C_3 
REMARK    2  A    between atoms: C_5  and  C_15 
REMARK    3  A    between atoms: C_8  and  C_9 
REMARK       I    between atoms: C_15  and  N_17 
REMARK    4  A    between atoms: N_17  and  C_18 
REMARK    5  A    between atoms: C_18  and  C_19 
REMARK    6  A    between atoms: C_23  and  C_25 
REMARK       I    between atoms: C_25  and  N_27 
REMARK    7  A    between atoms: N_27  and  C_28 
ROOT
HETATM    1  C   UNL     1      41.177 -15.933   2.405  1.00  0.00    -0.040 A 
HETATM    2  C   UNL     1      42.006 -17.060   2.301  1.00  0.00     0.009 A 
HETATM    3  C   UNL     1      43.046 -17.258   3.207  1.00  0.00     0.002 A 
HETATM    4  C   UNL     1      43.273 -16.330   4.221  1.00  0.00     0.017 A 
HETATM    5  C   UNL     1      42.470 -15.188   4.335  1.00  0.00     0.033 A 
HETATM    6  C   UNL     1      41.419 -14.996   3.426  1.00  0.00     0.026 A 
ENDROOT
BRANCH   1   7
HETATM    7  C   UNL     1      40.047 -15.720   1.430  1.00  0.00     0.161 C 
BRANCH   7   8
HETATM    8  N   UNL     1      40.265 -14.545   0.619  1.00  0.00    -0.353 N 
HETATM    9  C   UNL     1      39.783 -14.457  -0.669  1.00  0.00     0.252 C 
HETATM   10  O   UNL     1      39.154 -15.354  -1.219  1.00  0.00    -0.268 OA
HETATM   11  H   UNL     1      40.551 -13.702   1.097  1.00  0.00     0.163 HD
BRANCH   9  12
HETATM   12  C   UNL     1      40.039 -13.169  -1.379  1.00  0.00     0.034 A 
HETATM   13  C   UNL     1      39.495 -11.991  -0.845  1.00  0.00     0.054 A 
HETATM   14  C   UNL     1      39.700 -10.755  -1.477  1.00  0.00     0.080 A 
HETATM   15  C   UNL     1      40.455 -10.700  -2.669  1.00  0.00     0.010 A 
HETATM   16  C   UNL     1      40.977 -11.890  -3.204  1.00  0.00     0.016 A 
HETATM   17  C   UNL     1      40.769 -13.117  -2.569  1.00  0.00     0.018 A 
BRANCH  14  18
HETATM   18  O   UNL     1      39.212  -9.566  -0.995  1.00  0.00    -0.355 OA
HETATM   19  C   UNL     1      39.507  -9.216   0.351  1.00  0.00     0.210 C 
ENDBRANCH  14  18
BRANCH  15  20
HETATM   20  C   UNL     1      40.689  -9.448  -3.379  1.00  0.00     0.013 A 
HETATM   21  C   UNL     1      40.106  -8.921  -4.555  1.00  0.00     0.152 A 
HETATM   22  N   UNL     1      40.607  -7.730  -4.894  1.00  0.00    -0.187 NA
HETATM   23  N   UNL     1      41.499  -7.479  -3.924  1.00  0.00    -0.289 N 
HETATM   24  H   UNL     1      42.009  -6.603  -3.956  1.00  0.00     0.188 HD
HETATM   25  C   UNL     1      41.593  -8.478  -2.997  1.00  0.00     0.123 A 
ENDBRANCH  15  20
ENDBRANCH   9  12
ENDBRANCH   7   8
ENDBRANCH   1   7
BRANCH   5  26
HETATM   26  C   UNL     1      42.744 -14.245   5.463  1.00  0.00     0.257 C 
HETATM   27  O   UNL     1      42.307 -14.540   6.570  1.00  0.00    -0.267 OA
HETATM   28  N   UNL     1      43.493 -13.135   5.142  1.00  0.00    -0.301 N 
HETATM   29  H   UNL     1      43.901 -13.014   4.230  1.00  0.00     0.171 HD
BRANCH  28  30
HETATM   30  C   UNL     1      43.768 -12.155   6.057  1.00  0.00     0.174 A 
HETATM   31  N   UNL     1      44.781 -12.039   6.879  1.00  0.00    -0.228 NA
HETATM   32  C   UNL     1      44.620 -10.896   7.627  1.00  0.00     0.054 A 
HETATM   33  C   UNL     1      45.617 -10.455   8.641  1.00  0.00     0.090 C 
HETATM   34  C   UNL     1      43.484 -10.162   7.355  1.00  0.00     0.039 A 
HETATM   35  C   UNL     1      45.014  -9.334   9.520  1.00  0.00     0.276 C 
HETATM   36  N   UNL     1      44.267  -8.313   8.748  1.00  0.00     0.088 N 
HETATM   37  C   UNL     1      43.098  -8.912   8.065  1.00  0.00     0.317 C 
HETATM   38  H   UNL     1      44.888  -7.938   8.030  1.00  0.00     0.316 HD
HETATM   39  S   UNL     1      42.579 -10.920   6.130  1.00  0.00    -0.053 SA
ENDBRANCH  28  30
ENDBRANCH   5  26
TORSDOF 7
ENDMDL
MODEL 10
REMARK VINA RESULT:      -8.4      6.244     10.570
REMARK  7 active torsions:
REMARK  status: ('A' for Active; 'I' for Inactive)
REMARK    1  A    between atoms: O_2  and  C_3 
REMARK    2  A    between atoms: C_5  and  C_15 
REMARK    3  A    between atoms: C_8  and  C_9 
REMARK       I    between atoms: C_15  and  N_17 
REMARK    4  A    between atoms: N_17  and  C_18 
REMARK    5  A    between atoms: C_18  and  C_19 
REMARK    6  A    between atoms: C_23  and  C_25 
REMARK       I    between atoms: C_25  and  N_27 
REMARK    7  A    between atoms: N_27  and  C_28 
ROOT
HETATM    1  C   UNL     1      39.872 -14.376  -0.299  1.00  0.00    -0.040 A 
HETATM    2  C   UNL     1      39.484 -15.015  -1.486  1.00  0.00     0.009 A 
HETATM    3  C   UNL     1      39.406 -14.300  -2.681  1.00  0.00     0.002 A 
HETATM    4  C   UNL     1      39.708 -12.939  -2.699  1.00  0.00     0.017 A 
HETATM    5  C   UNL     1      40.081 -12.276  -1.523  1.00  0.00     0.033 A 
HETATM    6  C   UNL     1      40.165 -13.001  -0.325  1.00  0.00     0.026 A 
ENDROOT
BRANCH   1   7
HETATM    7  C   UNL     1      39.963 -15.149   0.992  1.00  0.00     0.161 C 
BRANCH   7   8
HETATM    8  N   UNL     1      40.768 -14.452   1.968  1.00  0.00    -0.353 N 
HETATM    9  C   UNL     1      41.007 -14.981   3.218  1.00  0.00     0.252 C 
HETATM   10  O   UNL     1      40.556 -16.058   3.594  1.00  0.00    -0.268 OA
HETATM   11  H   UNL     1      41.354 -13.702   1.631  1.00  0.00     0.163 HD
BRANCH   9  12
HETATM   12  C   UNL     1      41.892 -14.180   4.112  1.00  0.00     0.034 A 
HETATM   13  C   UNL     1      41.943 -12.789   3.933  1.00  0.00     0.054 A 
HETATM   14  C   UNL     1      42.764 -11.990   4.742  1.00  0.00     0.080 A 
HETATM   15  C   UNL     1      43.556 -12.595   5.743  1.00  0.00     0.010 A 
HETATM   16  C   UNL     1      43.511 -13.992   5.899  1.00  0.00     0.016 A 
HETATM   17  C   UNL     1      42.691 -14.780   5.089  1.00  0.00     0.018 A 
BRANCH  14  18
HETATM   18  O   UNL     1      42.843 -10.624   4.630  1.00  0.00    -0.355 OA
HETATM   19  C   UNL     1      41.821  -9.950   3.908  1.00  0.00     0.210 C 
ENDBRANCH  14  18
BRANCH  15  20
HETATM   20  C   UNL     1      44.440 -11.820   6.605  1.00  0.00     0.013 A 
HETATM   21  C   UNL     1      45.769 -11.374   6.415  1.00  0.00     0.152 A 
HETATM   22  N   UNL     1      46.240 -10.689   7.462  1.00  0.00    -0.187 NA
HETATM   23  N   UNL     1      45.207 -10.676   8.318  1.00  0.00    -0.289 N 
HETATM   24  H   UNL     1      45.321 -10.190   9.201  1.00  0.00     0.188 HD
HETATM   25  C   UNL     1      44.109 -11.346   7.857  1.00  0.00     0.123 A 
ENDBRANCH  15  20
ENDBRANCH   9  12
ENDBRANCH   7   8
ENDBRANCH   1   7
BRANCH   5  26
HETATM   26  C   UNL     1      40.423 -10.823  -1.614  1.00  0.00     0.257 C 
HETATM   27  O   UNL     1      39.795 -10.141  -2.416  1.00  0.00    -0.267 OA
HETATM   28  N   UNL     1      41.409 -10.388  -0.757  1.00  0.00    -0.301 N 
HETATM   29  H   UNL     1      41.808 -10.990  -0.055  1.00  0.00     0.171 HD
BRANCH  28  30
HETATM   30  C   UNL     1      41.869  -9.099  -0.774  1.00  0.00     0.174 A 
HETATM   31  N   UNL     1      42.916  -8.593  -1.375  1.00  0.00    -0.228 NA
HETATM   32  C   UNL     1      42.990  -7.250  -1.088  1.00  0.00     0.054 A 
HETATM   33  C   UNL     1      44.055  -6.370  -1.644  1.00  0.00     0.090 C 
HETATM   34  C   UNL     1      41.991  -6.760  -0.273  1.00  0.00     0.039 A 
HETATM   35  C   UNL     1      44.056  -5.012  -0.902  1.00  0.00     0.276 C 
HETATM   36  N   UNL     1      42.700  -4.457  -0.680  1.00  0.00     0.088 N 
HETATM   37  C   UNL     1      41.895  -5.347   0.186  1.00  0.00     0.317 C 
HETATM   38  H   UNL     1      42.230  -4.393  -1.584  1.00  0.00     0.316 HD
HETATM   39  S   UNL     1      40.922  -8.012   0.158  1.00  0.00    -0.053 SA
ENDBRANCH  28  30
ENDBRANCH   5  26
TORSDOF 7
ENDMDL
