MODEL 1
REMARK VINA RESULT:      -8.6      0.000      0.000
REMARK  8 active torsions:
REMARK  status: ('A' for Active; 'I' for Inactive)
REMARK    1  A    between atoms: N_4  and  C_5 
REMARK    2  A    between atoms: C_14  and  C_15 
REMARK    3  A    between atoms: C_15  and  C_16 
REMARK    4  A    between atoms: C_16  and  C_17 
REMARK       I    between atoms: C_17  and  N_18 
REMARK    5  A    between atoms: N_18  and  C_19 
REMARK    6  A    between atoms: C_22  and  S_23 
REMARK    7  A    between atoms: S_23  and  N_24 
REMARK    8  A    between atoms: N_24  and  C_25 
ROOT
HETATM    1  C   UNL     1      40.419 -12.392   4.251  1.00  0.00     0.222 C 
HETATM    2  N   UNL     1      39.528 -13.121   3.484  1.00  0.00    -0.327 N 
HETATM    3  O   UNL     1      41.353 -11.712   3.837  1.00  0.00    -0.273 OA
HETATM    4  H   UNL     1      38.805 -13.629   3.977  1.00  0.00     0.169 HD
ENDROOT
BRANCH   1   5
HETATM    5  C   UNL     1      40.153 -12.487   5.743  1.00  0.00     0.108 C 
BRANCH   5   6
HETATM    6  C   UNL     1      40.227 -13.930   6.234  1.00  0.00     0.055 C 
BRANCH   6   7
HETATM    7  C   UNL     1      41.459 -14.704   5.903  1.00  0.00     0.030 A 
HETATM    8  C   UNL     1      42.774 -14.612   6.175  1.00  0.00     0.014 A 
HETATM    9  C   UNL     1      43.485 -13.577   6.980  1.00  0.00     0.064 C 
HETATM   10  N   UNL     1      43.516 -15.626   5.578  1.00  0.00    -0.199 NA
HETATM   11  N   UNL     1      42.623 -16.390   4.819  1.00  0.00    -0.238 N 
HETATM   12  H   UNL     1      44.286 -15.246   5.022  1.00  0.00     0.153 HD
HETATM   13  C   UNL     1      41.335 -15.895   4.999  1.00  0.00     0.270 A 
HETATM   14  O   UNL     1      40.265 -16.279   4.556  1.00  0.00    -0.266 OA
BRANCH  11  15
HETATM   15  C   UNL     1      43.064 -17.521   4.100  1.00  0.00     0.055 A 
HETATM   16  C   UNL     1      43.790 -18.544   4.729  1.00  0.00     0.034 A 
HETATM   17  C   UNL     1      44.217 -19.669   4.014  1.00  0.00     0.044 A 
HETATM   18  C   UNL     1      43.921 -19.776   2.664  1.00  0.00     0.116 A 
HETATM   19  F   UNL     1      44.329 -20.853   1.979  1.00  0.00    -0.206 F 
HETATM   20  C   UNL     1      43.209 -18.779   2.013  1.00  0.00     0.044 A 
HETATM   21  C   UNL     1      42.785 -17.655   2.728  1.00  0.00     0.034 A 
ENDBRANCH  11  15
ENDBRANCH   6   7
ENDBRANCH   5   6
ENDBRANCH   1   5
BRANCH   2  22
HETATM   22  C   UNL     1      39.539 -13.285   2.082  1.00  0.00     0.034 A 
HETATM   23  C   UNL     1      40.047 -14.412   1.432  1.00  0.00     0.031 A 
HETATM   24  C   UNL     1      39.999 -14.512   0.038  1.00  0.00     0.027 A 
HETATM   25  C   UNL     1      39.429 -13.481  -0.710  1.00  0.00     0.074 A 
HETATM   26  C   UNL     1      38.939 -12.337  -0.080  1.00  0.00     0.027 A 
HETATM   27  C   UNL     1      38.996 -12.244   1.315  1.00  0.00     0.031 A 
BRANCH  25  28
HETATM   28  S   UNL     1      39.356 -13.618  -2.478  1.00  0.00     0.241 S 
HETATM   29  O   UNL     1      40.632 -14.123  -2.939  1.00  0.00    -0.206 OA
HETATM   30  O   UNL     1      38.111 -14.259  -2.840  1.00  0.00    -0.206 OA
BRANCH  28  31
HETATM   31  N   UNL     1      39.306 -11.985  -2.923  1.00  0.00    -0.211 NA
HETATM   32  H   UNL     1      38.631 -11.483  -2.345  1.00  0.00     0.140 HD
BRANCH  31  33
HETATM   33  C   UNL     1      40.590 -11.328  -3.155  1.00  0.00     0.071 A 
HETATM   34  C   UNL     1      40.637  -9.877  -3.544  1.00  0.00     0.022 A 
HETATM   35  C   UNL     1      41.139 -10.311  -2.197  1.00  0.00     0.022 A 
ENDBRANCH  31  33
ENDBRANCH  28  31
ENDBRANCH  25  28
ENDBRANCH   2  22
TORSDOF 8
ENDMDL
MODEL 2
REMARK VINA RESULT:      -8.3      4.260      7.929
REMARK  8 active torsions:
REMARK  status: ('A' for Active; 'I' for Inactive)
REMARK    1  A    between atoms: N_4  and  C_5 
REMARK    2  A    between atoms: C_14  and  C_15 
REMARK    3  A    between atoms: C_15  and  C_16 
REMARK    4  A    between atoms: C_16  and  C_17 
REMARK       I    between atoms: C_17  and  N_18 
REMARK    5  A    between atoms: N_18  and  C_19 
REMARK    6  A    between atoms: C_22  and  S_23 
REMARK    7  A    between atoms: S_23  and  N_24 
REMARK    8  A    between atoms: N_24  and  C_25 
ROOT
HETATM    1  C   UNL     1      41.497 -11.089   3.033  1.00  0.00     0.222 C 
HETATM    2  N   UNL     1      41.399 -11.335   4.391  1.00  0.00    -0.327 N 
HETATM    3  O   UNL     1      42.454 -10.591   2.447  1.00  0.00    -0.273 OA
HETATM    4  H   UNL     1      40.540 -11.757   4.721  1.00  0.00     0.169 HD
ENDROOT
BRANCH   1   5
HETATM    5  C   UNL     1      40.262 -11.503   2.251  1.00  0.00     0.108 C 
BRANCH   5   6
HETATM    6  C   UNL     1      39.696 -12.825   2.758  1.00  0.00     0.055 C 
BRANCH   6   7
HETATM    7  C   UNL     1      40.411 -14.074   2.362  1.00  0.00     0.030 A 
HETATM    8  C   UNL     1      40.558 -14.802   1.240  1.00  0.00     0.014 A 
HETATM    9  C   UNL     1      39.971 -14.556  -0.109  1.00  0.00     0.064 C 
HETATM   10  N   UNL     1      41.346 -15.931   1.433  1.00  0.00    -0.199 NA
HETATM   11  N   UNL     1      41.683 -15.964   2.791  1.00  0.00    -0.238 N 
HETATM   12  H   UNL     1      40.867 -16.779   1.122  1.00  0.00     0.153 HD
HETATM   13  C   UNL     1      41.164 -14.833   3.415  1.00  0.00     0.270 A 
HETATM   14  O   UNL     1      41.248 -14.451   4.571  1.00  0.00    -0.266 OA
BRANCH  11  15
HETATM   15  C   UNL     1      42.505 -16.986   3.312  1.00  0.00     0.055 A 
HETATM   16  C   UNL     1      42.978 -18.024   2.495  1.00  0.00     0.034 A 
HETATM   17  C   UNL     1      43.801 -19.030   3.013  1.00  0.00     0.044 A 
HETATM   18  C   UNL     1      44.156 -19.003   4.353  1.00  0.00     0.116 A 
HETATM   19  F   UNL     1      44.945 -19.966   4.849  1.00  0.00    -0.206 F 
HETATM   20  C   UNL     1      43.701 -17.992   5.187  1.00  0.00     0.044 A 
HETATM   21  C   UNL     1      42.877 -16.989   4.668  1.00  0.00     0.034 A 
ENDBRANCH  11  15
ENDBRANCH   6   7
ENDBRANCH   5   6
ENDBRANCH   1   5
BRANCH   2  22
HETATM   22  C   UNL     1      42.344 -11.015   5.388  1.00  0.00     0.034 A 
HETATM   23  C   UNL     1      43.594 -11.628   5.506  1.00  0.00     0.031 A 
HETATM   24  C   UNL     1      44.487 -11.237   6.507  1.00  0.00     0.027 A 
HETATM   25  C   UNL     1      44.133 -10.216   7.391  1.00  0.00     0.074 A 
HETATM   26  C   UNL     1      42.879  -9.610   7.305  1.00  0.00     0.027 A 
HETATM   27  C   UNL     1      41.990 -10.011   6.303  1.00  0.00     0.031 A 
BRANCH  25  28
HETATM   28  S   UNL     1      45.276  -9.712   8.652  1.00  0.00     0.241 S 
HETATM   29  O   UNL     1      45.691 -10.894   9.375  1.00  0.00    -0.206 OA
HETATM   30  O   UNL     1      46.237  -8.804   8.065  1.00  0.00    -0.206 OA
BRANCH  28  31
HETATM   31  N   UNL     1      44.248  -8.858   9.692  1.00  0.00    -0.211 NA
HETATM   32  H   UNL     1      43.349  -8.689   9.238  1.00  0.00     0.140 HD
BRANCH  31  33
HETATM   33  C   UNL     1      44.207  -9.300  11.083  1.00  0.00     0.071 A 
HETATM   34  C   UNL     1      43.471  -8.489  12.113  1.00  0.00     0.022 A 
HETATM   35  C   UNL     1      42.951  -9.837  11.704  1.00  0.00     0.022 A 
ENDBRANCH  31  33
ENDBRANCH  28  31
ENDBRANCH  25  28
ENDBRANCH   2  22
TORSDOF 8
ENDMDL
MODEL 3
REMARK VINA RESULT:      -8.3      6.348     10.014
REMARK  8 active torsions:
REMARK  status: ('A' for Active; 'I' for Inactive)
REMARK    1  A    between atoms: N_4  and  C_5 
REMARK    2  A    between atoms: C_14  and  C_15 
REMARK    3  A    between atoms: C_15  and  C_16 
REMARK    4  A    between atoms: C_16  and  C_17 
REMARK       I    between atoms: C_17  and  N_18 
REMARK    5  A    between atoms: N_18  and  C_19 
REMARK    6  A    between atoms: C_22  and  S_23 
REMARK    7  A    between atoms: S_23  and  N_24 
REMARK    8  A    between atoms: N_24  and  C_25 
ROOT
HETATM    1  C   UNL     1      44.830 -10.970   8.094  1.00  0.00     0.222 C 
HETATM    2  N   UNL     1      43.651 -10.894   8.813  1.00  0.00    -0.327 N 
HETATM    3  O   UNL     1      45.889 -10.412   8.365  1.00  0.00    -0.273 OA
HETATM    4  H   UNL     1      42.861 -11.419   8.459  1.00  0.00     0.169 HD
ENDROOT
BRANCH   1   5
HETATM    5  C   UNL     1      44.731 -11.848   6.858  1.00  0.00     0.108 C 
BRANCH   5   6
HETATM    6  C   UNL     1      43.778 -13.019   7.079  1.00  0.00     0.055 C 
BRANCH   6   7
HETATM    7  C   UNL     1      43.395 -13.826   5.883  1.00  0.00     0.030 A 
HETATM    8  C   UNL     1      42.668 -13.634   4.768  1.00  0.00     0.014 A 
HETATM    9  C   UNL     1      41.928 -12.412   4.341  1.00  0.00     0.064 C 
HETATM   10  N   UNL     1      42.616 -14.767   3.962  1.00  0.00    -0.199 NA
HETATM   11  N   UNL     1      43.309 -15.778   4.636  1.00  0.00    -0.238 N 
HETATM   12  H   UNL     1      41.651 -15.025   3.743  1.00  0.00     0.153 HD
HETATM   13  C   UNL     1      43.841 -15.257   5.813  1.00  0.00     0.270 A 
HETATM   14  O   UNL     1      44.535 -15.776   6.671  1.00  0.00    -0.266 OA
BRANCH  11  15
HETATM   15  C   UNL     1      43.460 -17.060   4.067  1.00  0.00     0.055 A 
HETATM   16  C   UNL     1      44.086 -18.099   4.773  1.00  0.00     0.034 A 
HETATM   17  C   UNL     1      44.225 -19.372   4.209  1.00  0.00     0.044 A 
HETATM   18  C   UNL     1      43.737 -19.613   2.934  1.00  0.00     0.116 A 
HETATM   19  F   UNL     1      43.869 -20.832   2.393  1.00  0.00    -0.206 F 
HETATM   20  C   UNL     1      43.117 -18.605   2.209  1.00  0.00     0.044 A 
HETATM   21  C   UNL     1      42.981 -17.333   2.774  1.00  0.00     0.034 A 
ENDBRANCH  11  15
ENDBRANCH   6   7
ENDBRANCH   5   6
ENDBRANCH   1   5
BRANCH   2  22
HETATM   22  C   UNL     1      43.401 -10.121   9.967  1.00  0.00     0.034 A 
HETATM   23  C   UNL     1      43.144  -8.748   9.946  1.00  0.00     0.031 A 
HETATM   24  C   UNL     1      42.880  -8.055  11.131  1.00  0.00     0.027 A 
HETATM   25  C   UNL     1      42.860  -8.743  12.345  1.00  0.00     0.074 A 
HETATM   26  C   UNL     1      43.139 -10.109  12.388  1.00  0.00     0.027 A 
HETATM   27  C   UNL     1      43.407 -10.793  11.198  1.00  0.00     0.031 A 
BRANCH  25  28
HETATM   28  S   UNL     1      42.509  -7.864  13.846  1.00  0.00     0.241 S 
HETATM   29  O   UNL     1      41.972  -8.809  14.801  1.00  0.00    -0.206 OA
HETATM   30  O   UNL     1      43.644  -7.025  14.165  1.00  0.00    -0.206 OA
BRANCH  28  31
HETATM   31  N   UNL     1      41.208  -6.898  13.354  1.00  0.00    -0.211 NA
HETATM   32  H   UNL     1      41.422  -6.446  12.464  1.00  0.00     0.140 HD
BRANCH  31  33
HETATM   33  C   UNL     1      39.873  -7.474  13.494  1.00  0.00     0.071 A 
HETATM   34  C   UNL     1      38.716  -6.894  12.730  1.00  0.00     0.022 A 
HETATM   35  C   UNL     1      39.235  -8.261  12.388  1.00  0.00     0.022 A 
ENDBRANCH  31  33
ENDBRANCH  28  31
ENDBRANCH  25  28
ENDBRANCH   2  22
TORSDOF 8
ENDMDL
MODEL 4
REMARK VINA RESULT:      -8.2      4.373      7.832
REMARK  8 active torsions:
REMARK  status: ('A' for Active; 'I' for Inactive)
REMARK    1  A    between atoms: N_4  and  C_5 
REMARK    2  A    between atoms: C_14  and  C_15 
REMARK    3  A    between atoms: C_15  and  C_16 
REMARK    4  A    between atoms: C_16  and  C_17 
REMARK       I    between atoms: C_17  and  N_18 
REMARK    5  A    between atoms: N_18  and  C_19 
REMARK    6  A    between atoms: C_22  and  S_23 
REMARK    7  A    between atoms: S_23  and  N_24 
REMARK    8  A    between atoms: N_24  and  C_25 
ROOT
HETATM    1  C   UNL     1      40.258 -12.787   5.373  1.00  0.00     0.222 C 
HETATM    2  N   UNL     1      40.979 -11.611   5.262  1.00  0.00    -0.327 N 
HETATM    3  O   UNL     1      40.296 -13.582   6.307  1.00  0.00    -0.273 OA
HETATM    4  H   UNL     1      40.832 -11.058   4.427  1.00  0.00     0.169 HD
ENDROOT
BRANCH   1   5
HETATM    5  C   UNL     1      39.349 -13.054   4.186  1.00  0.00     0.108 C 
BRANCH   5   6
HETATM    6  C   UNL     1      40.148 -13.253   2.902  1.00  0.00     0.055 C 
BRANCH   6   7
HETATM    7  C   UNL     1      41.388 -14.080   2.988  1.00  0.00     0.030 A 
HETATM    8  C   UNL     1      42.714 -13.854   3.002  1.00  0.00     0.014 A 
HETATM    9  C   UNL     1      43.434 -12.550   2.917  1.00  0.00     0.064 C 
HETATM   10  N   UNL     1      43.457 -15.027   3.081  1.00  0.00    -0.199 NA
HETATM   11  N   UNL     1      42.545 -16.088   3.056  1.00  0.00    -0.238 N 
HETATM   12  H   UNL     1      44.150 -15.081   2.331  1.00  0.00     0.153 HD
HETATM   13  C   UNL     1      41.251 -15.573   3.030  1.00  0.00     0.270 A 
HETATM   14  O   UNL     1      40.170 -16.138   3.036  1.00  0.00    -0.266 OA
BRANCH  11  15
HETATM   15  C   UNL     1      42.983 -17.426   3.144  1.00  0.00     0.055 A 
HETATM   16  C   UNL     1      43.672 -17.891   4.275  1.00  0.00     0.034 A 
HETATM   17  C   UNL     1      44.096 -19.222   4.363  1.00  0.00     0.044 A 
HETATM   18  C   UNL     1      43.836 -20.094   3.318  1.00  0.00     0.116 A 
HETATM   19  F   UNL     1      44.242 -21.369   3.401  1.00  0.00    -0.206 F 
HETATM   20  C   UNL     1      43.162 -19.663   2.184  1.00  0.00     0.044 A 
HETATM   21  C   UNL     1      42.740 -18.333   2.098  1.00  0.00     0.034 A 
ENDBRANCH  11  15
ENDBRANCH   6   7
ENDBRANCH   5   6
ENDBRANCH   1   5
BRANCH   2  22
HETATM   22  C   UNL     1      41.944 -11.112   6.161  1.00  0.00     0.034 A 
HETATM   23  C   UNL     1      43.121 -11.786   6.497  1.00  0.00     0.031 A 
HETATM   24  C   UNL     1      44.044 -11.213   7.377  1.00  0.00     0.027 A 
HETATM   25  C   UNL     1      43.793  -9.951   7.917  1.00  0.00     0.074 A 
HETATM   26  C   UNL     1      42.611  -9.274   7.614  1.00  0.00     0.027 A 
HETATM   27  C   UNL     1      41.692  -9.857   6.736  1.00  0.00     0.031 A 
BRANCH  25  28
HETATM   28  S   UNL     1      44.973  -9.220   9.024  1.00  0.00     0.241 S 
HETATM   29  O   UNL     1      45.633 -10.289   9.740  1.00  0.00    -0.206 OA
HETATM   30  O   UNL     1      45.722  -8.216   8.300  1.00  0.00    -0.206 OA
BRANCH  28  31
HETATM   31  N   UNL     1      43.944  -8.469  10.139  1.00  0.00    -0.211 NA
HETATM   32  H   UNL     1      43.071  -8.195   9.684  1.00  0.00     0.140 HD
BRANCH  31  33
HETATM   33  C   UNL     1      43.830  -9.095  11.453  1.00  0.00     0.071 A 
HETATM   34  C   UNL     1      42.615  -8.853  12.304  1.00  0.00     0.022 A 
HETATM   35  C   UNL     1      42.862 -10.211  11.713  1.00  0.00     0.022 A 
ENDBRANCH  31  33
ENDBRANCH  28  31
ENDBRANCH  25  28
ENDBRANCH   2  22
TORSDOF 8
ENDMDL
MODEL 5
REMARK VINA RESULT:      -8.0      4.867      8.485
REMARK  8 active torsions:
REMARK  status: ('A' for Active; 'I' for Inactive)
REMARK    1  A    between atoms: N_4  and  C_5 
REMARK    2  A    between atoms: C_14  and  C_15 
REMARK    3  A    between atoms: C_15  and  C_16 
REMARK    4  A    between atoms: C_16  and  C_17 
REMARK       I    between atoms: C_17  and  N_18 
REMARK    5  A    between atoms: N_18  and  C_19 
REMARK    6  A    between atoms: C_22  and  S_23 
REMARK    7  A    between atoms: S_23  and  N_24 
REMARK    8  A    between atoms: N_24  and  C_25 
ROOT
HETATM    1  C   UNL     1      43.042 -10.873   4.262  1.00  0.00     0.222 C 
HETATM    2  N   UNL     1      43.705 -11.253   5.416  1.00  0.00    -0.327 N 
HETATM    3  O   UNL     1      42.199  -9.987   4.162  1.00  0.00    -0.273 OA
HETATM    4  H   UNL     1      44.379 -12.003   5.333  1.00  0.00     0.169 HD
ENDROOT
BRANCH   1   5
HETATM    5  C   UNL     1      43.449 -11.675   3.038  1.00  0.00     0.108 C 
BRANCH   5   6
HETATM    6  C   UNL     1      42.340 -12.623   2.594  1.00  0.00     0.055 C 
BRANCH   6   7
HETATM    7  C   UNL     1      42.233 -13.932   3.302  1.00  0.00     0.030 A 
HETATM    8  C   UNL     1      41.668 -14.388   4.434  1.00  0.00     0.014 A 
HETATM    9  C   UNL     1      40.889 -13.626   5.454  1.00  0.00     0.064 C 
HETATM   10  N   UNL     1      41.896 -15.744   4.639  1.00  0.00    -0.199 NA
HETATM   11  N   UNL     1      42.718 -16.180   3.594  1.00  0.00    -0.238 N 
HETATM   12  H   UNL     1      42.301 -15.919   5.562  1.00  0.00     0.153 HD
HETATM   13  C   UNL     1      42.939 -15.121   2.718  1.00  0.00     0.270 A 
HETATM   14  O   UNL     1      43.562 -15.070   1.670  1.00  0.00    -0.266 OA
BRANCH  11  15
HETATM   15  C   UNL     1      43.118 -17.530   3.498  1.00  0.00     0.055 A 
HETATM   16  C   UNL     1      42.921 -18.264   2.319  1.00  0.00     0.034 A 
HETATM   17  C   UNL     1      43.328 -19.600   2.225  1.00  0.00     0.044 A 
HETATM   18  C   UNL     1      43.935 -20.209   3.312  1.00  0.00     0.116 A 
HETATM   19  F   UNL     1      44.326 -21.487   3.223  1.00  0.00    -0.206 F 
HETATM   20  C   UNL     1      44.141 -19.510   4.494  1.00  0.00     0.044 A 
HETATM   21  C   UNL     1      43.731 -18.177   4.586  1.00  0.00     0.034 A 
ENDBRANCH  11  15
ENDBRANCH   6   7
ENDBRANCH   5   6
ENDBRANCH   1   5
BRANCH   2  22
HETATM   22  C   UNL     1      43.511 -10.748   6.719  1.00  0.00     0.034 A 
HETATM   23  C   UNL     1      44.476 -10.801   7.728  1.00  0.00     0.031 A 
HETATM   24  C   UNL     1      44.218 -10.254   8.989  1.00  0.00     0.027 A 
HETATM   25  C   UNL     1      42.990  -9.640   9.239  1.00  0.00     0.074 A 
HETATM   26  C   UNL     1      42.005  -9.600   8.252  1.00  0.00     0.027 A 
HETATM   27  C   UNL     1      42.271 -10.154   6.995  1.00  0.00     0.031 A 
BRANCH  25  28
HETATM   28  S   UNL     1      42.672  -8.934  10.836  1.00  0.00     0.241 S 
HETATM   29  O   UNL     1      43.922  -8.898  11.564  1.00  0.00    -0.206 OA
HETATM   30  O   UNL     1      41.861  -7.749  10.662  1.00  0.00    -0.206 OA
BRANCH  28  31
HETATM   31  N   UNL     1      41.745 -10.159  11.548  1.00  0.00    -0.211 NA
HETATM   32  H   UNL     1      42.284 -10.630  12.276  1.00  0.00     0.140 HD
BRANCH  31  33
HETATM   33  C   UNL     1      40.358  -9.832  11.866  1.00  0.00     0.071 A 
HETATM   34  C   UNL     1      39.605 -10.641  12.885  1.00  0.00     0.022 A 
HETATM   35  C   UNL     1      39.975  -9.215  13.179  1.00  0.00     0.022 A 
ENDBRANCH  31  33
ENDBRANCH  28  31
ENDBRANCH  25  28
ENDBRANCH   2  22
TORSDOF 8
ENDMDL
MODEL 6
REMARK VINA RESULT:      -7.9      6.007      9.433
REMARK  8 active torsions:
REMARK  status: ('A' for Active; 'I' for Inactive)
REMARK    1  A    between atoms: N_4  and  C_5 
REMARK    2  A    between atoms: C_14  and  C_15 
REMARK    3  A    between atoms: C_15  and  C_16 
REMARK    4  A    between atoms: C_16  and  C_17 
REMARK       I    between atoms: C_17  and  N_18 
REMARK    5  A    between atoms: N_18  and  C_19 
REMARK    6  A    between atoms: C_22  and  S_23 
REMARK    7  A    between atoms: S_23  and  N_24 
REMARK    8  A    between atoms: N_24  and  C_25 
ROOT
HETATM    1  C   UNL     1      44.309 -11.177   7.842  1.00  0.00     0.222 C 
HETATM    2  N   UNL     1      43.245 -10.311   7.663  1.00  0.00    -0.327 N 
HETATM    3  O   UNL     1      45.147 -11.130   8.737  1.00  0.00    -0.273 OA
HETATM    4  H   UNL     1      42.637 -10.487   6.873  1.00  0.00     0.169 HD
ENDROOT
BRANCH   1   5
HETATM    5  C   UNL     1      44.384 -12.271   6.790  1.00  0.00     0.108 C 
BRANCH   5   6
HETATM    6  C   UNL     1      43.584 -13.502   7.204  1.00  0.00     0.055 C 
BRANCH   6   7
HETATM    7  C   UNL     1      43.063 -14.379   6.115  1.00  0.00     0.030 A 
HETATM    8  C   UNL     1      42.034 -14.356   5.249  1.00  0.00     0.014 A 
HETATM    9  C   UNL     1      40.967 -13.323   5.105  1.00  0.00     0.064 C 
HETATM   10  N   UNL     1      41.999 -15.477   4.428  1.00  0.00    -0.199 NA
HETATM   11  N   UNL     1      43.046 -16.312   4.835  1.00  0.00    -0.238 N 
HETATM   12  H   UNL     1      41.087 -15.938   4.465  1.00  0.00     0.153 HD
HETATM   13  C   UNL     1      43.760 -15.681   5.850  1.00  0.00     0.270 A 
HETATM   14  O   UNL     1      44.756 -16.034   6.460  1.00  0.00    -0.266 OA
BRANCH  11  15
HETATM   15  C   UNL     1      43.298 -17.535   4.178  1.00  0.00     0.055 A 
HETATM   16  C   UNL     1      42.977 -17.711   2.823  1.00  0.00     0.034 A 
HETATM   17  C   UNL     1      43.238 -18.923   2.173  1.00  0.00     0.044 A 
HETATM   18  C   UNL     1      43.819 -19.967   2.877  1.00  0.00     0.116 A 
HETATM   19  F   UNL     1      44.069 -21.127   2.255  1.00  0.00    -0.206 F 
HETATM   20  C   UNL     1      44.143 -19.825   4.218  1.00  0.00     0.044 A 
HETATM   21  C   UNL     1      43.880 -18.614   4.867  1.00  0.00     0.034 A 
ENDBRANCH  11  15
ENDBRANCH   6   7
ENDBRANCH   5   6
ENDBRANCH   1   5
BRANCH   2  22
HETATM   22  C   UNL     1      42.936  -9.167   8.428  1.00  0.00     0.034 A 
HETATM   23  C   UNL     1      43.806  -8.088   8.607  1.00  0.00     0.031 A 
HETATM   24  C   UNL     1      43.416  -6.976   9.359  1.00  0.00     0.027 A 
HETATM   25  C   UNL     1      42.142  -6.938   9.928  1.00  0.00     0.074 A 
HETATM   26  C   UNL     1      41.269  -8.017   9.782  1.00  0.00     0.027 A 
HETATM   27  C   UNL     1      41.670  -9.127   9.031  1.00  0.00     0.031 A 
BRANCH  25  28
HETATM   28  S   UNL     1      41.645  -5.519  10.871  1.00  0.00     0.241 S 
HETATM   29  O   UNL     1      42.780  -4.626  10.964  1.00  0.00    -0.206 OA
HETATM   30  O   UNL     1      40.362  -5.066  10.379  1.00  0.00    -0.206 OA
BRANCH  28  31
HETATM   31  N   UNL     1      41.456  -6.205  12.407  1.00  0.00    -0.211 NA
HETATM   32  H   UNL     1      40.728  -6.921  12.385  1.00  0.00     0.140 HD
BRANCH  31  33
HETATM   33  C   UNL     1      42.679  -6.534  13.134  1.00  0.00     0.071 A 
HETATM   34  C   UNL     1      42.611  -7.338  14.402  1.00  0.00     0.022 A 
HETATM   35  C   UNL     1      43.225  -7.931  13.166  1.00  0.00     0.022 A 
ENDBRANCH  31  33
ENDBRANCH  28  31
ENDBRANCH  25  28
ENDBRANCH   2  22
TORSDOF 8
ENDMDL
MODEL 7
REMARK VINA RESULT:      -7.6      6.651      9.935
REMARK  8 active torsions:
REMARK  status: ('A' for Active; 'I' for Inactive)
REMARK    1  A    between atoms: N_4  and  C_5 
REMARK    2  A    between atoms: C_14  and  C_15 
REMARK    3  A    between atoms: C_15  and  C_16 
REMARK    4  A    between atoms: C_16  and  C_17 
REMARK       I    between atoms: C_17  and  N_18 
REMARK    5  A    between atoms: N_18  and  C_19 
REMARK    6  A    between atoms: C_22  and  S_23 
REMARK    7  A    between atoms: S_23  and  N_24 
REMARK    8  A    between atoms: N_24  and  C_25 
ROOT
HETATM    1  C   UNL     1      43.520 -10.268   7.798  1.00  0.00     0.222 C 
HETATM    2  N   UNL     1      43.617 -10.579   9.143  1.00  0.00    -0.327 N 
HETATM    3  O   UNL     1      43.100  -9.219   7.319  1.00  0.00    -0.273 OA
HETATM    4  H   UNL     1      43.991 -11.490   9.378  1.00  0.00     0.169 HD
ENDROOT
BRANCH   1   5
HETATM    5  C   UNL     1      44.000 -11.381   6.882  1.00  0.00     0.108 C 
BRANCH   5   6
HETATM    6  C   UNL     1      42.901 -12.407   6.624  1.00  0.00     0.055 C 
BRANCH   6   7
HETATM    7  C   UNL     1      43.016 -13.239   5.390  1.00  0.00     0.030 A 
HETATM    8  C   UNL     1      42.982 -13.027   4.062  1.00  0.00     0.014 A 
HETATM    9  C   UNL     1      42.785 -11.740   3.333  1.00  0.00     0.064 C 
HETATM   10  N   UNL     1      43.126 -14.199   3.329  1.00  0.00    -0.199 NA
HETATM   11  N   UNL     1      43.200 -15.249   4.251  1.00  0.00    -0.238 N 
HETATM   12  H   UNL     1      42.365 -14.315   2.656  1.00  0.00     0.153 HD
HETATM   13  C   UNL     1      43.169 -14.724   5.540  1.00  0.00     0.270 A 
HETATM   14  O   UNL     1      43.242 -15.274   6.626  1.00  0.00    -0.266 OA
BRANCH  11  15
HETATM   15  C   UNL     1      43.373 -16.582   3.823  1.00  0.00     0.055 A 
HETATM   16  C   UNL     1      44.167 -17.482   4.551  1.00  0.00     0.034 A 
HETATM   17  C   UNL     1      44.329 -18.805   4.128  1.00  0.00     0.044 A 
HETATM   18  C   UNL     1      43.698 -19.237   2.972  1.00  0.00     0.116 A 
HETATM   19  F   UNL     1      43.851 -20.505   2.566  1.00  0.00    -0.206 F 
HETATM   20  C   UNL     1      42.910 -18.371   2.228  1.00  0.00     0.044 A 
HETATM   21  C   UNL     1      42.751 -17.047   2.651  1.00  0.00     0.034 A 
ENDBRANCH  11  15
ENDBRANCH   6   7
ENDBRANCH   5   6
ENDBRANCH   1   5
BRANCH   2  22
HETATM   22  C   UNL     1      43.203  -9.789  10.235  1.00  0.00     0.034 A 
HETATM   23  C   UNL     1      44.080  -9.209  11.156  1.00  0.00     0.031 A 
HETATM   24  C   UNL     1      43.594  -8.415  12.199  1.00  0.00     0.027 A 
HETATM   25  C   UNL     1      42.221  -8.191  12.316  1.00  0.00     0.074 A 
HETATM   26  C   UNL     1      41.329  -8.782  11.422  1.00  0.00     0.027 A 
HETATM   27  C   UNL     1      41.824  -9.578  10.384  1.00  0.00     0.031 A 
BRANCH  25  28
HETATM   28  S   UNL     1      41.609  -7.170  13.633  1.00  0.00     0.241 S 
HETATM   29  O   UNL     1      40.228  -6.849  13.342  1.00  0.00    -0.206 OA
HETATM   30  O   UNL     1      42.001  -7.762  14.894  1.00  0.00    -0.206 OA
BRANCH  28  31
HETATM   31  N   UNL     1      42.490  -5.748  13.373  1.00  0.00    -0.211 NA
HETATM   32  H   UNL     1      43.483  -5.963  13.269  1.00  0.00     0.140 HD
BRANCH  31  33
HETATM   33  C   UNL     1      41.923  -4.789  12.429  1.00  0.00     0.071 A 
HETATM   34  C   UNL     1      42.774  -3.678  11.877  1.00  0.00     0.022 A 
HETATM   35  C   UNL     1      42.309  -4.788  10.979  1.00  0.00     0.022 A 
ENDBRANCH  31  33
ENDBRANCH  28  31
ENDBRANCH  25  28
ENDBRANCH   2  22
TORSDOF 8
ENDMDL
MODEL 8
REMARK VINA RESULT:      -7.6     15.344     17.643
REMARK  8 active torsions:
REMARK  status: ('A' for Active; 'I' for Inactive)
REMARK    1  A    between atoms: N_4  and  C_5 
REMARK    2  A    between atoms: C_14  and  C_15 
REMARK    3  A    between atoms: C_15  and  C_16 
REMARK    4  A    between atoms: C_16  and  C_17 
REMARK       I    between atoms: C_17  and  N_18 
REMARK    5  A    between atoms: N_18  and  C_19 
REMARK    6  A    between atoms: C_22  and  S_23 
REMARK    7  A    between atoms: S_23  and  N_24 
REMARK    8  A    between atoms: N_24  and  C_25 
ROOT
HETATM    1  C   UNL     1      44.301 -29.411  -0.546  1.00  0.00     0.222 C 
HETATM    2  N   UNL     1      43.935 -28.925   0.697  1.00  0.00    -0.327 N 
HETATM    3  O   UNL     1      44.134 -30.553  -0.962  1.00  0.00    -0.273 OA
HETATM    4  H   UNL     1      44.140 -27.952   0.889  1.00  0.00     0.169 HD
ENDROOT
BRANCH   1   5
HETATM    5  C   UNL     1      44.971 -28.372  -1.429  1.00  0.00     0.108 C 
BRANCH   5   6
HETATM    6  C   UNL     1      46.141 -27.701  -0.716  1.00  0.00     0.055 C 
BRANCH   6   7
HETATM    7  C   UNL     1      47.254 -28.578  -0.250  1.00  0.00     0.030 A 
HETATM    8  C   UNL     1      48.188 -29.360  -0.822  1.00  0.00     0.014 A 
HETATM    9  C   UNL     1      48.413 -29.625  -2.273  1.00  0.00     0.064 C 
HETATM   10  N   UNL     1      48.999 -29.997   0.110  1.00  0.00    -0.199 NA
HETATM   11  N   UNL     1      48.515 -29.647   1.376  1.00  0.00    -0.238 N 
HETATM   12  H   UNL     1      49.019 -31.008  -0.041  1.00  0.00     0.153 HD
HETATM   13  C   UNL     1      47.460 -28.751   1.226  1.00  0.00     0.270 A 
HETATM   14  O   UNL     1      46.781 -28.174   2.059  1.00  0.00    -0.266 OA
BRANCH  11  15
HETATM   15  C   UNL     1      49.141 -30.117   2.549  1.00  0.00     0.055 A 
HETATM   16  C   UNL     1      48.400 -30.727   3.574  1.00  0.00     0.034 A 
HETATM   17  C   UNL     1      49.027 -31.201   4.731  1.00  0.00     0.044 A 
HETATM   18  C   UNL     1      50.400 -31.065   4.872  1.00  0.00     0.116 A 
HETATM   19  F   UNL     1      51.000 -31.520   5.980  1.00  0.00    -0.206 F 
HETATM   20  C   UNL     1      51.159 -30.463   3.879  1.00  0.00     0.044 A 
HETATM   21  C   UNL     1      50.530 -29.988   2.724  1.00  0.00     0.034 A 
ENDBRANCH  11  15
ENDBRANCH   6   7
ENDBRANCH   5   6
ENDBRANCH   1   5
BRANCH   2  22
HETATM   22  C   UNL     1      43.351 -29.646   1.760  1.00  0.00     0.034 A 
HETATM   23  C   UNL     1      44.072 -30.450   2.647  1.00  0.00     0.031 A 
HETATM   24  C   UNL     1      43.424 -31.114   3.693  1.00  0.00     0.027 A 
HETATM   25  C   UNL     1      42.046 -30.964   3.859  1.00  0.00     0.074 A 
HETATM   26  C   UNL     1      41.307 -30.186   2.968  1.00  0.00     0.027 A 
HETATM   27  C   UNL     1      41.963 -29.529   1.922  1.00  0.00     0.031 A 
BRANCH  25  28
HETATM   28  S   UNL     1      41.229 -31.797   5.197  1.00  0.00     0.241 S 
HETATM   29  O   UNL     1      39.862 -31.325   5.246  1.00  0.00    -0.206 OA
HETATM   30  O   UNL     1      41.543 -33.206   5.122  1.00  0.00    -0.206 OA
BRANCH  28  31
HETATM   31  N   UNL     1      42.014 -31.108   6.530  1.00  0.00    -0.211 NA
HETATM   32  H   UNL     1      41.609 -30.196   6.744  1.00  0.00     0.140 HD
BRANCH  31  33
HETATM   33  C   UNL     1      42.281 -31.991   7.662  1.00  0.00     0.071 A 
HETATM   34  C   UNL     1      42.481 -31.417   9.037  1.00  0.00     0.022 A 
HETATM   35  C   UNL     1      41.257 -32.233   8.731  1.00  0.00     0.022 A 
ENDBRANCH  31  33
ENDBRANCH  28  31
ENDBRANCH  25  28
ENDBRANCH   2  22
TORSDOF 8
ENDMDL
MODEL 9
REMARK VINA RESULT:      -7.5     15.795     18.999
REMARK  8 active torsions:
REMARK  status: ('A' for Active; 'I' for Inactive)
REMARK    1  A    between atoms: N_4  and  C_5 
REMARK    2  A    between atoms: C_14  and  C_15 
REMARK    3  A    between atoms: C_15  and  C_16 
REMARK    4  A    between atoms: C_16  and  C_17 
REMARK       I    between atoms: C_17  and  N_18 
REMARK    5  A    between atoms: N_18  and  C_19 
REMARK    6  A    between atoms: C_22  and  S_23 
REMARK    7  A    between atoms: S_23  and  N_24 
REMARK    8  A    between atoms: N_24  and  C_25 
ROOT
HETATM    1  C   UNL     1      49.120 -30.254   2.058  1.00  0.00     0.222 C 
HETATM    2  N   UNL     1      50.025 -29.776   1.127  1.00  0.00    -0.327 N 
HETATM    3  O   UNL     1      48.711 -31.407   2.155  1.00  0.00    -0.273 OA
HETATM    4  H   UNL     1      50.266 -28.794   1.181  1.00  0.00     0.169 HD
ENDROOT
BRANCH   1   5
HETATM    5  C   UNL     1      48.626 -29.190   3.024  1.00  0.00     0.108 C 
BRANCH   5   6
HETATM    6  C   UNL     1      47.698 -28.195   2.334  1.00  0.00     0.055 C 
BRANCH   6   7
HETATM    7  C   UNL     1      46.609 -28.751   1.479  1.00  0.00     0.030 A 
HETATM    8  C   UNL     1      45.455 -29.414   1.675  1.00  0.00     0.014 A 
HETATM    9  C   UNL     1      44.845 -29.854   2.964  1.00  0.00     0.064 C 
HETATM   10  N   UNL     1      44.806 -29.723   0.485  1.00  0.00    -0.199 NA
HETATM   11  N   UNL     1      45.631 -29.280  -0.555  1.00  0.00    -0.238 N 
HETATM   12  H   UNL     1      44.593 -30.722   0.425  1.00  0.00     0.153 HD
HETATM   13  C   UNL     1      46.744 -28.645  -0.011  1.00  0.00     0.270 A 
HETATM   14  O   UNL     1      47.686 -28.089  -0.551  1.00  0.00    -0.266 OA
BRANCH  11  15
HETATM   15  C   UNL     1      45.243 -29.427  -1.903  1.00  0.00     0.055 A 
HETATM   16  C   UNL     1      44.719 -30.639  -2.380  1.00  0.00     0.034 A 
HETATM   17  C   UNL     1      44.326 -30.777  -3.716  1.00  0.00     0.044 A 
HETATM   18  C   UNL     1      44.457 -29.703  -4.584  1.00  0.00     0.116 A 
HETATM   19  F   UNL     1      44.081 -29.835  -5.863  1.00  0.00    -0.206 F 
HETATM   20  C   UNL     1      44.976 -28.494  -4.143  1.00  0.00     0.044 A 
HETATM   21  C   UNL     1      45.370 -28.359  -2.808  1.00  0.00     0.034 A 
ENDBRANCH  11  15
ENDBRANCH   6   7
ENDBRANCH   5   6
ENDBRANCH   1   5
BRANCH   2  22
HETATM   22  C   UNL     1      50.619 -30.491   0.067  1.00  0.00     0.034 A 
HETATM   23  C   UNL     1      51.526 -31.540   0.244  1.00  0.00     0.031 A 
HETATM   24  C   UNL     1      52.053 -32.219  -0.859  1.00  0.00     0.027 A 
HETATM   25  C   UNL     1      51.661 -31.855  -2.148  1.00  0.00     0.074 A 
HETATM   26  C   UNL     1      50.776 -30.795  -2.345  1.00  0.00     0.027 A 
HETATM   27  C   UNL     1      50.258 -30.118  -1.236  1.00  0.00     0.031 A 
BRANCH  25  28
HETATM   28  S   UNL     1      52.321 -32.729  -3.545  1.00  0.00     0.241 S 
HETATM   29  O   UNL     1      53.203 -33.762  -3.047  1.00  0.00    -0.206 OA
HETATM   30  O   UNL     1      51.236 -33.030  -4.453  1.00  0.00    -0.206 OA
BRANCH  28  31
HETATM   31  N   UNL     1      53.318 -31.542  -4.223  1.00  0.00    -0.211 NA
HETATM   32  H   UNL     1      53.825 -31.045  -3.489  1.00  0.00     0.140 HD
BRANCH  31  33
HETATM   33  C   UNL     1      54.085 -31.925  -5.406  1.00  0.00     0.071 A 
HETATM   34  C   UNL     1      55.112 -30.989  -5.978  1.00  0.00     0.022 A 
HETATM   35  C   UNL     1      55.543 -32.270  -5.322  1.00  0.00     0.022 A 
ENDBRANCH  31  33
ENDBRANCH  28  31
ENDBRANCH  25  28
ENDBRANCH   2  22
TORSDOF 8
ENDMDL
MODEL 10
REMARK VINA RESULT:      -7.4      4.585      7.663
REMARK  8 active torsions:
REMARK  status: ('A' for Active; 'I' for Inactive)
REMARK    1  A    between atoms: N_4  and  C_5 
REMARK    2  A    between atoms: C_14  and  C_15 
REMARK    3  A    between atoms: C_15  and  C_16 
REMARK    4  A    between atoms: C_16  and  C_17 
REMARK       I    between atoms: C_17  and  N_18 
REMARK    5  A    between atoms: N_18  and  C_19 
REMARK    6  A    between atoms: C_22  and  S_23 
REMARK    7  A    between atoms: S_23  and  N_24 
REMARK    8  A    between atoms: N_24  and  C_25 
ROOT
HETATM    1  C   UNL     1      43.114 -11.195   4.742  1.00  0.00     0.222 C 
HETATM    2  N   UNL     1      41.904 -10.527   4.671  1.00  0.00    -0.327 N 
HETATM    3  O   UNL     1      43.797 -11.365   5.746  1.00  0.00    -0.273 OA
HETATM    4  H   UNL     1      41.459 -10.476   3.764  1.00  0.00     0.169 HD
ENDROOT
BRANCH   1   5
HETATM    5  C   UNL     1      43.579 -11.748   3.405  1.00  0.00     0.108 C 
BRANCH   5   6
HETATM    6  C   UNL     1      42.513 -12.628   2.761  1.00  0.00     0.055 C 
BRANCH   6   7
HETATM    7  C   UNL     1      42.292 -13.981   3.351  1.00  0.00     0.030 A 
HETATM    8  C   UNL     1      41.569 -14.500   4.360  1.00  0.00     0.014 A 
HETATM    9  C   UNL     1      40.668 -13.794   5.316  1.00  0.00     0.064 C 
HETATM   10  N   UNL     1      41.749 -15.873   4.496  1.00  0.00    -0.199 NA
HETATM   11  N   UNL     1      42.701 -16.254   3.544  1.00  0.00    -0.238 N 
HETATM   12  H   UNL     1      42.020 -16.121   5.450  1.00  0.00     0.153 HD
HETATM   13  C   UNL     1      43.055 -15.142   2.785  1.00  0.00     0.270 A 
HETATM   14  O   UNL     1      43.817 -15.034   1.839  1.00  0.00    -0.266 OA
BRANCH  11  15
HETATM   15  C   UNL     1      43.092 -17.603   3.407  1.00  0.00     0.055 A 
HETATM   16  C   UNL     1      42.785 -18.334   2.249  1.00  0.00     0.034 A 
HETATM   17  C   UNL     1      43.183 -19.669   2.113  1.00  0.00     0.044 A 
HETATM   18  C   UNL     1      43.891 -20.280   3.137  1.00  0.00     0.116 A 
HETATM   19  F   UNL     1      44.273 -21.558   3.007  1.00  0.00    -0.206 F 
HETATM   20  C   UNL     1      44.206 -19.585   4.296  1.00  0.00     0.044 A 
HETATM   21  C   UNL     1      43.805 -18.252   4.430  1.00  0.00     0.034 A 
ENDBRANCH  11  15
ENDBRANCH   6   7
ENDBRANCH   5   6
ENDBRANCH   1   5
BRANCH   2  22
HETATM   22  C   UNL     1      41.236  -9.855   5.717  1.00  0.00     0.034 A 
HETATM   23  C   UNL     1      40.170 -10.399   6.438  1.00  0.00     0.031 A 
HETATM   24  C   UNL     1      39.576  -9.680   7.480  1.00  0.00     0.027 A 
HETATM   25  C   UNL     1      40.058  -8.413   7.809  1.00  0.00     0.074 A 
HETATM   26  C   UNL     1      41.105  -7.844   7.084  1.00  0.00     0.027 A 
HETATM   27  C   UNL     1      41.691  -8.568   6.040  1.00  0.00     0.031 A 
BRANCH  25  28
HETATM   28  S   UNL     1      39.311  -7.509   9.142  1.00  0.00     0.241 S 
HETATM   29  O   UNL     1      39.015  -6.175   8.665  1.00  0.00    -0.206 OA
HETATM   30  O   UNL     1      38.295  -8.340   9.749  1.00  0.00    -0.206 OA
BRANCH  28  31
HETATM   31  N   UNL     1      40.625  -7.352  10.198  1.00  0.00    -0.211 NA
HETATM   32  H   UNL     1      40.444  -6.612  10.879  1.00  0.00     0.140 HD
BRANCH  31  33
HETATM   33  C   UNL     1      41.205  -8.590  10.713  1.00  0.00     0.071 A 
HETATM   34  C   UNL     1      42.615  -8.969  10.359  1.00  0.00     0.022 A 
HETATM   35  C   UNL     1      42.271  -8.581  11.769  1.00  0.00     0.022 A 
ENDBRANCH  31  33
ENDBRANCH  28  31
ENDBRANCH  25  28
ENDBRANCH   2  22
TORSDOF 8
ENDMDL
