MODEL 1
REMARK VINA RESULT:      -7.7      0.000      0.000
REMARK  9 active torsions:
REMARK  status: ('A' for Active; 'I' for Inactive)
REMARK    1  A    between atoms: C_2  and  C_3 
REMARK    2  A    between atoms: C_7  and  C_8 
REMARK    3  A    between atoms: C_8  and  C_9 
REMARK       I    between atoms: C_9  and  N_10 
REMARK    4  A    between atoms: N_10  and  C_11 
REMARK    5  A    between atoms: C_11  and  C_12 
REMARK    6  A    between atoms: C_12  and  C_13 
REMARK    7  A    between atoms: C_21  and  C_22 
REMARK    8  A    between atoms: C_32  and  C_33 
REMARK    9  A    between atoms: C_33  and  O_34 
ROOT
HETATM    1  C   UNL     1      40.983 -11.783  -0.219  1.00  0.00     0.051 C 
HETATM    2  N   UNL     1      41.369 -10.828   0.694  1.00  0.00    -0.228 NA
HETATM    3  C   UNL     1      41.071 -11.005   1.928  1.00  0.00     0.170 C 
HETATM    4  N   UNL     1      40.528 -12.326   2.557  1.00  0.00    -0.318 N 
HETATM    5  C   UNL     1      40.560 -12.211   3.849  1.00  0.00     0.011 C 
HETATM    6  C   UNL     1      40.283 -13.419   1.577  1.00  0.00     0.166 C 
HETATM    7  S   UNL     1      41.372  -9.772   3.116  1.00  0.00    -0.086 SA
HETATM    8  C   UNL     1      40.546 -10.785   4.366  1.00  0.00     0.135 C 
HETATM    9  C   UNL     1      40.360 -12.919   0.155  1.00  0.00     0.069 C 
ENDROOT
BRANCH   5  10
HETATM   10  C   UNL     1      40.872 -13.351   4.788  1.00  0.00     0.156 C 
BRANCH  10  11
HETATM   11  C   UNL     1      42.330 -13.200   5.223  1.00  0.00     0.222 C 
HETATM   12  N   UNL     1      42.575 -13.125   6.567  1.00  0.00    -0.361 N 
HETATM   13  H   UNL     1      41.801 -13.225   7.220  1.00  0.00     0.162 HD
HETATM   14  O   UNL     1      43.227 -13.077   4.383  1.00  0.00    -0.273 OA
BRANCH  12  15
HETATM   15  C   UNL     1      43.764 -12.451   7.075  1.00  0.00     0.124 C 
BRANCH  15  16
HETATM   16  C   UNL     1      43.619 -10.972   7.459  1.00  0.00     0.053 C 
BRANCH  16  17
HETATM   17  C   UNL     1      43.991 -10.571   8.884  1.00  0.00     0.189 C 
HETATM   18  N   UNL     1      45.446 -10.215   9.122  1.00  0.00    -0.071 N 
HETATM   19  H   UNL     1      45.948 -11.120   9.208  1.00  0.00     0.279 HD
HETATM   20  C   UNL     1      46.154  -9.388   8.086  1.00  0.00     0.270 C 
HETATM   21  C   UNL     1      45.459  -9.515  10.475  1.00  0.00     0.235 C 
HETATM   22  C   UNL     1      44.025  -9.055  10.711  1.00  0.00     0.030 C 
HETATM   23  C   UNL     1      43.273  -9.342   9.419  1.00  0.00     0.035 C 
ENDBRANCH  16  17
ENDBRANCH  15  16
ENDBRANCH  12  15
ENDBRANCH  10  11
ENDBRANCH   5  10
BRANCH   6  24
HETATM   24  C   UNL     1      41.194 -14.624   1.822  1.00  0.00    -0.024 A 
HETATM   25  C   UNL     1      40.700 -15.836   2.369  1.00  0.00    -0.053 A 
HETATM   26  C   UNL     1      39.252 -16.045   2.744  1.00  0.00     0.049 C 
HETATM   27  C   UNL     1      41.574 -16.924   2.543  1.00  0.00     0.014 A 
HETATM   28  C   UNL     1      42.926 -16.840   2.199  1.00  0.00    -0.061 A 
HETATM   29  C   UNL     1      43.817 -18.044   2.321  1.00  0.00     0.048 C 
HETATM   30  C   UNL     1      43.409 -15.652   1.654  1.00  0.00     0.007 A 
HETATM   31  C   UNL     1      42.560 -14.558   1.468  1.00  0.00     0.011 A 
ENDBRANCH   6  24
BRANCH   9  32
HETATM   32  C   UNL     1      39.550 -13.698  -0.810  1.00  0.00     0.293 C 
HETATM   33  O   UNL     1      39.809 -14.836  -1.147  1.00  0.00    -0.259 OA
BRANCH  32  34
HETATM   34  O   UNL     1      38.409 -13.012  -1.057  1.00  0.00    -0.323 OA
HETATM   35  C   UNL     1      37.788 -13.270  -2.320  1.00  0.00     0.213 C 
ENDBRANCH  32  34
ENDBRANCH   9  32
BRANCH   1  36
HETATM   36  C   UNL     1      41.303 -11.386  -1.658  1.00  0.00     0.056 C 
HETATM   37  C   UNL     1      41.136  -9.899  -1.962  1.00  0.00     0.011 C 
ENDBRANCH   1  36
TORSDOF 9
ENDMDL
MODEL 2
REMARK VINA RESULT:      -7.3      2.957      8.006
REMARK  9 active torsions:
REMARK  status: ('A' for Active; 'I' for Inactive)
REMARK    1  A    between atoms: C_2  and  C_3 
REMARK    2  A    between atoms: C_7  and  C_8 
REMARK    3  A    between atoms: C_8  and  C_9 
REMARK       I    between atoms: C_9  and  N_10 
REMARK    4  A    between atoms: N_10  and  C_11 
REMARK    5  A    between atoms: C_11  and  C_12 
REMARK    6  A    between atoms: C_12  and  C_13 
REMARK    7  A    between atoms: C_21  and  C_22 
REMARK    8  A    between atoms: C_32  and  C_33 
REMARK    9  A    between atoms: C_33  and  O_34 
ROOT
HETATM    1  C   UNL     1      43.913 -11.125   7.108  1.00  0.00     0.051 C 
HETATM    2  N   UNL     1      44.333 -12.428   6.977  1.00  0.00    -0.228 NA
HETATM    3  C   UNL     1      43.470 -13.323   6.664  1.00  0.00     0.170 C 
HETATM    4  N   UNL     1      42.017 -13.053   6.163  1.00  0.00    -0.318 N 
HETATM    5  C   UNL     1      41.517 -14.168   5.727  1.00  0.00     0.011 C 
HETATM    6  C   UNL     1      41.630 -11.616   6.138  1.00  0.00     0.166 C 
HETATM    7  S   UNL     1      43.882 -15.010   6.643  1.00  0.00    -0.086 SA
HETATM    8  C   UNL     1      42.157 -15.421   6.294  1.00  0.00     0.135 C 
HETATM    9  C   UNL     1      42.640 -10.756   6.858  1.00  0.00     0.069 C 
ENDROOT
BRANCH   5  10
HETATM   10  C   UNL     1      40.579 -14.267   4.549  1.00  0.00     0.156 C 
BRANCH  10  11
HETATM   11  C   UNL     1      41.352 -14.920   3.402  1.00  0.00     0.222 C 
HETATM   12  N   UNL     1      41.159 -16.261   3.204  1.00  0.00    -0.361 N 
HETATM   13  H   UNL     1      40.482 -16.756   3.780  1.00  0.00     0.162 HD
HETATM   14  O   UNL     1      42.165 -14.268   2.741  1.00  0.00    -0.273 OA
BRANCH  12  15
HETATM   15  C   UNL     1      42.185 -17.078   2.568  1.00  0.00     0.124 C 
BRANCH  15  16
HETATM   16  C   UNL     1      43.515 -17.239   3.317  1.00  0.00     0.053 C 
BRANCH  16  17
HETATM   17  C   UNL     1      44.086 -18.648   3.451  1.00  0.00     0.189 C 
HETATM   18  N   UNL     1      44.396 -19.115   4.860  1.00  0.00    -0.071 N 
HETATM   19  H   UNL     1      45.307 -18.683   5.108  1.00  0.00     0.279 HD
HETATM   20  C   UNL     1      43.414 -18.785   5.949  1.00  0.00     0.270 C 
HETATM   21  C   UNL     1      44.582 -20.622   4.739  1.00  0.00     0.235 C 
HETATM   22  C   UNL     1      43.898 -21.014   3.434  1.00  0.00     0.030 C 
HETATM   23  C   UNL     1      43.189 -19.762   2.937  1.00  0.00     0.035 C 
ENDBRANCH  16  17
ENDBRANCH  15  16
ENDBRANCH  12  15
ENDBRANCH  10  11
ENDBRANCH   5  10
BRANCH   6  24
HETATM   24  C   UNL     1      41.351 -11.122   4.717  1.00  0.00    -0.024 A 
HETATM   25  C   UNL     1      40.072 -10.649   4.328  1.00  0.00    -0.053 A 
HETATM   26  C   UNL     1      38.892 -10.583   5.269  1.00  0.00     0.049 C 
HETATM   27  C   UNL     1      39.877 -10.174   3.018  1.00  0.00     0.014 A 
HETATM   28  C   UNL     1      40.915 -10.165   2.081  1.00  0.00    -0.061 A 
HETATM   29  C   UNL     1      40.699  -9.578   0.715  1.00  0.00     0.048 C 
HETATM   30  C   UNL     1      42.174 -10.622   2.466  1.00  0.00     0.007 A 
HETATM   31  C   UNL     1      42.393 -11.095   3.763  1.00  0.00     0.011 A 
ENDBRANCH   6  24
BRANCH   9  32
HETATM   32  C   UNL     1      42.082  -9.507   7.428  1.00  0.00     0.293 C 
HETATM   33  O   UNL     1      41.632  -9.421   8.553  1.00  0.00    -0.259 OA
BRANCH  32  34
HETATM   34  O   UNL     1      42.360  -8.491   6.578  1.00  0.00    -0.323 OA
HETATM   35  C   UNL     1      41.243  -7.691   6.180  1.00  0.00     0.213 C 
ENDBRANCH  32  34
ENDBRANCH   9  32
BRANCH   1  36
HETATM   36  C   UNL     1      45.021 -10.194   7.594  1.00  0.00     0.056 C 
HETATM   37  C   UNL     1      45.293 -10.254   9.095  1.00  0.00     0.011 C 
ENDBRANCH   1  36
TORSDOF 9
ENDMDL
MODEL 3
REMARK VINA RESULT:      -7.2      3.583      9.389
REMARK  9 active torsions:
REMARK  status: ('A' for Active; 'I' for Inactive)
REMARK    1  A    between atoms: C_2  and  C_3 
REMARK    2  A    between atoms: C_7  and  C_8 
REMARK    3  A    between atoms: C_8  and  C_9 
REMARK       I    between atoms: C_9  and  N_10 
REMARK    4  A    between atoms: N_10  and  C_11 
REMARK    5  A    between atoms: C_11  and  C_12 
REMARK    6  A    between atoms: C_12  and  C_13 
REMARK    7  A    between atoms: C_21  and  C_22 
REMARK    8  A    between atoms: C_32  and  C_33 
REMARK    9  A    between atoms: C_33  and  O_34 
ROOT
HETATM    1  C   UNL     1      42.716  -8.247  10.378  1.00  0.00     0.051 C 
HETATM    2  N   UNL     1      43.983  -8.433   9.878  1.00  0.00    -0.228 NA
HETATM    3  C   UNL     1      44.153  -9.294   8.943  1.00  0.00     0.170 C 
HETATM    4  N   UNL     1      43.021  -9.986   8.123  1.00  0.00    -0.318 N 
HETATM    5  C   UNL     1      43.560 -10.610   7.121  1.00  0.00     0.011 C 
HETATM    6  C   UNL     1      41.642  -9.636   8.559  1.00  0.00     0.166 C 
HETATM    7  S   UNL     1      45.742  -9.709   8.374  1.00  0.00    -0.086 SA
HETATM    8  C   UNL     1      45.020 -10.977   7.306  1.00  0.00     0.135 C 
HETATM    9  C   UNL     1      41.645  -8.894   9.874  1.00  0.00     0.069 C 
ENDROOT
BRANCH   5  10
HETATM   10  C   UNL     1      42.918 -10.731   5.761  1.00  0.00     0.156 C 
BRANCH  10  11
HETATM   11  C   UNL     1      42.732 -12.222   5.473  1.00  0.00     0.222 C 
HETATM   12  N   UNL     1      42.019 -12.949   6.388  1.00  0.00    -0.361 N 
HETATM   13  H   UNL     1      41.599 -12.473   7.183  1.00  0.00     0.162 HD
HETATM   14  O   UNL     1      43.272 -12.745   4.494  1.00  0.00    -0.273 OA
BRANCH  12  15
HETATM   15  C   UNL     1      42.233 -14.383   6.535  1.00  0.00     0.124 C 
BRANCH  15  16
HETATM   16  C   UNL     1      41.160 -15.314   5.955  1.00  0.00     0.053 C 
BRANCH  16  17
HETATM   17  C   UNL     1      41.575 -16.261   4.833  1.00  0.00     0.189 C 
HETATM   18  N   UNL     1      40.888 -16.059   3.495  1.00  0.00    -0.071 N 
HETATM   19  H   UNL     1      39.959 -16.512   3.583  1.00  0.00     0.279 HD
HETATM   20  C   UNL     1      40.675 -14.651   3.013  1.00  0.00     0.270 C 
HETATM   21  C   UNL     1      41.730 -16.849   2.502  1.00  0.00     0.235 C 
HETATM   22  C   UNL     1      43.085 -17.037   3.174  1.00  0.00     0.030 C 
HETATM   23  C   UNL     1      43.044 -16.203   4.446  1.00  0.00     0.035 C 
ENDBRANCH  16  17
ENDBRANCH  15  16
ENDBRANCH  12  15
ENDBRANCH  10  11
ENDBRANCH   5  10
BRANCH   6  24
HETATM   24  C   UNL     1      40.869  -8.889   7.470  1.00  0.00    -0.024 A 
HETATM   25  C   UNL     1      39.684  -9.418   6.898  1.00  0.00    -0.053 A 
HETATM   26  C   UNL     1      39.084 -10.741   7.312  1.00  0.00     0.049 C 
HETATM   27  C   UNL     1      38.992  -8.675   5.924  1.00  0.00     0.014 A 
HETATM   28  C   UNL     1      39.451  -7.426   5.495  1.00  0.00    -0.061 A 
HETATM   29  C   UNL     1      38.649  -6.619   4.513  1.00  0.00     0.048 C 
HETATM   30  C   UNL     1      40.611  -6.902   6.063  1.00  0.00     0.007 A 
HETATM   31  C   UNL     1      41.312  -7.620   7.036  1.00  0.00     0.011 A 
ENDBRANCH   6  24
BRANCH   9  32
HETATM   32  C   UNL     1      40.408  -9.061  10.672  1.00  0.00     0.293 C 
HETATM   33  O   UNL     1      39.372  -8.471  10.442  1.00  0.00    -0.259 OA
BRANCH  32  34
HETATM   34  O   UNL     1      40.586 -10.103  11.517  1.00  0.00    -0.323 OA
HETATM   35  C   UNL     1      39.867 -10.033  12.752  1.00  0.00     0.213 C 
ENDBRANCH  32  34
ENDBRANCH   9  32
BRANCH   1  36
HETATM   36  C   UNL     1      42.684  -7.280  11.560  1.00  0.00     0.056 C 
HETATM   37  C   UNL     1      43.158  -7.875  12.884  1.00  0.00     0.011 C 
ENDBRANCH   1  36
TORSDOF 9
ENDMDL
MODEL 4
REMARK VINA RESULT:      -7.2      2.637      4.605
REMARK  9 active torsions:
REMARK  status: ('A' for Active; 'I' for Inactive)
REMARK    1  A    between atoms: C_2  and  C_3 
REMARK    2  A    between atoms: C_7  and  C_8 
REMARK    3  A    between atoms: C_8  and  C_9 
REMARK       I    between atoms: C_9  and  N_10 
REMARK    4  A    between atoms: N_10  and  C_11 
REMARK    5  A    between atoms: C_11  and  C_12 
REMARK    6  A    between atoms: C_12  and  C_13 
REMARK    7  A    between atoms: C_21  and  C_22 
REMARK    8  A    between atoms: C_32  and  C_33 
REMARK    9  A    between atoms: C_33  and  O_34 
ROOT
HETATM    1  C   UNL     1      40.635 -13.469   1.815  1.00  0.00     0.051 C 
HETATM    2  N   UNL     1      39.994 -12.286   1.531  1.00  0.00    -0.228 NA
HETATM    3  C   UNL     1      39.549 -11.581   2.504  1.00  0.00     0.170 C 
HETATM    4  N   UNL     1      39.879 -11.797   4.014  1.00  0.00    -0.318 N 
HETATM    5  C   UNL     1      39.447 -10.772   4.682  1.00  0.00     0.011 C 
HETATM    6  C   UNL     1      40.728 -12.987   4.295  1.00  0.00     0.166 C 
HETATM    7  S   UNL     1      38.584 -10.163   2.227  1.00  0.00    -0.086 SA
HETATM    8  C   UNL     1      38.333  -9.993   4.009  1.00  0.00     0.135 C 
HETATM    9  C   UNL     1      40.861 -13.875   3.082  1.00  0.00     0.069 C 
ENDROOT
BRANCH   5  10
HETATM   10  C   UNL     1      40.149 -10.196   5.887  1.00  0.00     0.156 C 
BRANCH  10  11
HETATM   11  C   UNL     1      39.275 -10.485   7.108  1.00  0.00     0.222 C 
HETATM   12  N   UNL     1      39.354  -9.606   8.154  1.00  0.00    -0.361 N 
HETATM   13  H   UNL     1      39.939  -8.778   8.064  1.00  0.00     0.162 HD
HETATM   14  O   UNL     1      38.590 -11.511   7.162  1.00  0.00    -0.273 OA
BRANCH  12  15
HETATM   15  C   UNL     1      39.041 -10.030   9.513  1.00  0.00     0.124 C 
BRANCH  15  16
HETATM   16  C   UNL     1      39.537  -9.135  10.657  1.00  0.00     0.053 C 
BRANCH  16  17
HETATM   17  C   UNL     1      40.582  -9.714  11.607  1.00  0.00     0.189 C 
HETATM   18  N   UNL     1      41.912 -10.098  10.989  1.00  0.00    -0.071 N 
HETATM   19  H   UNL     1      41.759 -11.021  10.537  1.00  0.00     0.279 HD
HETATM   20  C   UNL     1      42.512  -9.175   9.966  1.00  0.00     0.270 C 
HETATM   21  C   UNL     1      42.854 -10.279  12.172  1.00  0.00     0.235 C 
HETATM   22  C   UNL     1      42.205  -9.528  13.329  1.00  0.00     0.030 C 
HETATM   23  C   UNL     1      41.012  -8.792  12.737  1.00  0.00     0.035 C 
ENDBRANCH  16  17
ENDBRANCH  15  16
ENDBRANCH  12  15
ENDBRANCH  10  11
ENDBRANCH   5  10
BRANCH   6  24
HETATM   24  C   UNL     1      42.085 -12.596   4.883  1.00  0.00    -0.024 A 
HETATM   25  C   UNL     1      42.608 -13.227   6.041  1.00  0.00    -0.053 A 
HETATM   26  C   UNL     1      41.887 -14.330   6.780  1.00  0.00     0.049 C 
HETATM   27  C   UNL     1      43.876 -12.853   6.521  1.00  0.00     0.014 A 
HETATM   28  C   UNL     1      44.635 -11.864   5.890  1.00  0.00    -0.061 A 
HETATM   29  C   UNL     1      46.020 -11.543   6.378  1.00  0.00     0.048 C 
HETATM   30  C   UNL     1      44.125 -11.250   4.747  1.00  0.00     0.007 A 
HETATM   31  C   UNL     1      42.870 -11.607   4.249  1.00  0.00     0.011 A 
ENDBRANCH   6  24
BRANCH   9  32
HETATM   32  C   UNL     1      41.109 -15.301   3.393  1.00  0.00     0.293 C 
HETATM   33  O   UNL     1      40.231 -16.136   3.478  1.00  0.00    -0.259 OA
BRANCH  32  34
HETATM   34  O   UNL     1      42.444 -15.520   3.348  1.00  0.00    -0.323 OA
HETATM   35  C   UNL     1      42.848 -16.800   2.854  1.00  0.00     0.213 C 
ENDBRANCH  32  34
ENDBRANCH   9  32
BRANCH   1  36
HETATM   36  C   UNL     1      41.008 -14.254   0.559  1.00  0.00     0.056 C 
HETATM   37  C   UNL     1      39.826 -14.639  -0.327  1.00  0.00     0.011 C 
ENDBRANCH   1  36
TORSDOF 9
ENDMDL
MODEL 5
REMARK VINA RESULT:      -7.1      3.904      5.789
REMARK  9 active torsions:
REMARK  status: ('A' for Active; 'I' for Inactive)
REMARK    1  A    between atoms: C_2  and  C_3 
REMARK    2  A    between atoms: C_7  and  C_8 
REMARK    3  A    between atoms: C_8  and  C_9 
REMARK       I    between atoms: C_9  and  N_10 
REMARK    4  A    between atoms: N_10  and  C_11 
REMARK    5  A    between atoms: C_11  and  C_12 
REMARK    6  A    between atoms: C_12  and  C_13 
REMARK    7  A    between atoms: C_21  and  C_22 
REMARK    8  A    between atoms: C_32  and  C_33 
REMARK    9  A    between atoms: C_33  and  O_34 
ROOT
HETATM    1  C   UNL     1      41.685  -9.115  -0.902  1.00  0.00     0.051 C 
HETATM    2  N   UNL     1      42.119  -9.388   0.375  1.00  0.00    -0.228 NA
HETATM    3  C   UNL     1      41.264  -9.797   1.238  1.00  0.00     0.170 C 
HETATM    4  N   UNL     1      39.808 -10.267   0.930  1.00  0.00    -0.318 N 
HETATM    5  C   UNL     1      39.320 -10.823   1.997  1.00  0.00     0.011 C 
HETATM    6  C   UNL     1      39.407 -10.135  -0.497  1.00  0.00     0.166 C 
HETATM    7  S   UNL     1      41.694 -10.002   2.909  1.00  0.00    -0.086 SA
HETATM    8  C   UNL     1      39.973 -10.395   3.297  1.00  0.00     0.135 C 
HETATM    9  C   UNL     1      40.408  -9.324  -1.283  1.00  0.00     0.069 C 
ENDROOT
BRANCH   5  10
HETATM   10  C   UNL     1      38.383 -12.005   1.976  1.00  0.00     0.156 C 
BRANCH  10  11
HETATM   11  C   UNL     1      39.141 -13.200   2.555  1.00  0.00     0.222 C 
HETATM   12  N   UNL     1      39.479 -14.204   1.687  1.00  0.00    -0.361 N 
HETATM   13  H   UNL     1      39.267 -14.098   0.697  1.00  0.00     0.162 HD
HETATM   14  O   UNL     1      39.364 -13.276   3.766  1.00  0.00    -0.273 OA
BRANCH  12  15
HETATM   15  C   UNL     1      39.678 -15.568   2.161  1.00  0.00     0.124 C 
BRANCH  15  16
HETATM   16  C   UNL     1      41.105 -16.128   2.103  1.00  0.00     0.053 C 
BRANCH  16  17
HETATM   17  C   UNL     1      41.813 -16.402   3.427  1.00  0.00     0.189 C 
HETATM   18  N   UNL     1      42.992 -15.506   3.757  1.00  0.00    -0.071 N 
HETATM   19  H   UNL     1      43.792 -15.879   3.210  1.00  0.00     0.279 HD
HETATM   20  C   UNL     1      42.871 -14.038   3.461  1.00  0.00     0.270 C 
HETATM   21  C   UNL     1      43.255 -15.739   5.238  1.00  0.00     0.235 C 
HETATM   22  C   UNL     1      41.966 -16.331   5.795  1.00  0.00     0.030 C 
HETATM   23  C   UNL     1      40.947 -16.254   4.668  1.00  0.00     0.035 C 
ENDBRANCH  16  17
ENDBRANCH  15  16
ENDBRANCH  12  15
ENDBRANCH  10  11
ENDBRANCH   5  10
BRANCH   6  24
HETATM   24  C   UNL     1      39.123 -11.494  -1.140  1.00  0.00    -0.024 A 
HETATM   25  C   UNL     1      37.857 -11.805  -1.702  1.00  0.00    -0.053 A 
HETATM   26  C   UNL     1      36.700 -10.835  -1.722  1.00  0.00     0.049 C 
HETATM   27  C   UNL     1      37.659 -13.057  -2.311  1.00  0.00     0.014 A 
HETATM   28  C   UNL     1      38.677 -14.012  -2.370  1.00  0.00    -0.061 A 
HETATM   29  C   UNL     1      38.461 -15.309  -3.098  1.00  0.00     0.048 C 
HETATM   30  C   UNL     1      39.923 -13.703  -1.826  1.00  0.00     0.007 A 
HETATM   31  C   UNL     1      40.146 -12.465  -1.218  1.00  0.00     0.011 A 
ENDBRANCH   6  24
BRANCH   9  32
HETATM   32  C   UNL     1      39.838  -8.622  -2.456  1.00  0.00     0.293 C 
HETATM   33  O   UNL     1      39.718  -9.128  -3.554  1.00  0.00    -0.259 OA
BRANCH  32  34
HETATM   34  O   UNL     1      39.305  -7.452  -2.032  1.00  0.00    -0.323 OA
HETATM   35  C   UNL     1      39.753  -6.279  -2.718  1.00  0.00     0.213 C 
ENDBRANCH  32  34
ENDBRANCH   9  32
BRANCH   1  36
HETATM   36  C   UNL     1      42.784  -8.530  -1.786  1.00  0.00     0.056 C 
HETATM   37  C   UNL     1      43.271  -7.145  -1.365  1.00  0.00     0.011 C 
ENDBRANCH   1  36
TORSDOF 9
ENDMDL
MODEL 6
REMARK VINA RESULT:      -7.1      4.283     10.451
REMARK  9 active torsions:
REMARK  status: ('A' for Active; 'I' for Inactive)
REMARK    1  A    between atoms: C_2  and  C_3 
REMARK    2  A    between atoms: C_7  and  C_8 
REMARK    3  A    between atoms: C_8  and  C_9 
REMARK       I    between atoms: C_9  and  N_10 
REMARK    4  A    between atoms: N_10  and  C_11 
REMARK    5  A    between atoms: C_11  and  C_12 
REMARK    6  A    between atoms: C_12  and  C_13 
REMARK    7  A    between atoms: C_21  and  C_22 
REMARK    8  A    between atoms: C_32  and  C_33 
REMARK    9  A    between atoms: C_33  and  O_34 
ROOT
HETATM    1  C   UNL     1      42.776  -8.500  12.328  1.00  0.00     0.051 C 
HETATM    2  N   UNL     1      43.995  -8.653  11.710  1.00  0.00    -0.228 NA
HETATM    3  C   UNL     1      44.040  -9.266  10.585  1.00  0.00     0.170 C 
HETATM    4  N   UNL     1      42.810  -9.645   9.702  1.00  0.00    -0.318 N 
HETATM    5  C   UNL     1      43.241 -10.041   8.544  1.00  0.00     0.011 C 
HETATM    6  C   UNL     1      41.492  -9.309  10.306  1.00  0.00     0.166 C 
HETATM    7  S   UNL     1      45.554  -9.648   9.823  1.00  0.00    -0.086 SA
HETATM    8  C   UNL     1      44.669 -10.553   8.532  1.00  0.00     0.135 C 
HETATM    9  C   UNL     1      41.627  -8.918  11.757  1.00  0.00     0.069 C 
ENDROOT
BRANCH   5  10
HETATM   10  C   UNL     1      42.525  -9.773   7.243  1.00  0.00     0.156 C 
BRANCH  10  11
HETATM   11  C   UNL     1      42.740 -10.989   6.342  1.00  0.00     0.222 C 
HETATM   12  N   UNL     1      42.200 -12.176   6.758  1.00  0.00    -0.361 N 
HETATM   13  H   UNL     1      41.639 -12.197   7.606  1.00  0.00     0.162 HD
HETATM   14  O   UNL     1      43.437 -10.904   5.327  1.00  0.00    -0.273 OA
BRANCH  12  15
HETATM   15  C   UNL     1      42.769 -13.448   6.330  1.00  0.00     0.124 C 
BRANCH  15  16
HETATM   16  C   UNL     1      41.830 -14.431   5.619  1.00  0.00     0.053 C 
BRANCH  16  17
HETATM   17  C   UNL     1      42.428 -15.325   4.536  1.00  0.00     0.189 C 
HETATM   18  N   UNL     1      43.326 -16.450   5.013  1.00  0.00    -0.071 N 
HETATM   19  H   UNL     1      44.246 -16.013   5.211  1.00  0.00     0.279 HD
HETATM   20  C   UNL     1      42.907 -17.223   6.232  1.00  0.00     0.270 C 
HETATM   21  C   UNL     1      43.467 -17.372   3.810  1.00  0.00     0.235 C 
HETATM   22  C   UNL     1      42.293 -17.038   2.898  1.00  0.00     0.030 C 
HETATM   23  C   UNL     1      41.417 -16.069   3.678  1.00  0.00     0.035 C 
ENDBRANCH  16  17
ENDBRANCH  15  16
ENDBRANCH  12  15
ENDBRANCH  10  11
ENDBRANCH   5  10
BRANCH   6  24
HETATM   24  C   UNL     1      40.738  -8.259   9.487  1.00  0.00    -0.024 A 
HETATM   25  C   UNL     1      39.594  -8.591   8.716  1.00  0.00    -0.053 A 
HETATM   26  C   UNL     1      39.022  -9.987   8.644  1.00  0.00     0.049 C 
HETATM   27  C   UNL     1      38.918  -7.581   8.009  1.00  0.00     0.014 A 
HETATM   28  C   UNL     1      39.352  -6.253   8.036  1.00  0.00    -0.061 A 
HETATM   29  C   UNL     1      38.563  -5.182   7.336  1.00  0.00     0.048 C 
HETATM   30  C   UNL     1      40.471  -5.925   8.800  1.00  0.00     0.007 A 
HETATM   31  C   UNL     1      41.157  -6.910   9.515  1.00  0.00     0.011 A 
ENDBRANCH   6  24
BRANCH   9  32
HETATM   32  C   UNL     1      40.421  -9.182  12.575  1.00  0.00     0.293 C 
HETATM   33  O   UNL     1      39.505  -8.395  12.701  1.00  0.00    -0.259 OA
BRANCH  32  34
HETATM   34  O   UNL     1      40.440 -10.482  12.952  1.00  0.00    -0.323 OA
HETATM   35  C   UNL     1      39.186 -11.168  12.883  1.00  0.00     0.213 C 
ENDBRANCH  32  34
ENDBRANCH   9  32
BRANCH   1  36
HETATM   36  C   UNL     1      42.890  -7.855  13.707  1.00  0.00     0.056 C 
HETATM   37  C   UNL     1      42.611  -6.354  13.736  1.00  0.00     0.011 C 
ENDBRANCH   1  36
TORSDOF 9
ENDMDL
MODEL 7
REMARK VINA RESULT:      -7.0      3.157      5.692
REMARK  9 active torsions:
REMARK  status: ('A' for Active; 'I' for Inactive)
REMARK    1  A    between atoms: C_2  and  C_3 
REMARK    2  A    between atoms: C_7  and  C_8 
REMARK    3  A    between atoms: C_8  and  C_9 
REMARK       I    between atoms: C_9  and  N_10 
REMARK    4  A    between atoms: N_10  and  C_11 
REMARK    5  A    between atoms: C_11  and  C_12 
REMARK    6  A    between atoms: C_12  and  C_13 
REMARK    7  A    between atoms: C_21  and  C_22 
REMARK    8  A    between atoms: C_32  and  C_33 
REMARK    9  A    between atoms: C_33  and  O_34 
ROOT
HETATM    1  C   UNL     1      39.513  -9.888  -1.324  1.00  0.00     0.051 C 
HETATM    2  N   UNL     1      38.869 -11.020  -1.767  1.00  0.00    -0.228 NA
HETATM    3  C   UNL     1      39.232 -12.156  -1.297  1.00  0.00     0.170 C 
HETATM    4  N   UNL     1      40.173 -12.379  -0.072  1.00  0.00    -0.318 N 
HETATM    5  C   UNL     1      40.134 -13.634   0.254  1.00  0.00     0.011 C 
HETATM    6  C   UNL     1      40.726 -11.129   0.515  1.00  0.00     0.166 C 
HETATM    7  S   UNL     1      38.587 -13.642  -1.925  1.00  0.00    -0.086 SA
HETATM    8  C   UNL     1      39.713 -14.573  -0.860  1.00  0.00     0.135 C 
HETATM    9  C   UNL     1      40.467  -9.935  -0.371  1.00  0.00     0.069 C 
ENDROOT
BRANCH   5  10
HETATM   10  C   UNL     1      40.213 -14.137   1.675  1.00  0.00     0.156 C 
BRANCH  10  11
HETATM   11  C   UNL     1      41.503 -14.948   1.802  1.00  0.00     0.222 C 
HETATM   12  N   UNL     1      41.400 -16.202   2.342  1.00  0.00    -0.361 N 
HETATM   13  H   UNL     1      40.481 -16.565   2.586  1.00  0.00     0.162 HD
HETATM   14  O   UNL     1      42.591 -14.452   1.496  1.00  0.00    -0.273 OA
BRANCH  12  15
HETATM   15  C   UNL     1      42.537 -16.824   3.011  1.00  0.00     0.124 C 
BRANCH  15  16
HETATM   16  C   UNL     1      42.645 -16.634   4.530  1.00  0.00     0.053 C 
BRANCH  16  17
HETATM   17  C   UNL     1      43.055 -15.257   5.044  1.00  0.00     0.189 C 
HETATM   18  N   UNL     1      41.932 -14.265   5.276  1.00  0.00    -0.071 N 
HETATM   19  H   UNL     1      41.692 -13.884   4.341  1.00  0.00     0.279 HD
HETATM   20  C   UNL     1      40.665 -14.764   5.912  1.00  0.00     0.270 C 
HETATM   21  C   UNL     1      42.557 -13.158   6.114  1.00  0.00     0.235 C 
HETATM   22  C   UNL     1      43.805 -13.772   6.737  1.00  0.00     0.030 C 
HETATM   23  C   UNL     1      43.764 -15.253   6.389  1.00  0.00     0.035 C 
ENDBRANCH  16  17
ENDBRANCH  15  16
ENDBRANCH  12  15
ENDBRANCH  10  11
ENDBRANCH   5  10
BRANCH   6  24
HETATM   24  C   UNL     1      40.241 -10.906   1.950  1.00  0.00    -0.024 A 
HETATM   25  C   UNL     1      41.130 -10.950   3.054  1.00  0.00    -0.053 A 
HETATM   26  C   UNL     1      42.612 -11.207   2.915  1.00  0.00     0.049 C 
HETATM   27  C   UNL     1      40.639 -10.704   4.349  1.00  0.00     0.014 A 
HETATM   28  C   UNL     1      39.288 -10.428   4.579  1.00  0.00    -0.061 A 
HETATM   29  C   UNL     1      38.807 -10.091   5.962  1.00  0.00     0.048 C 
HETATM   30  C   UNL     1      38.416 -10.376   3.492  1.00  0.00     0.007 A 
HETATM   31  C   UNL     1      38.882 -10.612   2.196  1.00  0.00     0.011 A 
ENDBRANCH   6  24
BRANCH   9  32
HETATM   32  C   UNL     1      41.459  -8.844  -0.232  1.00  0.00     0.293 C 
HETATM   33  O   UNL     1      41.338  -7.915   0.542  1.00  0.00    -0.259 OA
BRANCH  32  34
HETATM   34  O   UNL     1      42.566  -9.184  -0.934  1.00  0.00    -0.323 OA
HETATM   35  C   UNL     1      43.109  -8.161  -1.773  1.00  0.00     0.213 C 
ENDBRANCH  32  34
ENDBRANCH   9  32
BRANCH   1  36
HETATM   36  C   UNL     1      39.055  -8.626  -2.051  1.00  0.00     0.056 C 
HETATM   37  C   UNL     1      38.020  -7.795  -1.295  1.00  0.00     0.011 C 
ENDBRANCH   1  36
TORSDOF 9
ENDMDL
MODEL 8
REMARK VINA RESULT:      -6.9      2.976      5.077
REMARK  9 active torsions:
REMARK  status: ('A' for Active; 'I' for Inactive)
REMARK    1  A    between atoms: C_2  and  C_3 
REMARK    2  A    between atoms: C_7  and  C_8 
REMARK    3  A    between atoms: C_8  and  C_9 
REMARK       I    between atoms: C_9  and  N_10 
REMARK    4  A    between atoms: N_10  and  C_11 
REMARK    5  A    between atoms: C_11  and  C_12 
REMARK    6  A    between atoms: C_12  and  C_13 
REMARK    7  A    between atoms: C_21  and  C_22 
REMARK    8  A    between atoms: C_32  and  C_33 
REMARK    9  A    between atoms: C_33  and  O_34 
ROOT
HETATM    1  C   UNL     1      41.295 -14.669   2.753  1.00  0.00     0.051 C 
HETATM    2  N   UNL     1      40.648 -13.669   2.065  1.00  0.00    -0.228 NA
HETATM    3  C   UNL     1      40.135 -12.700   2.730  1.00  0.00     0.170 C 
HETATM    4  N   UNL     1      40.382 -12.397   4.241  1.00  0.00    -0.318 N 
HETATM    5  C   UNL     1      39.894 -11.226   4.511  1.00  0.00     0.011 C 
HETATM    6  C   UNL     1      41.237 -13.396   4.937  1.00  0.00     0.166 C 
HETATM    7  S   UNL     1      39.159 -11.489   1.955  1.00  0.00    -0.086 SA
HETATM    8  C   UNL     1      38.804 -10.753   3.568  1.00  0.00     0.135 C 
HETATM    9  C   UNL     1      41.457 -14.627   4.092  1.00  0.00     0.069 C 
ENDROOT
BRANCH   5  10
HETATM   10  C   UNL     1      40.514 -10.261   5.491  1.00  0.00     0.156 C 
BRANCH  10  11
HETATM   11  C   UNL     1      39.723 -10.361   6.796  1.00  0.00     0.222 C 
HETATM   12  N   UNL     1      39.857  -9.330   7.687  1.00  0.00    -0.361 N 
HETATM   13  H   UNL     1      40.424  -8.524   7.433  1.00  0.00     0.162 HD
HETATM   14  O   UNL     1      39.057 -11.367   7.051  1.00  0.00    -0.273 OA
BRANCH  12  15
HETATM   15  C   UNL     1      39.636  -9.539   9.112  1.00  0.00     0.124 C 
BRANCH  15  16
HETATM   16  C   UNL     1      40.768  -9.127  10.064  1.00  0.00     0.053 C 
BRANCH  16  17
HETATM   17  C   UNL     1      42.202  -9.269   9.561  1.00  0.00     0.189 C 
HETATM   18  N   UNL     1      42.849  -8.012   9.014  1.00  0.00    -0.071 N 
HETATM   19  H   UNL     1      42.484  -7.903   8.048  1.00  0.00     0.279 HD
HETATM   20  C   UNL     1      42.620  -6.719   9.745  1.00  0.00     0.270 C 
HETATM   21  C   UNL     1      44.336  -8.337   8.945  1.00  0.00     0.235 C 
HETATM   22  C   UNL     1      44.541  -9.515   9.889  1.00  0.00     0.030 C 
HETATM   23  C   UNL     1      43.213  -9.716  10.606  1.00  0.00     0.035 C 
ENDBRANCH  16  17
ENDBRANCH  15  16
ENDBRANCH  12  15
ENDBRANCH  10  11
ENDBRANCH   5  10
BRANCH   6  24
HETATM   24  C   UNL     1      42.551 -12.783   5.427  1.00  0.00    -0.024 A 
HETATM   25  C   UNL     1      43.438 -12.112   4.545  1.00  0.00    -0.053 A 
HETATM   26  C   UNL     1      43.163 -11.938   3.071  1.00  0.00     0.049 C 
HETATM   27  C   UNL     1      44.617 -11.537   5.053  1.00  0.00     0.014 A 
HETATM   28  C   UNL     1      44.945 -11.619   6.409  1.00  0.00    -0.061 A 
HETATM   29  C   UNL     1      46.170 -10.927   6.937  1.00  0.00     0.048 C 
HETATM   30  C   UNL     1      44.071 -12.271   7.277  1.00  0.00     0.007 A 
HETATM   31  C   UNL     1      42.891 -12.847   6.797  1.00  0.00     0.011 A 
ENDBRANCH   6  24
BRANCH   9  32
HETATM   32  C   UNL     1      41.715 -15.862   4.868  1.00  0.00     0.293 C 
HETATM   33  O   UNL     1      42.819 -16.211   5.235  1.00  0.00    -0.259 OA
BRANCH  32  34
HETATM   34  O   UNL     1      40.524 -16.377   5.254  1.00  0.00    -0.323 OA
HETATM   35  C   UNL     1      40.114 -16.065   6.589  1.00  0.00     0.213 C 
ENDBRANCH  32  34
ENDBRANCH   9  32
BRANCH   1  36
HETATM   36  C   UNL     1      41.754 -15.807   1.846  1.00  0.00     0.056 C 
HETATM   37  C   UNL     1      43.250 -15.813   1.535  1.00  0.00     0.011 C 
ENDBRANCH   1  36
TORSDOF 9
ENDMDL
MODEL 9
REMARK VINA RESULT:      -6.9      3.550      5.839
REMARK  9 active torsions:
REMARK  status: ('A' for Active; 'I' for Inactive)
REMARK    1  A    between atoms: C_2  and  C_3 
REMARK    2  A    between atoms: C_7  and  C_8 
REMARK    3  A    between atoms: C_8  and  C_9 
REMARK       I    between atoms: C_9  and  N_10 
REMARK    4  A    between atoms: N_10  and  C_11 
REMARK    5  A    between atoms: C_11  and  C_12 
REMARK    6  A    between atoms: C_12  and  C_13 
REMARK    7  A    between atoms: C_21  and  C_22 
REMARK    8  A    between atoms: C_32  and  C_33 
REMARK    9  A    between atoms: C_33  and  O_34 
ROOT
HETATM    1  C   UNL     1      39.388 -13.496  -1.809  1.00  0.00     0.051 C 
HETATM    2  N   UNL     1      39.550 -14.505  -0.889  1.00  0.00    -0.228 NA
HETATM    3  C   UNL     1      40.333 -14.308   0.106  1.00  0.00     0.170 C 
HETATM    4  N   UNL     1      40.941 -12.935   0.532  1.00  0.00    -0.318 N 
HETATM    5  C   UNL     1      41.488 -13.071   1.700  1.00  0.00     0.011 C 
HETATM    6  C   UNL     1      40.610 -11.806  -0.379  1.00  0.00     0.166 C 
HETATM    7  S   UNL     1      40.722 -15.586   1.218  1.00  0.00    -0.086 SA
HETATM    8  C   UNL     1      41.888 -14.490   2.059  1.00  0.00     0.135 C 
HETATM    9  C   UNL     1      39.978 -12.291  -1.661  1.00  0.00     0.069 C 
ENDROOT
BRANCH   5  10
HETATM   10  C   UNL     1      41.489 -11.996   2.760  1.00  0.00     0.156 C 
BRANCH  10  11
HETATM   11  C   UNL     1      40.633 -12.499   3.923  1.00  0.00     0.222 C 
HETATM   12  N   UNL     1      41.267 -12.708   5.118  1.00  0.00    -0.361 N 
HETATM   13  H   UNL     1      42.253 -12.476   5.205  1.00  0.00     0.162 HD
HETATM   14  O   UNL     1      39.441 -12.771   3.754  1.00  0.00    -0.273 OA
BRANCH  12  15
HETATM   15  C   UNL     1      40.742 -13.663   6.086  1.00  0.00     0.124 C 
BRANCH  15  16
HETATM   16  C   UNL     1      41.042 -15.148   5.838  1.00  0.00     0.053 C 
BRANCH  16  17
HETATM   17  C   UNL     1      42.489 -15.540   5.554  1.00  0.00     0.189 C 
HETATM   18  N   UNL     1      43.467 -15.377   6.701  1.00  0.00    -0.071 N 
HETATM   19  H   UNL     1      43.708 -14.367   6.727  1.00  0.00     0.279 HD
HETATM   20  C   UNL     1      43.020 -15.782   8.078  1.00  0.00     0.270 C 
HETATM   21  C   UNL     1      44.698 -16.167   6.279  1.00  0.00     0.235 C 
HETATM   22  C   UNL     1      44.216 -17.129   5.200  1.00  0.00     0.030 C 
HETATM   23  C   UNL     1      42.701 -16.993   5.161  1.00  0.00     0.035 C 
ENDBRANCH  16  17
ENDBRANCH  15  16
ENDBRANCH  12  15
ENDBRANCH  10  11
ENDBRANCH   5  10
BRANCH   6  24
HETATM   24  C   UNL     1      39.766 -10.737   0.318  1.00  0.00    -0.024 A 
HETATM   25  C   UNL     1      40.205  -9.392   0.429  1.00  0.00    -0.053 A 
HETATM   26  C   UNL     1      41.520  -8.903  -0.130  1.00  0.00     0.049 C 
HETATM   27  C   UNL     1      39.375  -8.441   1.050  1.00  0.00     0.014 A 
HETATM   28  C   UNL     1      38.127  -8.790   1.573  1.00  0.00    -0.061 A 
HETATM   29  C   UNL     1      37.229  -7.737   2.159  1.00  0.00     0.048 C 
HETATM   30  C   UNL     1      37.691 -10.109   1.457  1.00  0.00     0.007 A 
HETATM   31  C   UNL     1      38.496 -11.071   0.840  1.00  0.00     0.011 A 
ENDBRANCH   6  24
BRANCH   9  32
HETATM   32  C   UNL     1      40.193 -11.399  -2.823  1.00  0.00     0.293 C 
HETATM   33  O   UNL     1      41.140 -11.491  -3.579  1.00  0.00    -0.259 OA
BRANCH  32  34
HETATM   34  O   UNL     1      39.079 -10.649  -2.995  1.00  0.00    -0.323 OA
HETATM   35  C   UNL     1      39.292  -9.242  -3.140  1.00  0.00     0.213 C 
ENDBRANCH  32  34
ENDBRANCH   9  32
BRANCH   1  36
HETATM   36  C   UNL     1      38.521 -13.911  -2.995  1.00  0.00     0.056 C 
HETATM   37  C   UNL     1      37.053 -13.502  -2.886  1.00  0.00     0.011 C 
ENDBRANCH   1  36
TORSDOF 9
ENDMDL
MODEL 10
REMARK VINA RESULT:      -6.9      2.320      4.553
REMARK  9 active torsions:
REMARK  status: ('A' for Active; 'I' for Inactive)
REMARK    1  A    between atoms: C_2  and  C_3 
REMARK    2  A    between atoms: C_7  and  C_8 
REMARK    3  A    between atoms: C_8  and  C_9 
REMARK       I    between atoms: C_9  and  N_10 
REMARK    4  A    between atoms: N_10  and  C_11 
REMARK    5  A    between atoms: C_11  and  C_12 
REMARK    6  A    between atoms: C_12  and  C_13 
REMARK    7  A    between atoms: C_21  and  C_22 
REMARK    8  A    between atoms: C_32  and  C_33 
REMARK    9  A    between atoms: C_33  and  O_34 
ROOT
HETATM    1  C   UNL     1      39.729 -14.070  -1.333  1.00  0.00     0.051 C 
HETATM    2  N   UNL     1      39.785 -15.010  -0.331  1.00  0.00    -0.228 NA
HETATM    3  C   UNL     1      40.443 -14.732   0.734  1.00  0.00     0.170 C 
HETATM    4  N   UNL     1      40.988 -13.324   1.129  1.00  0.00    -0.318 N 
HETATM    5  C   UNL     1      41.392 -13.369   2.361  1.00  0.00     0.011 C 
HETATM    6  C   UNL     1      40.761 -12.267   0.107  1.00  0.00     0.166 C 
HETATM    7  S   UNL     1      40.703 -15.922   1.973  1.00  0.00    -0.086 SA
HETATM    8  C   UNL     1      41.754 -14.753   2.866  1.00  0.00     0.135 C 
HETATM    9  C   UNL     1      40.290 -12.850  -1.203  1.00  0.00     0.069 C 
ENDROOT
BRANCH   5  10
HETATM   10  C   UNL     1      41.260 -12.222   3.333  1.00  0.00     0.156 C 
BRANCH  10  11
HETATM   11  C   UNL     1      42.665 -11.881   3.832  1.00  0.00     0.222 C 
HETATM   12  N   UNL     1      42.980 -12.253   5.111  1.00  0.00    -0.361 N 
HETATM   13  H   UNL     1      42.302 -12.781   5.656  1.00  0.00     0.162 HD
HETATM   14  O   UNL     1      43.442 -11.232   3.126  1.00  0.00    -0.273 OA
BRANCH  12  15
HETATM   15  C   UNL     1      44.001 -11.540   5.868  1.00  0.00     0.124 C 
BRANCH  15  16
HETATM   16  C   UNL     1      43.522 -10.438   6.823  1.00  0.00     0.053 C 
BRANCH  16  17
HETATM   17  C   UNL     1      43.860 -10.588   8.304  1.00  0.00     0.189 C 
HETATM   18  N   UNL     1      45.305 -10.339   8.691  1.00  0.00    -0.071 N 
HETATM   19  H   UNL     1      45.817 -11.209   8.449  1.00  0.00     0.279 HD
HETATM   20  C   UNL     1      46.023  -9.185   8.049  1.00  0.00     0.270 C 
HETATM   21  C   UNL     1      45.282 -10.186  10.206  1.00  0.00     0.235 C 
HETATM   22  C   UNL     1      43.838  -9.851  10.560  1.00  0.00     0.030 C 
HETATM   23  C   UNL     1      43.116  -9.646   9.237  1.00  0.00     0.035 C 
ENDBRANCH  16  17
ENDBRANCH  15  16
ENDBRANCH  12  15
ENDBRANCH  10  11
ENDBRANCH   5  10
BRANCH   6  24
HETATM   24  C   UNL     1      39.833 -11.163   0.620  1.00  0.00    -0.024 A 
HETATM   25  C   UNL     1      40.246  -9.807   0.680  1.00  0.00    -0.053 A 
HETATM   26  C   UNL     1      41.613  -9.338   0.240  1.00  0.00     0.049 C 
HETATM   27  C   UNL     1      39.343  -8.826   1.128  1.00  0.00     0.014 A 
HETATM   28  C   UNL     1      38.045  -9.156   1.529  1.00  0.00    -0.061 A 
HETATM   29  C   UNL     1      37.076  -8.078   1.927  1.00  0.00     0.048 C 
HETATM   30  C   UNL     1      37.636 -10.487   1.463  1.00  0.00     0.007 A 
HETATM   31  C   UNL     1      38.515 -11.478   1.017  1.00  0.00     0.011 A 
ENDBRANCH   6  24
BRANCH   9  32
HETATM   32  C   UNL     1      40.637 -12.039  -2.393  1.00  0.00     0.293 C 
HETATM   33  O   UNL     1      41.568 -12.289  -3.132  1.00  0.00    -0.259 OA
BRANCH  32  34
HETATM   34  O   UNL     1      39.639 -11.150  -2.606  1.00  0.00    -0.323 OA
HETATM   35  C   UNL     1      40.038  -9.885  -3.143  1.00  0.00     0.213 C 
ENDBRANCH  32  34
ENDBRANCH   9  32
BRANCH   1  36
HETATM   36  C   UNL     1      39.012 -14.581  -2.581  1.00  0.00     0.056 C 
HETATM   37  C   UNL     1      37.659 -13.927  -2.852  1.00  0.00     0.011 C 
ENDBRANCH   1  36
TORSDOF 9
ENDMDL
