MODEL 1
REMARK VINA RESULT:      -8.4      0.000      0.000
REMARK  4 active torsions:
REMARK  status: ('A' for Active; 'I' for Inactive)
REMARK    1  A    between atoms: C_4  and  C_5 
REMARK       I    between atoms: C_5  and  N_6 
REMARK    2  A    between atoms: N_6  and  C_7 
REMARK    3  A    between atoms: C_20  and  C_21 
REMARK    4  A    between atoms: C_24  and  O_25 
ROOT
HETATM    1  C   UNL     1      44.132 -11.402   7.921  1.00  0.00     0.263 C 
HETATM    2  N   UNL     1      43.111 -12.262   7.544  1.00  0.00    -0.323 N 
HETATM    3  O   UNL     1      45.310 -11.570   7.615  1.00  0.00    -0.267 OA
HETATM    4  H   UNL     1      42.215 -12.081   7.985  1.00  0.00     0.169 HD
ENDROOT
BRANCH   1   5
HETATM    5  C   UNL     1      43.705 -10.271   8.741  1.00  0.00     0.074 A 
HETATM    6  S   UNL     1      43.615  -8.681   8.123  1.00  0.00    -0.089 SA
HETATM    7  C   UNL     1      43.219  -8.015   9.652  1.00  0.00    -0.009 A 
HETATM    8  C   UNL     1      43.102  -6.528   9.777  1.00  0.00     0.057 C 
HETATM    9  C   UNL     1      43.060  -9.002  10.614  1.00  0.00    -0.012 A 
HETATM   10  C   UNL     1      43.372 -10.297  10.081  1.00  0.00     0.038 A 
BRANCH   9  11
HETATM   11  C   UNL     1      42.701  -8.714  12.000  1.00  0.00    -0.025 A 
HETATM   12  C   UNL     1      41.576  -9.318  12.570  1.00  0.00     0.015 A 
HETATM   13  C   UNL     1      41.231  -9.055  13.899  1.00  0.00     0.037 A 
HETATM   14  C   UNL     1      42.006  -8.195  14.679  1.00  0.00     0.068 A 
HETATM   15  C   UNL     1      43.114  -7.570  14.109  1.00  0.00     0.037 A 
HETATM   16  C   UNL     1      43.454  -7.822  12.774  1.00  0.00     0.015 A 
BRANCH  14  17
HETATM   17  O   UNL     1      41.572  -8.041  15.966  1.00  0.00    -0.356 OA
HETATM   18  C   UNL     1      41.926  -6.827  16.618  1.00  0.00     0.210 C 
ENDBRANCH  14  17
ENDBRANCH   9  11
ENDBRANCH   1   5
BRANCH   2  19
HETATM   19  C   UNL     1      43.176 -13.341   6.643  1.00  0.00     0.035 A 
HETATM   20  C   UNL     1      43.613 -14.619   7.006  1.00  0.00     0.039 A 
HETATM   21  C   UNL     1      43.695 -15.599   6.029  1.00  0.00    -0.022 A 
HETATM   22  C   UNL     1      43.330 -15.341   4.705  1.00  0.00    -0.025 A 
HETATM   23  C   UNL     1      44.139 -17.014   6.182  1.00  0.00     0.274 C 
HETATM   24  C   UNL     1      43.493 -16.570   3.876  1.00  0.00     0.273 C 
HETATM   25  C   UNL     1      42.878 -14.089   4.328  1.00  0.00     0.012 A 
HETATM   26  N   UNL     1      44.325 -17.500   4.749  1.00  0.00    -0.067 N 
HETATM   27  H   UNL     1      45.304 -17.298   4.516  1.00  0.00     0.280 HD
HETATM   28  C   UNL     1      44.075 -18.948   4.544  1.00  0.00     0.270 C 
HETATM   29  C   UNL     1      42.816 -13.087   5.305  1.00  0.00     0.030 A 
ENDBRANCH   2  19
TORSDOF 4
ENDMDL
MODEL 2
REMARK VINA RESULT:      -8.1      2.800     10.534
REMARK  4 active torsions:
REMARK  status: ('A' for Active; 'I' for Inactive)
REMARK    1  A    between atoms: C_4  and  C_5 
REMARK       I    between atoms: C_5  and  N_6 
REMARK    2  A    between atoms: N_6  and  C_7 
REMARK    3  A    between atoms: C_20  and  C_21 
REMARK    4  A    between atoms: C_24  and  O_25 
ROOT
HETATM    1  C   UNL     1      43.458 -11.682   7.268  1.00  0.00     0.263 C 
HETATM    2  N   UNL     1      42.609 -10.608   7.491  1.00  0.00    -0.323 N 
HETATM    3  O   UNL     1      44.520 -11.845   7.866  1.00  0.00    -0.267 OA
HETATM    4  H   UNL     1      41.844 -10.523   6.830  1.00  0.00     0.169 HD
ENDROOT
BRANCH   1   5
HETATM    5  C   UNL     1      43.006 -12.613   6.239  1.00  0.00     0.074 A 
HETATM    6  S   UNL     1      41.643 -12.295   5.258  1.00  0.00    -0.089 SA
HETATM    7  C   UNL     1      41.719 -13.832   4.502  1.00  0.00    -0.009 A 
HETATM    8  C   UNL     1      40.639 -14.209   3.537  1.00  0.00     0.057 C 
HETATM    9  C   UNL     1      42.828 -14.552   4.919  1.00  0.00    -0.012 A 
HETATM   10  C   UNL     1      43.546 -13.849   5.942  1.00  0.00     0.038 A 
BRANCH   9  11
HETATM   11  C   UNL     1      43.147 -15.886   4.418  1.00  0.00    -0.025 A 
HETATM   12  C   UNL     1      43.549 -16.889   5.306  1.00  0.00     0.015 A 
HETATM   13  C   UNL     1      43.846 -18.171   4.836  1.00  0.00     0.037 A 
HETATM   14  C   UNL     1      43.740 -18.474   3.477  1.00  0.00     0.068 A 
HETATM   15  C   UNL     1      43.366 -17.472   2.583  1.00  0.00     0.037 A 
HETATM   16  C   UNL     1      43.079 -16.183   3.050  1.00  0.00     0.015 A 
BRANCH  14  17
HETATM   17  O   UNL     1      44.039 -19.768   3.152  1.00  0.00    -0.356 OA
HETATM   18  C   UNL     1      43.516 -20.255   1.923  1.00  0.00     0.210 C 
ENDBRANCH  14  17
ENDBRANCH   9  11
ENDBRANCH   1   5
BRANCH   2  19
HETATM   19  C   UNL     1      42.690  -9.636   8.506  1.00  0.00     0.035 A 
HETATM   20  C   UNL     1      42.807  -9.951   9.863  1.00  0.00     0.039 A 
HETATM   21  C   UNL     1      42.820  -8.919  10.789  1.00  0.00    -0.022 A 
HETATM   22  C   UNL     1      42.742  -7.581  10.391  1.00  0.00    -0.025 A 
HETATM   23  C   UNL     1      42.926  -9.017  12.273  1.00  0.00     0.274 C 
HETATM   24  C   UNL     1      42.802  -6.685  11.582  1.00  0.00     0.273 C 
HETATM   25  C   UNL     1      42.644  -7.247   9.052  1.00  0.00     0.012 A 
HETATM   26  N   UNL     1      42.569  -7.618  12.762  1.00  0.00    -0.067 N 
HETATM   27  H   UNL     1      41.553  -7.630  12.911  1.00  0.00     0.280 HD
HETATM   28  C   UNL     1      43.229  -7.212  14.027  1.00  0.00     0.270 C 
HETATM   29  C   UNL     1      42.604  -8.285   8.113  1.00  0.00     0.030 A 
ENDBRANCH   2  19
TORSDOF 4
ENDMDL
MODEL 3
REMARK VINA RESULT:      -7.9      4.258     10.627
REMARK  4 active torsions:
REMARK  status: ('A' for Active; 'I' for Inactive)
REMARK    1  A    between atoms: C_4  and  C_5 
REMARK       I    between atoms: C_5  and  N_6 
REMARK    2  A    between atoms: N_6  and  C_7 
REMARK    3  A    between atoms: C_20  and  C_21 
REMARK    4  A    between atoms: C_24  and  O_25 
ROOT
HETATM    1  C   UNL     1      42.249 -11.428   4.726  1.00  0.00     0.263 C 
HETATM    2  N   UNL     1      42.205 -11.360   6.110  1.00  0.00    -0.323 N 
HETATM    3  O   UNL     1      42.457 -10.456   4.003  1.00  0.00    -0.267 OA
HETATM    4  H   UNL     1      41.883 -12.206   6.570  1.00  0.00     0.169 HD
ENDROOT
BRANCH   1   5
HETATM    5  C   UNL     1      42.004 -12.757   4.172  1.00  0.00     0.074 A 
HETATM    6  S   UNL     1      40.627 -13.109   3.224  1.00  0.00    -0.089 SA
HETATM    7  C   UNL     1      41.010 -14.777   3.129  1.00  0.00    -0.009 A 
HETATM    8  C   UNL     1      40.042 -15.697   2.452  1.00  0.00     0.057 C 
HETATM    9  C   UNL     1      42.228 -15.056   3.732  1.00  0.00    -0.012 A 
HETATM   10  C   UNL     1      42.777 -13.887   4.355  1.00  0.00     0.038 A 
BRANCH   9  11
HETATM   11  C   UNL     1      42.806 -16.397   3.777  1.00  0.00    -0.025 A 
HETATM   12  C   UNL     1      43.015 -17.026   5.009  1.00  0.00     0.015 A 
HETATM   13  C   UNL     1      43.559 -18.313   5.061  1.00  0.00     0.037 A 
HETATM   14  C   UNL     1      43.893 -18.992   3.888  1.00  0.00     0.068 A 
HETATM   15  C   UNL     1      43.711 -18.361   2.659  1.00  0.00     0.037 A 
HETATM   16  C   UNL     1      43.178 -17.067   2.605  1.00  0.00     0.015 A 
BRANCH  14  17
HETATM   17  O   UNL     1      44.395 -20.250   4.078  1.00  0.00    -0.356 OA
HETATM   18  C   UNL     1      44.276 -20.795   5.386  1.00  0.00     0.210 C 
ENDBRANCH  14  17
ENDBRANCH   9  11
ENDBRANCH   1   5
BRANCH   2  19
HETATM   19  C   UNL     1      42.543 -10.271   6.935  1.00  0.00     0.035 A 
HETATM   20  C   UNL     1      41.661  -9.225   7.225  1.00  0.00     0.039 A 
HETATM   21  C   UNL     1      42.110  -8.168   8.002  1.00  0.00    -0.022 A 
HETATM   22  C   UNL     1      43.411  -8.142   8.514  1.00  0.00    -0.025 A 
HETATM   23  C   UNL     1      41.357  -6.953   8.425  1.00  0.00     0.274 C 
HETATM   24  C   UNL     1      43.618  -6.909   9.329  1.00  0.00     0.273 C 
HETATM   25  C   UNL     1      44.293  -9.174   8.254  1.00  0.00     0.012 A 
HETATM   26  N   UNL     1      42.434  -6.022   8.970  1.00  0.00    -0.067 N 
HETATM   27  H   UNL     1      42.741  -5.459   8.168  1.00  0.00     0.280 HD
HETATM   28  C   UNL     1      41.982  -5.109  10.048  1.00  0.00     0.270 C 
HETATM   29  C   UNL     1      43.854 -10.233   7.450  1.00  0.00     0.030 A 
ENDBRANCH   2  19
TORSDOF 4
ENDMDL
MODEL 4
REMARK VINA RESULT:      -7.9      8.411     10.356
REMARK  4 active torsions:
REMARK  status: ('A' for Active; 'I' for Inactive)
REMARK    1  A    between atoms: C_4  and  C_5 
REMARK       I    between atoms: C_5  and  N_6 
REMARK    2  A    between atoms: N_6  and  C_7 
REMARK    3  A    between atoms: C_20  and  C_21 
REMARK    4  A    between atoms: C_24  and  O_25 
ROOT
HETATM    1  C   UNL     1      41.064 -13.838   1.016  1.00  0.00     0.263 C 
HETATM    2  N   UNL     1      42.355 -14.189   1.380  1.00  0.00    -0.323 N 
HETATM    3  O   UNL     1      40.063 -14.446   1.389  1.00  0.00    -0.267 OA
HETATM    4  H   UNL     1      43.089 -13.692   0.885  1.00  0.00     0.169 HD
ENDROOT
BRANCH   1   5
HETATM    5  C   UNL     1      40.973 -12.686   0.123  1.00  0.00     0.074 A 
HETATM    6  S   UNL     1      40.295 -12.799  -1.442  1.00  0.00    -0.089 SA
HETATM    7  C   UNL     1      40.694 -11.176  -1.826  1.00  0.00    -0.009 A 
HETATM    8  C   UNL     1      40.418 -10.680  -3.211  1.00  0.00     0.057 C 
HETATM    9  C   UNL     1      41.253 -10.517  -0.741  1.00  0.00    -0.012 A 
HETATM   10  C   UNL     1      41.435 -11.409   0.368  1.00  0.00     0.038 A 
BRANCH   9  11
HETATM   11  C   UNL     1      41.667  -9.117  -0.786  1.00  0.00    -0.025 A 
HETATM   12  C   UNL     1      40.879  -8.136  -0.176  1.00  0.00     0.015 A 
HETATM   13  C   UNL     1      41.273  -6.795  -0.206  1.00  0.00     0.037 A 
HETATM   14  C   UNL     1      42.459  -6.415  -0.836  1.00  0.00     0.068 A 
HETATM   15  C   UNL     1      43.235  -7.385  -1.470  1.00  0.00     0.037 A 
HETATM   16  C   UNL     1      42.836  -8.728  -1.451  1.00  0.00     0.015 A 
BRANCH  14  17
HETATM   17  O   UNL     1      42.738  -5.078  -0.776  1.00  0.00    -0.356 OA
HETATM   18  C   UNL     1      44.074  -4.691  -1.071  1.00  0.00     0.210 C 
ENDBRANCH  14  17
ENDBRANCH   9  11
ENDBRANCH   1   5
BRANCH   2  19
HETATM   19  C   UNL     1      42.758 -15.144   2.332  1.00  0.00     0.035 A 
HETATM   20  C   UNL     1      43.059 -16.471   2.009  1.00  0.00     0.039 A 
HETATM   21  C   UNL     1      43.390 -17.348   3.031  1.00  0.00    -0.022 A 
HETATM   22  C   UNL     1      43.450 -16.927   4.362  1.00  0.00    -0.025 A 
HETATM   23  C   UNL     1      43.734 -18.795   2.924  1.00  0.00     0.274 C 
HETATM   24  C   UNL     1      43.850 -18.062   5.244  1.00  0.00     0.273 C 
HETATM   25  C   UNL     1      43.173 -15.615   4.701  1.00  0.00     0.012 A 
HETATM   26  N   UNL     1      43.685 -19.293   4.364  1.00  0.00    -0.067 N 
HETATM   27  H   UNL     1      42.720 -19.612   4.511  1.00  0.00     0.280 HD
HETATM   28  C   UNL     1      44.608 -20.414   4.668  1.00  0.00     0.270 C 
HETATM   29  C   UNL     1      42.814 -14.729   3.678  1.00  0.00     0.030 A 
ENDBRANCH   2  19
TORSDOF 4
ENDMDL
MODEL 5
REMARK VINA RESULT:      -7.8      2.977     10.494
REMARK  4 active torsions:
REMARK  status: ('A' for Active; 'I' for Inactive)
REMARK    1  A    between atoms: C_4  and  C_5 
REMARK       I    between atoms: C_5  and  N_6 
REMARK    2  A    between atoms: N_6  and  C_7 
REMARK    3  A    between atoms: C_20  and  C_21 
REMARK    4  A    between atoms: C_24  and  O_25 
ROOT
HETATM    1  C   UNL     1      43.440 -10.707   7.139  1.00  0.00     0.263 C 
HETATM    2  N   UNL     1      42.472 -10.336   8.060  1.00  0.00    -0.323 N 
HETATM    3  O   UNL     1      44.631 -10.425   7.252  1.00  0.00    -0.267 OA
HETATM    4  H   UNL     1      41.516 -10.510   7.769  1.00  0.00     0.169 HD
ENDROOT
BRANCH   1   5
HETATM    5  C   UNL     1      42.935 -11.454   5.990  1.00  0.00     0.074 A 
HETATM    6  S   UNL     1      41.622 -10.897   5.048  1.00  0.00    -0.089 SA
HETATM    7  C   UNL     1      41.589 -12.321   4.095  1.00  0.00    -0.009 A 
HETATM    8  C   UNL     1      40.501 -12.477   3.078  1.00  0.00     0.057 C 
HETATM    9  C   UNL     1      42.628 -13.179   4.422  1.00  0.00    -0.012 A 
HETATM   10  C   UNL     1      43.380 -12.680   5.536  1.00  0.00     0.038 A 
BRANCH   9  11
HETATM   11  C   UNL     1      42.848 -14.457   3.750  1.00  0.00    -0.025 A 
HETATM   12  C   UNL     1      42.702 -15.654   4.459  1.00  0.00     0.015 A 
HETATM   13  C   UNL     1      42.902 -16.882   3.820  1.00  0.00     0.037 A 
HETATM   14  C   UNL     1      43.240 -16.934   2.467  1.00  0.00     0.068 A 
HETATM   15  C   UNL     1      43.412 -15.744   1.761  1.00  0.00     0.037 A 
HETATM   16  C   UNL     1      43.225 -14.512   2.402  1.00  0.00     0.015 A 
BRANCH  14  17
HETATM   17  O   UNL     1      43.385 -18.195   1.961  1.00  0.00    -0.356 OA
HETATM   18  C   UNL     1      43.745 -19.216   2.883  1.00  0.00     0.210 C 
ENDBRANCH  14  17
ENDBRANCH   9  11
ENDBRANCH   1   5
BRANCH   2  19
HETATM   19  C   UNL     1      42.660  -9.749   9.326  1.00  0.00     0.035 A 
HETATM   20  C   UNL     1      41.954  -8.624   9.762  1.00  0.00     0.039 A 
HETATM   21  C   UNL     1      42.255  -8.087  11.005  1.00  0.00    -0.022 A 
HETATM   22  C   UNL     1      43.228  -8.659  11.830  1.00  0.00    -0.025 A 
HETATM   23  C   UNL     1      41.644  -6.898  11.665  1.00  0.00     0.274 C 
HETATM   24  C   UNL     1      43.331  -7.899  13.109  1.00  0.00     0.273 C 
HETATM   25  C   UNL     1      43.926  -9.782  11.423  1.00  0.00     0.012 A 
HETATM   26  N   UNL     1      42.577  -6.605  12.834  1.00  0.00    -0.067 N 
HETATM   27  H   UNL     1      43.276  -5.948  12.470  1.00  0.00     0.280 HD
HETATM   28  C   UNL     1      41.922  -5.995  14.017  1.00  0.00     0.270 C 
HETATM   29  C   UNL     1      43.644 -10.316  10.160  1.00  0.00     0.030 A 
ENDBRANCH   2  19
TORSDOF 4
ENDMDL
MODEL 6
REMARK VINA RESULT:      -7.7      5.399     11.917
REMARK  4 active torsions:
REMARK  status: ('A' for Active; 'I' for Inactive)
REMARK    1  A    between atoms: C_4  and  C_5 
REMARK       I    between atoms: C_5  and  N_6 
REMARK    2  A    between atoms: N_6  and  C_7 
REMARK    3  A    between atoms: C_20  and  C_21 
REMARK    4  A    between atoms: C_24  and  O_25 
ROOT
HETATM    1  C   UNL     1      41.107  -7.122  15.378  1.00  0.00     0.263 C 
HETATM    2  N   UNL     1      41.059  -8.065  16.394  1.00  0.00    -0.323 N 
HETATM    3  O   UNL     1      41.020  -5.911  15.569  1.00  0.00    -0.267 OA
HETATM    4  H   UNL     1      40.998  -9.028  16.081  1.00  0.00     0.169 HD
ENDROOT
BRANCH   1   5
HETATM    5  C   UNL     1      41.251  -7.679  14.036  1.00  0.00     0.074 A 
HETATM    6  S   UNL     1      39.945  -8.406  13.207  1.00  0.00    -0.089 SA
HETATM    7  C   UNL     1      40.934  -8.886  11.891  1.00  0.00    -0.009 A 
HETATM    8  C   UNL     1      40.326  -9.716  10.804  1.00  0.00     0.057 C 
HETATM    9  C   UNL     1      42.231  -8.415  12.029  1.00  0.00    -0.012 A 
HETATM   10  C   UNL     1      42.408  -7.746  13.285  1.00  0.00     0.038 A 
BRANCH   9  11
HETATM   11  C   UNL     1      43.278  -8.661  11.039  1.00  0.00    -0.025 A 
HETATM   12  C   UNL     1      43.371  -7.848   9.905  1.00  0.00     0.015 A 
HETATM   13  C   UNL     1      44.376  -8.071   8.958  1.00  0.00     0.037 A 
HETATM   14  C   UNL     1      45.303  -9.099   9.133  1.00  0.00     0.068 A 
HETATM   15  C   UNL     1      45.199  -9.929  10.248  1.00  0.00     0.037 A 
HETATM   16  C   UNL     1      44.186  -9.716  11.192  1.00  0.00     0.015 A 
BRANCH  14  17
HETATM   17  O   UNL     1      46.244  -9.196   8.146  1.00  0.00    -0.356 OA
HETATM   18  C   UNL     1      46.384 -10.464   7.518  1.00  0.00     0.210 C 
ENDBRANCH  14  17
ENDBRANCH   9  11
ENDBRANCH   1   5
BRANCH   2  19
HETATM   19  C   UNL     1      41.075  -7.843  17.784  1.00  0.00     0.035 A 
HETATM   20  C   UNL     1      42.207  -7.404  18.478  1.00  0.00     0.039 A 
HETATM   21  C   UNL     1      42.136  -7.272  19.856  1.00  0.00    -0.022 A 
HETATM   22  C   UNL     1      40.956  -7.545  20.555  1.00  0.00    -0.025 A 
HETATM   23  C   UNL     1      43.210  -6.834  20.794  1.00  0.00     0.274 C 
HETATM   24  C   UNL     1      41.152  -7.298  22.013  1.00  0.00     0.273 C 
HETATM   25  C   UNL     1      39.820  -7.963  19.885  1.00  0.00     0.012 A 
HETATM   26  N   UNL     1      42.662  -7.188  22.172  1.00  0.00    -0.067 N 
HETATM   27  H   UNL     1      42.992  -8.142  22.361  1.00  0.00     0.280 HD
HETATM   28  C   UNL     1      43.117  -6.301  23.271  1.00  0.00     0.270 C 
HETATM   29  C   UNL     1      39.892  -8.123  18.496  1.00  0.00     0.030 A 
ENDBRANCH   2  19
TORSDOF 4
ENDMDL
MODEL 7
REMARK VINA RESULT:      -7.6      4.728      7.489
REMARK  4 active torsions:
REMARK  status: ('A' for Active; 'I' for Inactive)
REMARK    1  A    between atoms: C_4  and  C_5 
REMARK       I    between atoms: C_5  and  N_6 
REMARK    2  A    between atoms: N_6  and  C_7 
REMARK    3  A    between atoms: C_20  and  C_21 
REMARK    4  A    between atoms: C_24  and  O_25 
ROOT
HETATM    1  C   UNL     1      42.160  -6.712  13.603  1.00  0.00     0.263 C 
HETATM    2  N   UNL     1      42.277  -8.033  13.198  1.00  0.00    -0.323 N 
HETATM    3  O   UNL     1      42.489  -5.754  12.905  1.00  0.00    -0.267 OA
HETATM    4  H   UNL     1      42.106  -8.720  13.925  1.00  0.00     0.169 HD
ENDROOT
BRANCH   1   5
HETATM    5  C   UNL     1      41.629  -6.531  14.951  1.00  0.00     0.074 A 
HETATM    6  S   UNL     1      41.017  -5.031  15.495  1.00  0.00    -0.089 SA
HETATM    7  C   UNL     1      40.772  -5.611  17.090  1.00  0.00    -0.009 A 
HETATM    8  C   UNL     1      40.306  -4.649  18.138  1.00  0.00     0.057 C 
HETATM    9  C   UNL     1      41.061  -6.964  17.192  1.00  0.00    -0.012 A 
HETATM   10  C   UNL     1      41.583  -7.475  15.957  1.00  0.00     0.038 A 
BRANCH   9  11
HETATM   11  C   UNL     1      40.919  -7.718  18.435  1.00  0.00    -0.025 A 
HETATM   12  C   UNL     1      39.652  -8.125  18.863  1.00  0.00     0.015 A 
HETATM   13  C   UNL     1      39.509  -8.856  20.047  1.00  0.00     0.037 A 
HETATM   14  C   UNL     1      40.624  -9.196  20.813  1.00  0.00     0.068 A 
HETATM   15  C   UNL     1      41.888  -8.770  20.405  1.00  0.00     0.037 A 
HETATM   16  C   UNL     1      42.033  -8.028  19.226  1.00  0.00     0.015 A 
BRANCH  14  17
HETATM   17  O   UNL     1      40.348  -9.928  21.934  1.00  0.00    -0.356 OA
HETATM   18  C   UNL     1      41.430 -10.656  22.504  1.00  0.00     0.210 C 
ENDBRANCH  14  17
ENDBRANCH   9  11
ENDBRANCH   1   5
BRANCH   2  19
HETATM   19  C   UNL     1      42.610  -8.522  11.920  1.00  0.00     0.035 A 
HETATM   20  C   UNL     1      43.916  -8.841  11.536  1.00  0.00     0.039 A 
HETATM   21  C   UNL     1      44.145  -9.259  10.234  1.00  0.00    -0.022 A 
HETATM   22  C   UNL     1      43.100  -9.388   9.315  1.00  0.00    -0.025 A 
HETATM   23  C   UNL     1      45.443  -9.639   9.606  1.00  0.00     0.274 C 
HETATM   24  C   UNL     1      43.623  -9.876   8.005  1.00  0.00     0.273 C 
HETATM   25  C   UNL     1      41.798  -9.095   9.680  1.00  0.00     0.012 A 
HETATM   26  N   UNL     1      45.130  -9.693   8.115  1.00  0.00    -0.067 N 
HETATM   27  H   UNL     1      45.323  -8.749   7.760  1.00  0.00     0.280 HD
HETATM   28  C   UNL     1      45.941 -10.666   7.342  1.00  0.00     0.270 C 
HETATM   29  C   UNL     1      41.562  -8.648  10.986  1.00  0.00     0.030 A 
ENDBRANCH   2  19
TORSDOF 4
ENDMDL
MODEL 8
REMARK VINA RESULT:      -7.6      2.838     10.139
REMARK  4 active torsions:
REMARK  status: ('A' for Active; 'I' for Inactive)
REMARK    1  A    between atoms: C_4  and  C_5 
REMARK       I    between atoms: C_5  and  N_6 
REMARK    2  A    between atoms: N_6  and  C_7 
REMARK    3  A    between atoms: C_20  and  C_21 
REMARK    4  A    between atoms: C_24  and  O_25 
ROOT
HETATM    1  C   UNL     1      43.775 -10.291   8.001  1.00  0.00     0.263 C 
HETATM    2  N   UNL     1      42.732 -10.121   8.900  1.00  0.00    -0.323 N 
HETATM    3  O   UNL     1      44.779  -9.581   7.981  1.00  0.00    -0.267 OA
HETATM    4  H   UNL     1      41.909 -10.682   8.709  1.00  0.00     0.169 HD
ENDROOT
BRANCH   1   5
HETATM    5  C   UNL     1      43.586 -11.379   7.046  1.00  0.00     0.074 A 
HETATM    6  S   UNL     1      43.089 -11.100   5.434  1.00  0.00    -0.089 SA
HETATM    7  C   UNL     1      42.974 -12.775   5.088  1.00  0.00    -0.009 A 
HETATM    8  C   UNL     1      42.448 -13.195   3.751  1.00  0.00     0.057 C 
HETATM    9  C   UNL     1      43.402 -13.549   6.157  1.00  0.00    -0.012 A 
HETATM   10  C   UNL     1      43.724 -12.731   7.290  1.00  0.00     0.038 A 
BRANCH   9  11
HETATM   11  C   UNL     1      43.428 -15.009   6.124  1.00  0.00    -0.025 A 
HETATM   12  C   UNL     1      43.558 -15.678   4.903  1.00  0.00     0.015 A 
HETATM   13  C   UNL     1      43.594 -17.075   4.864  1.00  0.00     0.037 A 
HETATM   14  C   UNL     1      43.508 -17.822   6.040  1.00  0.00     0.068 A 
HETATM   15  C   UNL     1      43.351 -17.162   7.258  1.00  0.00     0.037 A 
HETATM   16  C   UNL     1      43.303 -15.762   7.298  1.00  0.00     0.015 A 
BRANCH  14  17
HETATM   17  O   UNL     1      43.576 -19.177   5.865  1.00  0.00    -0.356 OA
HETATM   18  C   UNL     1      44.292 -19.638   4.726  1.00  0.00     0.210 C 
ENDBRANCH  14  17
ENDBRANCH   9  11
ENDBRANCH   1   5
BRANCH   2  19
HETATM   19  C   UNL     1      42.684  -9.270  10.020  1.00  0.00     0.035 A 
HETATM   20  C   UNL     1      42.128  -7.987   9.985  1.00  0.00     0.039 A 
HETATM   21  C   UNL     1      42.183  -7.205  11.129  1.00  0.00    -0.022 A 
HETATM   22  C   UNL     1      42.758  -7.681  12.311  1.00  0.00    -0.025 A 
HETATM   23  C   UNL     1      41.669  -5.818  11.319  1.00  0.00     0.274 C 
HETATM   24  C   UNL     1      42.661  -6.649  13.383  1.00  0.00     0.273 C 
HETATM   25  C   UNL     1      43.298  -8.953  12.371  1.00  0.00     0.012 A 
HETATM   26  N   UNL     1      42.287  -5.373  12.639  1.00  0.00    -0.067 N 
HETATM   27  H   UNL     1      43.178  -4.927  12.389  1.00  0.00     0.280 HD
HETATM   28  C   UNL     1      41.473  -4.407  13.416  1.00  0.00     0.270 C 
HETATM   29  C   UNL     1      43.268  -9.739  11.213  1.00  0.00     0.030 A 
ENDBRANCH   2  19
TORSDOF 4
ENDMDL
MODEL 9
REMARK VINA RESULT:      -7.5      3.098      4.206
REMARK  4 active torsions:
REMARK  status: ('A' for Active; 'I' for Inactive)
REMARK    1  A    between atoms: C_4  and  C_5 
REMARK       I    between atoms: C_5  and  N_6 
REMARK    2  A    between atoms: N_6  and  C_7 
REMARK    3  A    between atoms: C_20  and  C_21 
REMARK    4  A    between atoms: C_24  and  O_25 
ROOT
HETATM    1  C   UNL     1      41.274 -13.217   4.563  1.00  0.00     0.263 C 
HETATM    2  N   UNL     1      42.525 -13.775   4.342  1.00  0.00    -0.323 N 
HETATM    3  O   UNL     1      40.218 -13.816   4.370  1.00  0.00    -0.267 OA
HETATM    4  H   UNL     1      43.300 -13.123   4.404  1.00  0.00     0.169 HD
ENDROOT
BRANCH   1   5
HETATM    5  C   UNL     1      41.297 -11.834   5.030  1.00  0.00     0.074 A 
HETATM    6  S   UNL     1      40.973 -10.516   3.990  1.00  0.00    -0.089 SA
HETATM    7  C   UNL     1      41.335  -9.358   5.202  1.00  0.00    -0.009 A 
HETATM    8  C   UNL     1      41.324  -7.908   4.832  1.00  0.00     0.057 C 
HETATM    9  C   UNL     1      41.609  -9.963   6.420  1.00  0.00    -0.012 A 
HETATM   10  C   UNL     1      41.612 -11.392   6.299  1.00  0.00     0.038 A 
BRANCH   9  11
HETATM   11  C   UNL     1      41.930  -9.209   7.629  1.00  0.00    -0.025 A 
HETATM   12  C   UNL     1      40.917  -8.877   8.535  1.00  0.00     0.015 A 
HETATM   13  C   UNL     1      41.217  -8.164   9.699  1.00  0.00     0.037 A 
HETATM   14  C   UNL     1      42.529  -7.780   9.981  1.00  0.00     0.068 A 
HETATM   15  C   UNL     1      43.539  -8.084   9.069  1.00  0.00     0.037 A 
HETATM   16  C   UNL     1      43.239  -8.788   7.896  1.00  0.00     0.015 A 
BRANCH  14  17
HETATM   17  O   UNL     1      42.689  -7.107  11.160  1.00  0.00    -0.356 OA
HETATM   18  C   UNL     1      42.448  -5.705  11.133  1.00  0.00     0.210 C 
ENDBRANCH  14  17
ENDBRANCH   9  11
ENDBRANCH   1   5
BRANCH   2  19
HETATM   19  C   UNL     1      42.834 -15.114   4.039  1.00  0.00     0.035 A 
HETATM   20  C   UNL     1      43.122 -16.075   5.013  1.00  0.00     0.039 A 
HETATM   21  C   UNL     1      43.473 -17.353   4.606  1.00  0.00    -0.022 A 
HETATM   22  C   UNL     1      43.521 -17.701   3.253  1.00  0.00    -0.025 A 
HETATM   23  C   UNL     1      43.827 -18.524   5.459  1.00  0.00     0.274 C 
HETATM   24  C   UNL     1      43.901 -19.135   3.102  1.00  0.00     0.273 C 
HETATM   25  C   UNL     1      43.223 -16.770   2.274  1.00  0.00     0.012 A 
HETATM   26  N   UNL     1      44.420 -19.529   4.478  1.00  0.00    -0.067 N 
HETATM   27  H   UNL     1      45.428 -19.334   4.461  1.00  0.00     0.280 HD
HETATM   28  C   UNL     1      44.217 -20.953   4.845  1.00  0.00     0.270 C 
HETATM   29  C   UNL     1      42.892 -15.470   2.676  1.00  0.00     0.030 A 
ENDBRANCH   2  19
TORSDOF 4
ENDMDL
MODEL 10
REMARK VINA RESULT:      -7.4      7.017     11.138
REMARK  4 active torsions:
REMARK  status: ('A' for Active; 'I' for Inactive)
REMARK    1  A    between atoms: C_4  and  C_5 
REMARK       I    between atoms: C_5  and  N_6 
REMARK    2  A    between atoms: N_6  and  C_7 
REMARK    3  A    between atoms: C_20  and  C_21 
REMARK    4  A    between atoms: C_24  and  O_25 
ROOT
HETATM    1  C   UNL     1      41.117 -12.010   2.046  1.00  0.00     0.263 C 
HETATM    2  N   UNL     1      41.077 -12.424   0.723  1.00  0.00    -0.323 N 
HETATM    3  O   UNL     1      40.707 -10.916   2.429  1.00  0.00    -0.267 OA
HETATM    4  H   UNL     1      41.579 -13.285   0.529  1.00  0.00     0.169 HD
ENDROOT
BRANCH   1   5
HETATM    5  C   UNL     1      41.712 -12.972   2.969  1.00  0.00     0.074 A 
HETATM    6  S   UNL     1      42.216 -12.533   4.542  1.00  0.00    -0.089 SA
HETATM    7  C   UNL     1      42.881 -14.082   4.856  1.00  0.00    -0.009 A 
HETATM    8  C   UNL     1      43.611 -14.300   6.144  1.00  0.00     0.057 C 
HETATM    9  C   UNL     1      42.640 -14.962   3.811  1.00  0.00    -0.012 A 
HETATM   10  C   UNL     1      41.991 -14.301   2.717  1.00  0.00     0.038 A 
BRANCH   9  11
HETATM   11  C   UNL     1      43.080 -16.355   3.826  1.00  0.00    -0.025 A 
HETATM   12  C   UNL     1      43.468 -16.953   5.029  1.00  0.00     0.015 A 
HETATM   13  C   UNL     1      43.881 -18.288   5.053  1.00  0.00     0.037 A 
HETATM   14  C   UNL     1      43.905 -19.047   3.881  1.00  0.00     0.068 A 
HETATM   15  C   UNL     1      43.544 -18.450   2.674  1.00  0.00     0.037 A 
HETATM   16  C   UNL     1      43.142 -17.108   2.646  1.00  0.00     0.015 A 
BRANCH  14  17
HETATM   17  O   UNL     1      44.308 -20.343   4.046  1.00  0.00    -0.356 OA
HETATM   18  C   UNL     1      44.201 -20.884   5.357  1.00  0.00     0.210 C 
ENDBRANCH  14  17
ENDBRANCH   9  11
ENDBRANCH   1   5
BRANCH   2  19
HETATM   19  C   UNL     1      40.439 -11.796  -0.363  1.00  0.00     0.035 A 
HETATM   20  C   UNL     1      39.053 -11.792  -0.542  1.00  0.00     0.039 A 
HETATM   21  C   UNL     1      38.527 -11.194  -1.677  1.00  0.00    -0.022 A 
HETATM   22  C   UNL     1      39.351 -10.581  -2.626  1.00  0.00    -0.025 A 
HETATM   23  C   UNL     1      37.095 -11.081  -2.077  1.00  0.00     0.274 C 
HETATM   24  C   UNL     1      38.527 -10.001  -3.726  1.00  0.00     0.273 C 
HETATM   25  C   UNL     1      40.724 -10.558  -2.459  1.00  0.00     0.012 A 
HETATM   26  N   UNL     1      37.153 -10.628  -3.531  1.00  0.00    -0.067 N 
HETATM   27  H   UNL     1      37.160 -11.491  -4.087  1.00  0.00     0.280 HD
HETATM   28  C   UNL     1      36.010  -9.789  -3.970  1.00  0.00     0.270 C 
HETATM   29  C   UNL     1      41.263 -11.182  -1.327  1.00  0.00     0.030 A 
ENDBRANCH   2  19
TORSDOF 4
ENDMDL
