MODEL 1
REMARK VINA RESULT:      -9.2      0.000      0.000
REMARK  7 active torsions:
REMARK  status: ('A' for Active; 'I' for Inactive)
REMARK    1  A    between atoms: C_4  and  C_5 
REMARK    2  A    between atoms: C_5  and  N_6 
REMARK       I    between atoms: N_6  and  C_7 
REMARK    3  A    between atoms: N_6  and  C_22 
REMARK    4  A    between atoms: C_7  and  C_8 
REMARK    5  A    between atoms: C_13  and  C_14 
REMARK    6  A    between atoms: C_15  and  O_16 
REMARK    7  A    between atoms: C_22  and  C_23 
ROOT
HETATM    1  N   UNL     1      41.897 -15.868   3.708  1.00  0.00    -0.343 N 
HETATM    2  C   UNL     1      41.858 -15.483   5.055  1.00  0.00     0.235 C 
HETATM    3  O   UNL     1      40.784 -15.262   5.626  1.00  0.00    -0.272 OA
ENDROOT
BRANCH   2   4
HETATM    4  C   UNL     1      43.165 -15.290   5.803  1.00  0.00     0.195 C 
HETATM    5  C   UNL     1      43.122 -15.921   7.166  1.00  0.00     0.247 C 
HETATM    6  O   UNL     1      43.105 -17.118   7.408  1.00  0.00    -0.271 OA
HETATM    7  N   UNL     1      43.114 -14.918   8.111  1.00  0.00    -0.290 N 
HETATM    8  N   UNL     1      43.114 -13.637   7.569  1.00  0.00    -0.228 NA
HETATM    9  H   UNL     1      42.952 -15.125   9.093  1.00  0.00     0.183 HD
HETATM   10  C   UNL     1      43.494 -13.826   6.144  1.00  0.00     0.134 C 
HETATM   11  H   UNL     1      43.819 -13.051   8.023  1.00  0.00     0.147 HD
BRANCH  10  12
HETATM   12  C   UNL     1      42.932 -12.754   5.237  1.00  0.00    -0.004 A 
HETATM   13  C   UNL     1      41.729 -12.105   5.539  1.00  0.00     0.073 A 
HETATM   14  C   UNL     1      41.213 -11.108   4.709  1.00  0.00     0.037 A 
HETATM   15  C   UNL     1      41.913 -10.727   3.566  1.00  0.00     0.003 A 
HETATM   16  C   UNL     1      43.120 -11.345   3.253  1.00  0.00     0.001 A 
HETATM   17  C   UNL     1      43.624 -12.352   4.079  1.00  0.00     0.012 A 
BRANCH  13  18
HETATM   18  O   UNL     1      41.064 -12.449   6.683  1.00  0.00    -0.360 OA
HETATM   19  H   UNL     1      41.189 -13.399   6.843  1.00  0.00     0.217 HD
ENDBRANCH  13  18
ENDBRANCH  10  12
ENDBRANCH   2   4
BRANCH   1  20
HETATM   20  C   UNL     1      40.601 -16.103   3.054  1.00  0.00     0.164 C 
BRANCH  20  21
HETATM   21  C   UNL     1      40.214 -15.045   2.047  1.00  0.00    -0.040 A 
HETATM   22  C   UNL     1      39.900 -13.740   2.455  1.00  0.00     0.009 A 
HETATM   23  C   UNL     1      39.580 -12.761   1.514  1.00  0.00     0.001 A 
HETATM   24  C   UNL     1      39.572 -13.070   0.155  1.00  0.00     0.000 A 
HETATM   25  C   UNL     1      39.885 -14.360  -0.264  1.00  0.00     0.001 A 
HETATM   26  C   UNL     1      40.209 -15.341   0.675  1.00  0.00     0.009 A 
ENDBRANCH  20  21
ENDBRANCH   1  20
BRANCH   1  27
HETATM   27  C   UNL     1      43.113 -16.397   3.077  1.00  0.00     0.164 C 
BRANCH  27  28
HETATM   28  C   UNL     1      43.333 -17.889   3.145  1.00  0.00    -0.040 A 
HETATM   29  C   UNL     1      42.972 -18.720   2.074  1.00  0.00     0.009 A 
HETATM   30  C   UNL     1      43.205 -20.094   2.132  1.00  0.00     0.001 A 
HETATM   31  C   UNL     1      43.808 -20.653   3.257  1.00  0.00     0.000 A 
HETATM   32  C   UNL     1      44.181 -19.838   4.324  1.00  0.00     0.001 A 
HETATM   33  C   UNL     1      43.949 -18.463   4.267  1.00  0.00     0.009 A 
ENDBRANCH  27  28
ENDBRANCH   1  27
TORSDOF 7
ENDMDL
MODEL 2
REMARK VINA RESULT:      -8.7      2.362      6.659
REMARK  7 active torsions:
REMARK  status: ('A' for Active; 'I' for Inactive)
REMARK    1  A    between atoms: C_4  and  C_5 
REMARK    2  A    between atoms: C_5  and  N_6 
REMARK       I    between atoms: N_6  and  C_7 
REMARK    3  A    between atoms: N_6  and  C_22 
REMARK    4  A    between atoms: C_7  and  C_8 
REMARK    5  A    between atoms: C_13  and  C_14 
REMARK    6  A    between atoms: C_15  and  O_16 
REMARK    7  A    between atoms: C_22  and  C_23 
ROOT
HETATM    1  N   UNL     1      42.685 -13.497   5.597  1.00  0.00    -0.343 N 
HETATM    2  C   UNL     1      41.336 -13.550   5.222  1.00  0.00     0.235 C 
HETATM    3  O   UNL     1      40.549 -14.326   5.775  1.00  0.00    -0.272 OA
ENDROOT
BRANCH   2   4
HETATM    4  C   UNL     1      40.854 -12.669   4.083  1.00  0.00     0.195 C 
HETATM    5  C   UNL     1      39.474 -12.135   4.341  1.00  0.00     0.247 C 
HETATM    6  O   UNL     1      39.166 -11.301   5.179  1.00  0.00    -0.271 OA
HETATM    7  N   UNL     1      38.601 -12.740   3.461  1.00  0.00    -0.290 N 
HETATM    8  N   UNL     1      39.204 -13.672   2.625  1.00  0.00    -0.228 NA
HETATM    9  H   UNL     1      37.596 -12.620   3.556  1.00  0.00     0.183 HD
HETATM   10  C   UNL     1      40.662 -13.406   2.745  1.00  0.00     0.134 C 
HETATM   11  H   UNL     1      38.922 -13.523   1.653  1.00  0.00     0.147 HD
BRANCH  10  12
HETATM   12  C   UNL     1      41.509 -14.635   2.497  1.00  0.00    -0.004 A 
HETATM   13  C   UNL     1      41.056 -15.911   2.852  1.00  0.00     0.073 A 
HETATM   14  C   UNL     1      41.831 -17.049   2.615  1.00  0.00     0.037 A 
HETATM   15  C   UNL     1      43.071 -16.924   1.991  1.00  0.00     0.003 A 
HETATM   16  C   UNL     1      43.535 -15.668   1.612  1.00  0.00     0.001 A 
HETATM   17  C   UNL     1      42.762 -14.533   1.865  1.00  0.00     0.012 A 
BRANCH  13  18
HETATM   18  O   UNL     1      39.821 -16.038   3.425  1.00  0.00    -0.360 OA
HETATM   19  H   UNL     1      39.219 -16.445   2.780  1.00  0.00     0.217 HD
ENDBRANCH  13  18
ENDBRANCH  10  12
ENDBRANCH   2   4
BRANCH   1  20
HETATM   20  C   UNL     1      43.081 -14.322   6.748  1.00  0.00     0.164 C 
BRANCH  20  21
HETATM   21  C   UNL     1      43.385 -15.762   6.404  1.00  0.00    -0.040 A 
HETATM   22  C   UNL     1      42.734 -16.814   7.065  1.00  0.00     0.009 A 
HETATM   23  C   UNL     1      42.993 -18.140   6.716  1.00  0.00     0.001 A 
HETATM   24  C   UNL     1      43.902 -18.431   5.700  1.00  0.00     0.000 A 
HETATM   25  C   UNL     1      44.552 -17.396   5.032  1.00  0.00     0.001 A 
HETATM   26  C   UNL     1      44.291 -16.069   5.379  1.00  0.00     0.009 A 
ENDBRANCH  20  21
ENDBRANCH   1  20
BRANCH   1  27
HETATM   27  C   UNL     1      43.580 -12.416   5.163  1.00  0.00     0.164 C 
BRANCH  27  28
HETATM   28  C   UNL     1      44.149 -11.519   6.236  1.00  0.00    -0.040 A 
HETATM   29  C   UNL     1      43.313 -10.698   7.006  1.00  0.00     0.009 A 
HETATM   30  C   UNL     1      43.842  -9.893   8.016  1.00  0.00     0.001 A 
HETATM   31  C   UNL     1      45.212  -9.905   8.271  1.00  0.00     0.000 A 
HETATM   32  C   UNL     1      46.053 -10.724   7.520  1.00  0.00     0.001 A 
HETATM   33  C   UNL     1      45.525 -11.529   6.511  1.00  0.00     0.009 A 
ENDBRANCH  27  28
ENDBRANCH   1  27
TORSDOF 7
ENDMDL
MODEL 3
REMARK VINA RESULT:      -8.0      2.534      5.269
REMARK  7 active torsions:
REMARK  status: ('A' for Active; 'I' for Inactive)
REMARK    1  A    between atoms: C_4  and  C_5 
REMARK    2  A    between atoms: C_5  and  N_6 
REMARK       I    between atoms: N_6  and  C_7 
REMARK    3  A    between atoms: N_6  and  C_22 
REMARK    4  A    between atoms: C_7  and  C_8 
REMARK    5  A    between atoms: C_13  and  C_14 
REMARK    6  A    between atoms: C_15  and  O_16 
REMARK    7  A    between atoms: C_22  and  C_23 
ROOT
HETATM    1  N   UNL     1      42.304 -13.624   4.046  1.00  0.00    -0.343 N 
HETATM    2  C   UNL     1      41.561 -13.149   2.956  1.00  0.00     0.235 C 
HETATM    3  O   UNL     1      41.967 -12.206   2.268  1.00  0.00    -0.272 OA
ENDROOT
BRANCH   2   4
HETATM    4  C   UNL     1      40.213 -13.780   2.655  1.00  0.00     0.195 C 
HETATM    5  C   UNL     1      40.043 -14.049   1.186  1.00  0.00     0.247 C 
HETATM    6  O   UNL     1      40.637 -14.893   0.532  1.00  0.00    -0.271 OA
HETATM    7  N   UNL     1      39.089 -13.185   0.692  1.00  0.00    -0.290 N 
HETATM    8  N   UNL     1      38.583 -12.305   1.643  1.00  0.00    -0.228 NA
HETATM    9  H   UNL     1      38.920 -13.109  -0.307  1.00  0.00     0.183 HD
HETATM   10  C   UNL     1      39.005 -12.872   2.950  1.00  0.00     0.134 C 
HETATM   11  H   UNL     1      37.561 -12.283   1.608  1.00  0.00     0.147 HD
BRANCH  10  12
HETATM   12  C   UNL     1      39.168 -11.821   4.025  1.00  0.00    -0.004 A 
HETATM   13  C   UNL     1      39.211 -12.170   5.380  1.00  0.00     0.073 A 
HETATM   14  C   UNL     1      39.371 -11.204   6.375  1.00  0.00     0.037 A 
HETATM   15  C   UNL     1      39.517  -9.863   6.021  1.00  0.00     0.003 A 
HETATM   16  C   UNL     1      39.497  -9.493   4.680  1.00  0.00     0.001 A 
HETATM   17  C   UNL     1      39.321 -10.463   3.691  1.00  0.00     0.012 A 
BRANCH  13  18
HETATM   18  O   UNL     1      39.111 -13.490   5.725  1.00  0.00    -0.360 OA
HETATM   19  H   UNL     1      38.841 -13.548   6.657  1.00  0.00     0.217 HD
ENDBRANCH  13  18
ENDBRANCH  10  12
ENDBRANCH   2   4
BRANCH   1  20
HETATM   20  C   UNL     1      43.629 -13.022   4.250  1.00  0.00     0.164 C 
BRANCH  20  21
HETATM   21  C   UNL     1      43.715 -12.100   5.444  1.00  0.00    -0.040 A 
HETATM   22  C   UNL     1      42.954 -10.922   5.503  1.00  0.00     0.009 A 
HETATM   23  C   UNL     1      43.011 -10.096   6.626  1.00  0.00     0.001 A 
HETATM   24  C   UNL     1      43.824 -10.437   7.705  1.00  0.00     0.000 A 
HETATM   25  C   UNL     1      44.581 -11.605   7.662  1.00  0.00     0.001 A 
HETATM   26  C   UNL     1      44.523 -12.434   6.541  1.00  0.00     0.009 A 
ENDBRANCH  20  21
ENDBRANCH   1  20
BRANCH   1  27
HETATM   27  C   UNL     1      41.997 -14.896   4.712  1.00  0.00     0.164 C 
BRANCH  27  28
HETATM   28  C   UNL     1      42.715 -16.127   4.215  1.00  0.00    -0.040 A 
HETATM   29  C   UNL     1      43.679 -16.768   5.007  1.00  0.00     0.009 A 
HETATM   30  C   UNL     1      44.318 -17.922   4.553  1.00  0.00     0.001 A 
HETATM   31  C   UNL     1      43.996 -18.453   3.306  1.00  0.00     0.000 A 
HETATM   32  C   UNL     1      43.034 -17.833   2.512  1.00  0.00     0.001 A 
HETATM   33  C   UNL     1      42.393 -16.679   2.965  1.00  0.00     0.009 A 
ENDBRANCH  27  28
ENDBRANCH   1  27
TORSDOF 7
ENDMDL
MODEL 4
REMARK VINA RESULT:      -7.7      2.860      6.201
REMARK  7 active torsions:
REMARK  status: ('A' for Active; 'I' for Inactive)
REMARK    1  A    between atoms: C_4  and  C_5 
REMARK    2  A    between atoms: C_5  and  N_6 
REMARK       I    between atoms: N_6  and  C_7 
REMARK    3  A    between atoms: N_6  and  C_22 
REMARK    4  A    between atoms: C_7  and  C_8 
REMARK    5  A    between atoms: C_13  and  C_14 
REMARK    6  A    between atoms: C_15  and  O_16 
REMARK    7  A    between atoms: C_22  and  C_23 
ROOT
HETATM    1  N   UNL     1      42.518 -12.597   4.944  1.00  0.00    -0.343 N 
HETATM    2  C   UNL     1      41.178 -12.215   5.100  1.00  0.00     0.235 C 
HETATM    3  O   UNL     1      40.311 -13.041   5.403  1.00  0.00    -0.272 OA
ENDROOT
BRANCH   2   4
HETATM    4  C   UNL     1      40.790 -10.770   4.841  1.00  0.00     0.195 C 
HETATM    5  C   UNL     1      39.813 -10.268   5.866  1.00  0.00     0.247 C 
HETATM    6  O   UNL     1      40.051 -10.042   7.043  1.00  0.00    -0.271 OA
HETATM    7  N   UNL     1      38.591 -10.090   5.253  1.00  0.00    -0.290 N 
HETATM    8  N   UNL     1      38.582 -10.443   3.908  1.00  0.00    -0.228 NA
HETATM    9  H   UNL     1      37.758  -9.883   5.797  1.00  0.00     0.183 HD
HETATM   10  C   UNL     1      40.016 -10.544   3.530  1.00  0.00     0.134 C 
HETATM   11  H   UNL     1      38.144  -9.711   3.344  1.00  0.00     0.147 HD
BRANCH  10  12
HETATM   12  C   UNL     1      40.261 -11.516   2.397  1.00  0.00    -0.004 A 
HETATM   13  C   UNL     1      41.324 -11.335   1.505  1.00  0.00     0.073 A 
HETATM   14  C   UNL     1      41.560 -12.236   0.464  1.00  0.00     0.037 A 
HETATM   15  C   UNL     1      40.742 -13.354   0.316  1.00  0.00     0.003 A 
HETATM   16  C   UNL     1      39.690 -13.566   1.202  1.00  0.00     0.001 A 
HETATM   17  C   UNL     1      39.450 -12.654   2.232  1.00  0.00     0.012 A 
BRANCH  13  18
HETATM   18  O   UNL     1      42.153 -10.261   1.675  1.00  0.00    -0.360 OA
HETATM   19  H   UNL     1      41.742  -9.648   2.307  1.00  0.00     0.217 HD
ENDBRANCH  13  18
ENDBRANCH  10  12
ENDBRANCH   2   4
BRANCH   1  20
HETATM   20  C   UNL     1      42.847 -13.991   5.272  1.00  0.00     0.164 C 
BRANCH  20  21
HETATM   21  C   UNL     1      42.907 -14.912   4.075  1.00  0.00    -0.040 A 
HETATM   22  C   UNL     1      43.275 -14.430   2.810  1.00  0.00     0.009 A 
HETATM   23  C   UNL     1      43.364 -15.294   1.719  1.00  0.00     0.001 A 
HETATM   24  C   UNL     1      43.089 -16.651   1.877  1.00  0.00     0.000 A 
HETATM   25  C   UNL     1      42.727 -17.145   3.128  1.00  0.00     0.001 A 
HETATM   26  C   UNL     1      42.641 -16.282   4.221  1.00  0.00     0.009 A 
ENDBRANCH  20  21
ENDBRANCH   1  20
BRANCH   1  27
HETATM   27  C   UNL     1      43.608 -11.617   4.855  1.00  0.00     0.164 C 
BRANCH  27  28
HETATM   28  C   UNL     1      44.284 -11.216   6.144  1.00  0.00    -0.040 A 
HETATM   29  C   UNL     1      43.530 -10.877   7.277  1.00  0.00     0.009 A 
HETATM   30  C   UNL     1      44.161 -10.535   8.473  1.00  0.00     0.001 A 
HETATM   31  C   UNL     1      45.553 -10.537   8.554  1.00  0.00     0.000 A 
HETATM   32  C   UNL     1      46.314 -10.881   7.439  1.00  0.00     0.001 A 
HETATM   33  C   UNL     1      45.684 -11.223   6.241  1.00  0.00     0.009 A 
ENDBRANCH  27  28
ENDBRANCH   1  27
TORSDOF 7
ENDMDL
MODEL 5
REMARK VINA RESULT:      -7.5      8.632     12.627
REMARK  7 active torsions:
REMARK  status: ('A' for Active; 'I' for Inactive)
REMARK    1  A    between atoms: C_4  and  C_5 
REMARK    2  A    between atoms: C_5  and  N_6 
REMARK       I    between atoms: N_6  and  C_7 
REMARK    3  A    between atoms: N_6  and  C_22 
REMARK    4  A    between atoms: C_7  and  C_8 
REMARK    5  A    between atoms: C_13  and  C_14 
REMARK    6  A    between atoms: C_15  and  O_16 
REMARK    7  A    between atoms: C_22  and  C_23 
ROOT
HETATM    1  N   UNL     1      41.375  -6.719  10.146  1.00  0.00    -0.343 N 
HETATM    2  C   UNL     1      41.618  -8.100  10.164  1.00  0.00     0.235 C 
HETATM    3  O   UNL     1      40.688  -8.911  10.224  1.00  0.00    -0.272 OA
ENDROOT
BRANCH   2   4
HETATM    4  C   UNL     1      43.054  -8.593  10.156  1.00  0.00     0.195 C 
HETATM    5  C   UNL     1      43.242  -9.734   9.197  1.00  0.00     0.247 C 
HETATM    6  O   UNL     1      43.210  -9.667   7.978  1.00  0.00    -0.271 OA
HETATM    7  N   UNL     1      43.471 -10.883   9.925  1.00  0.00    -0.290 N 
HETATM    8  N   UNL     1      43.433 -10.691  11.302  1.00  0.00    -0.228 NA
HETATM    9  H   UNL     1      43.491 -11.793   9.473  1.00  0.00     0.183 HD
HETATM   10  C   UNL     1      43.519  -9.218  11.484  1.00  0.00     0.134 C 
HETATM   11  H   UNL     1      44.243 -11.126  11.751  1.00  0.00     0.147 HD
BRANCH  10  12
HETATM   12  C   UNL     1      42.849  -8.740  12.753  1.00  0.00    -0.004 A 
HETATM   13  C   UNL     1      41.749  -9.417  13.291  1.00  0.00     0.073 A 
HETATM   14  C   UNL     1      41.134  -8.985  14.468  1.00  0.00     0.037 A 
HETATM   15  C   UNL     1      41.633  -7.871  15.142  1.00  0.00     0.003 A 
HETATM   16  C   UNL     1      42.737  -7.192  14.637  1.00  0.00     0.001 A 
HETATM   17  C   UNL     1      43.338  -7.620  13.451  1.00  0.00     0.012 A 
BRANCH  13  18
HETATM   18  O   UNL     1      41.285 -10.535  12.654  1.00  0.00    -0.360 OA
HETATM   19  H   UNL     1      41.786 -11.305  12.972  1.00  0.00     0.217 HD
ENDBRANCH  13  18
ENDBRANCH  10  12
ENDBRANCH   2   4
BRANCH   1  20
HETATM   20  C   UNL     1      39.967  -6.300  10.088  1.00  0.00     0.164 C 
BRANCH  20  21
HETATM   21  C   UNL     1      39.471  -5.614  11.339  1.00  0.00    -0.040 A 
HETATM   22  C   UNL     1      39.541  -6.251  12.588  1.00  0.00     0.009 A 
HETATM   23  C   UNL     1      39.115  -5.596  13.743  1.00  0.00     0.001 A 
HETATM   24  C   UNL     1      38.618  -4.296  13.668  1.00  0.00     0.000 A 
HETATM   25  C   UNL     1      38.546  -3.650  12.437  1.00  0.00     0.001 A 
HETATM   26  C   UNL     1      38.975  -4.304  11.280  1.00  0.00     0.009 A 
ENDBRANCH  20  21
ENDBRANCH   1  20
BRANCH   1  27
HETATM   27  C   UNL     1      42.417  -5.742   9.805  1.00  0.00     0.164 C 
BRANCH  27  28
HETATM   28  C   UNL     1      42.456  -4.466  10.611  1.00  0.00    -0.040 A 
HETATM   29  C   UNL     1      42.255  -3.220   9.998  1.00  0.00     0.009 A 
HETATM   30  C   UNL     1      42.264  -2.047  10.753  1.00  0.00     0.001 A 
HETATM   31  C   UNL     1      42.466  -2.106  12.131  1.00  0.00     0.000 A 
HETATM   32  C   UNL     1      42.658  -3.337  12.754  1.00  0.00     0.001 A 
HETATM   33  C   UNL     1      42.648  -4.511  12.000  1.00  0.00     0.009 A 
ENDBRANCH  27  28
ENDBRANCH   1  27
TORSDOF 7
ENDMDL
MODEL 6
REMARK VINA RESULT:      -7.4     14.754     17.338
REMARK  7 active torsions:
REMARK  status: ('A' for Active; 'I' for Inactive)
REMARK    1  A    between atoms: C_4  and  C_5 
REMARK    2  A    between atoms: C_5  and  N_6 
REMARK       I    between atoms: N_6  and  C_7 
REMARK    3  A    between atoms: N_6  and  C_22 
REMARK    4  A    between atoms: C_7  and  C_8 
REMARK    5  A    between atoms: C_13  and  C_14 
REMARK    6  A    between atoms: C_15  and  O_16 
REMARK    7  A    between atoms: C_22  and  C_23 
ROOT
HETATM    1  N   UNL     1      48.639 -31.132   2.138  1.00  0.00    -0.343 N 
HETATM    2  C   UNL     1      47.244 -31.250   2.210  1.00  0.00     0.235 C 
HETATM    3  O   UNL     1      46.641 -32.109   1.558  1.00  0.00    -0.272 OA
ENDROOT
BRANCH   2   4
HETATM    4  C   UNL     1      46.466 -30.269   3.070  1.00  0.00     0.195 C 
HETATM    5  C   UNL     1      45.415 -30.963   3.889  1.00  0.00     0.247 C 
HETATM    6  O   UNL     1      45.612 -31.710   4.836  1.00  0.00    -0.271 OA
HETATM    7  N   UNL     1      44.176 -30.609   3.400  1.00  0.00    -0.290 N 
HETATM    8  N   UNL     1      44.230 -29.763   2.298  1.00  0.00    -0.228 NA
HETATM    9  H   UNL     1      43.333 -31.073   3.726  1.00  0.00     0.183 HD
HETATM   10  C   UNL     1      45.626 -29.253   2.276  1.00  0.00     0.134 C 
HETATM   11  H   UNL     1      43.593 -28.971   2.417  1.00  0.00     0.147 HD
BRANCH  10  12
HETATM   12  C   UNL     1      46.100 -28.890   0.886  1.00  0.00    -0.004 A 
HETATM   13  C   UNL     1      47.183 -28.023   0.694  1.00  0.00     0.073 A 
HETATM   14  C   UNL     1      47.630 -27.692  -0.587  1.00  0.00     0.037 A 
HETATM   15  C   UNL     1      47.009 -28.251  -1.703  1.00  0.00     0.003 A 
HETATM   16  C   UNL     1      45.942 -29.129  -1.537  1.00  0.00     0.001 A 
HETATM   17  C   UNL     1      45.490 -29.443  -0.254  1.00  0.00     0.012 A 
BRANCH  13  18
HETATM   18  O   UNL     1      47.820 -27.509   1.789  1.00  0.00    -0.360 OA
HETATM   19  H   UNL     1      47.177 -27.429   2.514  1.00  0.00     0.217 HD
ENDBRANCH  13  18
ENDBRANCH  10  12
ENDBRANCH   2   4
BRANCH   1  20
HETATM   20  C   UNL     1      49.345 -32.147   1.344  1.00  0.00     0.164 C 
BRANCH  20  21
HETATM   21  C   UNL     1      50.083 -31.596   0.147  1.00  0.00    -0.040 A 
HETATM   22  C   UNL     1      51.417 -31.952  -0.105  1.00  0.00     0.009 A 
HETATM   23  C   UNL     1      52.079 -31.468  -1.234  1.00  0.00     0.001 A 
HETATM   24  C   UNL     1      51.418 -30.626  -2.126  1.00  0.00     0.000 A 
HETATM   25  C   UNL     1      50.093 -30.268  -1.891  1.00  0.00     0.001 A 
HETATM   26  C   UNL     1      49.428 -30.754  -0.764  1.00  0.00     0.009 A 
ENDBRANCH  20  21
ENDBRANCH   1  20
BRANCH   1  27
HETATM   27  C   UNL     1      49.409 -30.318   3.089  1.00  0.00     0.164 C 
BRANCH  27  28
HETATM   28  C   UNL     1      49.995 -31.026   4.287  1.00  0.00    -0.040 A 
HETATM   29  C   UNL     1      49.219 -31.910   5.051  1.00  0.00     0.009 A 
HETATM   30  C   UNL     1      49.776 -32.583   6.139  1.00  0.00     0.001 A 
HETATM   31  C   UNL     1      51.115 -32.387   6.471  1.00  0.00     0.000 A 
HETATM   32  C   UNL     1      51.899 -31.519   5.714  1.00  0.00     0.001 A 
HETATM   33  C   UNL     1      51.344 -30.845   4.625  1.00  0.00     0.009 A 
ENDBRANCH  27  28
ENDBRANCH   1  27
TORSDOF 7
ENDMDL
MODEL 7
REMARK VINA RESULT:      -7.4     14.770     16.565
REMARK  7 active torsions:
REMARK  status: ('A' for Active; 'I' for Inactive)
REMARK    1  A    between atoms: C_4  and  C_5 
REMARK    2  A    between atoms: C_5  and  N_6 
REMARK       I    between atoms: N_6  and  C_7 
REMARK    3  A    between atoms: N_6  and  C_22 
REMARK    4  A    between atoms: C_7  and  C_8 
REMARK    5  A    between atoms: C_13  and  C_14 
REMARK    6  A    between atoms: C_15  and  O_16 
REMARK    7  A    between atoms: C_22  and  C_23 
ROOT
HETATM    1  N   UNL     1      45.609 -29.761   1.145  1.00  0.00    -0.343 N 
HETATM    2  C   UNL     1      46.822 -29.210   1.582  1.00  0.00     0.235 C 
HETATM    3  O   UNL     1      47.092 -28.021   1.380  1.00  0.00    -0.272 OA
ENDROOT
BRANCH   2   4
HETATM    4  C   UNL     1      47.833 -30.110   2.270  1.00  0.00     0.195 C 
HETATM    5  C   UNL     1      48.738 -29.331   3.181  1.00  0.00     0.247 C 
HETATM    6  O   UNL     1      48.421 -28.802   4.236  1.00  0.00    -0.271 OA
HETATM    7  N   UNL     1      50.003 -29.318   2.633  1.00  0.00    -0.290 N 
HETATM    8  N   UNL     1      50.091 -29.976   1.411  1.00  0.00    -0.228 NA
HETATM    9  H   UNL     1      50.736 -28.732   3.022  1.00  0.00     0.183 HD
HETATM   10  C   UNL     1      48.842 -30.777   1.318  1.00  0.00     0.134 C 
HETATM   11  H   UNL     1      50.892 -30.612   1.399  1.00  0.00     0.147 HD
BRANCH  10  12
HETATM   12  C   UNL     1      48.402 -31.021  -0.108  1.00  0.00    -0.004 A 
HETATM   13  C   UNL     1      48.534 -30.030  -1.087  1.00  0.00     0.073 A 
HETATM   14  C   UNL     1      48.138 -30.254  -2.407  1.00  0.00     0.037 A 
HETATM   15  C   UNL     1      47.621 -31.496  -2.773  1.00  0.00     0.003 A 
HETATM   16  C   UNL     1      47.497 -32.504  -1.822  1.00  0.00     0.001 A 
HETATM   17  C   UNL     1      47.881 -32.268  -0.501  1.00  0.00     0.012 A 
BRANCH  13  18
HETATM   18  O   UNL     1      49.080 -28.826  -0.738  1.00  0.00    -0.360 OA
HETATM   19  H   UNL     1      49.530 -28.451  -1.514  1.00  0.00     0.217 HD
ENDBRANCH  13  18
ENDBRANCH  10  12
ENDBRANCH   2   4
BRANCH   1  20
HETATM   20  C   UNL     1      44.642 -28.831   0.545  1.00  0.00     0.164 C 
BRANCH  20  21
HETATM   21  C   UNL     1      44.645 -28.820  -0.965  1.00  0.00    -0.040 A 
HETATM   22  C   UNL     1      45.348 -27.839  -1.679  1.00  0.00     0.009 A 
HETATM   23  C   UNL     1      45.376 -27.859  -3.074  1.00  0.00     0.001 A 
HETATM   24  C   UNL     1      44.706 -28.861  -3.773  1.00  0.00     0.000 A 
HETATM   25  C   UNL     1      44.007 -29.845  -3.078  1.00  0.00     0.001 A 
HETATM   26  C   UNL     1      43.981 -29.828  -1.682  1.00  0.00     0.009 A 
ENDBRANCH  20  21
ENDBRANCH   1  20
BRANCH   1  27
HETATM   27  C   UNL     1      45.136 -31.077   1.595  1.00  0.00     0.164 C 
BRANCH  27  28
HETATM   28  C   UNL     1      43.657 -31.227   1.855  1.00  0.00    -0.040 A 
HETATM   29  C   UNL     1      42.852 -32.004   1.008  1.00  0.00     0.009 A 
HETATM   30  C   UNL     1      41.491 -32.162   1.271  1.00  0.00     0.001 A 
HETATM   31  C   UNL     1      40.920 -31.553   2.386  1.00  0.00     0.000 A 
HETATM   32  C   UNL     1      41.710 -30.787   3.241  1.00  0.00     0.001 A 
HETATM   33  C   UNL     1      43.071 -30.628   2.980  1.00  0.00     0.009 A 
ENDBRANCH  27  28
ENDBRANCH   1  27
TORSDOF 7
ENDMDL
MODEL 8
REMARK VINA RESULT:      -7.3     14.701     17.145
REMARK  7 active torsions:
REMARK  status: ('A' for Active; 'I' for Inactive)
REMARK    1  A    between atoms: C_4  and  C_5 
REMARK    2  A    between atoms: C_5  and  N_6 
REMARK       I    between atoms: N_6  and  C_7 
REMARK    3  A    between atoms: N_6  and  C_22 
REMARK    4  A    between atoms: C_7  and  C_8 
REMARK    5  A    between atoms: C_13  and  C_14 
REMARK    6  A    between atoms: C_15  and  O_16 
REMARK    7  A    between atoms: C_22  and  C_23 
ROOT
HETATM    1  N   UNL     1      46.640 -31.624   2.218  1.00  0.00    -0.343 N 
HETATM    2  C   UNL     1      45.447 -31.378   1.524  1.00  0.00     0.235 C 
HETATM    3  O   UNL     1      45.184 -31.977   0.475  1.00  0.00    -0.272 OA
ENDROOT
BRANCH   2   4
HETATM    4  C   UNL     1      44.492 -30.323   2.053  1.00  0.00     0.195 C 
HETATM    5  C   UNL     1      43.095 -30.859   2.189  1.00  0.00     0.247 C 
HETATM    6  O   UNL     1      42.713 -31.682   3.007  1.00  0.00    -0.271 OA
HETATM    7  N   UNL     1      42.301 -30.256   1.236  1.00  0.00    -0.290 N 
HETATM    8  N   UNL     1      42.989 -29.372   0.412  1.00  0.00    -0.228 NA
HETATM    9  H   UNL     1      41.352 -30.576   1.068  1.00  0.00     0.183 HD
HETATM   10  C   UNL     1      44.279 -29.126   1.108  1.00  0.00     0.134 C 
HETATM   11  H   UNL     1      42.485 -28.486   0.330  1.00  0.00     0.147 HD
BRANCH  10  12
HETATM   12  C   UNL     1      45.405 -28.777   0.160  1.00  0.00    -0.004 A 
HETATM   13  C   UNL     1      46.569 -28.147   0.617  1.00  0.00     0.073 A 
HETATM   14  C   UNL     1      47.614 -27.832  -0.253  1.00  0.00     0.037 A 
HETATM   15  C   UNL     1      47.518 -28.168  -1.602  1.00  0.00     0.003 A 
HETATM   16  C   UNL     1      46.379 -28.810  -2.078  1.00  0.00     0.001 A 
HETATM   17  C   UNL     1      45.330 -29.109  -1.205  1.00  0.00     0.012 A 
BRANCH  13  18
HETATM   18  O   UNL     1      46.682 -27.856   1.948  1.00  0.00    -0.360 OA
HETATM   19  H   UNL     1      47.188 -27.032   2.045  1.00  0.00     0.217 HD
ENDBRANCH  13  18
ENDBRANCH  10  12
ENDBRANCH   2   4
BRANCH   1  20
HETATM   20  C   UNL     1      47.494 -32.701   1.698  1.00  0.00     0.164 C 
BRANCH  20  21
HETATM   21  C   UNL     1      48.789 -32.224   1.083  1.00  0.00    -0.040 A 
HETATM   22  C   UNL     1      48.804 -31.167   0.162  1.00  0.00     0.009 A 
HETATM   23  C   UNL     1      50.008 -30.708  -0.373  1.00  0.00     0.001 A 
HETATM   24  C   UNL     1      51.213 -31.297   0.009  1.00  0.00     0.000 A 
HETATM   25  C   UNL     1      51.213 -32.344   0.926  1.00  0.00     0.001 A 
HETATM   26  C   UNL     1      50.009 -32.802   1.464  1.00  0.00     0.009 A 
ENDBRANCH  20  21
ENDBRANCH   1  20
BRANCH   1  27
HETATM   27  C   UNL     1      46.864 -31.144   3.589  1.00  0.00     0.164 C 
BRANCH  27  28
HETATM   28  C   UNL     1      48.296 -30.981   4.037  1.00  0.00    -0.040 A 
HETATM   29  C   UNL     1      48.907 -31.939   4.858  1.00  0.00     0.009 A 
HETATM   30  C   UNL     1      50.240 -31.796   5.245  1.00  0.00     0.001 A 
HETATM   31  C   UNL     1      50.980 -30.699   4.809  1.00  0.00     0.000 A 
HETATM   32  C   UNL     1      50.388 -29.744   3.985  1.00  0.00     0.001 A 
HETATM   33  C   UNL     1      49.055 -29.886   3.597  1.00  0.00     0.009 A 
ENDBRANCH  27  28
ENDBRANCH   1  27
TORSDOF 7
ENDMDL
MODEL 9
REMARK VINA RESULT:      -7.2      8.208     11.133
REMARK  7 active torsions:
REMARK  status: ('A' for Active; 'I' for Inactive)
REMARK    1  A    between atoms: C_4  and  C_5 
REMARK    2  A    between atoms: C_5  and  N_6 
REMARK       I    between atoms: N_6  and  C_7 
REMARK    3  A    between atoms: N_6  and  C_22 
REMARK    4  A    between atoms: C_7  and  C_8 
REMARK    5  A    between atoms: C_13  and  C_14 
REMARK    6  A    between atoms: C_15  and  O_16 
REMARK    7  A    between atoms: C_22  and  C_23 
ROOT
HETATM    1  N   UNL     1      40.165  -7.649  10.103  1.00  0.00    -0.343 N 
HETATM    2  C   UNL     1      39.770  -8.399  11.220  1.00  0.00     0.235 C 
HETATM    3  O   UNL     1      39.107  -7.888  12.129  1.00  0.00    -0.272 OA
ENDROOT
BRANCH   2   4
HETATM    4  C   UNL     1      40.212  -9.847  11.327  1.00  0.00     0.195 C 
HETATM    5  C   UNL     1      39.044 -10.789  11.253  1.00  0.00     0.247 C 
HETATM    6  O   UNL     1      38.363 -11.021  10.265  1.00  0.00    -0.271 OA
HETATM    7  N   UNL     1      38.869 -11.365  12.493  1.00  0.00    -0.290 N 
HETATM    8  N   UNL     1      39.766 -10.911  13.454  1.00  0.00    -0.228 NA
HETATM    9  H   UNL     1      38.050 -11.932  12.696  1.00  0.00     0.183 HD
HETATM   10  C   UNL     1      40.835 -10.224  12.683  1.00  0.00     0.134 C 
HETATM   11  H   UNL     1      40.179 -11.696  13.964  1.00  0.00     0.147 HD
BRANCH  10  12
HETATM   12  C   UNL     1      41.516  -9.125  13.469  1.00  0.00    -0.004 A 
HETATM   13  C   UNL     1      42.737  -8.585  13.049  1.00  0.00     0.073 A 
HETATM   14  C   UNL     1      43.364  -7.563  13.765  1.00  0.00     0.037 A 
HETATM   15  C   UNL     1      42.759  -7.047  14.910  1.00  0.00     0.003 A 
HETATM   16  C   UNL     1      41.536  -7.555  15.337  1.00  0.00     0.001 A 
HETATM   17  C   UNL     1      40.921  -8.588  14.625  1.00  0.00     0.012 A 
BRANCH  13  18
HETATM   18  O   UNL     1      43.311  -9.061  11.902  1.00  0.00    -0.360 OA
HETATM   19  H   UNL     1      42.665  -9.622  11.441  1.00  0.00     0.217 HD
ENDBRANCH  13  18
ENDBRANCH  10  12
ENDBRANCH   2   4
BRANCH   1  20
HETATM   20  C   UNL     1      39.654  -6.273  10.020  1.00  0.00     0.164 C 
BRANCH  20  21
HETATM   21  C   UNL     1      40.669  -5.212  10.373  1.00  0.00    -0.040 A 
HETATM   22  C   UNL     1      41.370  -5.258  11.587  1.00  0.00     0.009 A 
HETATM   23  C   UNL     1      42.333  -4.295  11.888  1.00  0.00     0.001 A 
HETATM   24  C   UNL     1      42.610  -3.275  10.979  1.00  0.00     0.000 A 
HETATM   25  C   UNL     1      41.925  -3.218   9.769  1.00  0.00     0.001 A 
HETATM   26  C   UNL     1      40.964  -4.184   9.465  1.00  0.00     0.009 A 
ENDBRANCH  20  21
ENDBRANCH   1  20
BRANCH   1  27
HETATM   27  C   UNL     1      40.711  -8.274   8.891  1.00  0.00     0.164 C 
BRANCH  27  28
HETATM   28  C   UNL     1      42.212  -8.391   8.791  1.00  0.00    -0.040 A 
HETATM   29  C   UNL     1      43.036  -7.271   8.975  1.00  0.00     0.009 A 
HETATM   30  C   UNL     1      44.425  -7.393   8.910  1.00  0.00     0.001 A 
HETATM   31  C   UNL     1      45.006  -8.636   8.669  1.00  0.00     0.000 A 
HETATM   32  C   UNL     1      44.200  -9.759   8.494  1.00  0.00     0.001 A 
HETATM   33  C   UNL     1      42.811  -9.639   8.559  1.00  0.00     0.009 A 
ENDBRANCH  27  28
ENDBRANCH   1  27
TORSDOF 7
ENDMDL
MODEL 10
REMARK VINA RESULT:      -6.9     15.104     17.148
REMARK  7 active torsions:
REMARK  status: ('A' for Active; 'I' for Inactive)
REMARK    1  A    between atoms: C_4  and  C_5 
REMARK    2  A    between atoms: C_5  and  N_6 
REMARK       I    between atoms: N_6  and  C_7 
REMARK    3  A    between atoms: N_6  and  C_22 
REMARK    4  A    between atoms: C_7  and  C_8 
REMARK    5  A    between atoms: C_13  and  C_14 
REMARK    6  A    between atoms: C_15  and  O_16 
REMARK    7  A    between atoms: C_22  and  C_23 
ROOT
HETATM    1  N   UNL     1      46.230 -29.712   0.828  1.00  0.00    -0.343 N 
HETATM    2  C   UNL     1      45.074 -29.579   1.610  1.00  0.00     0.235 C 
HETATM    3  O   UNL     1      45.024 -28.773   2.545  1.00  0.00    -0.272 OA
ENDROOT
BRANCH   2   4
HETATM    4  C   UNL     1      43.887 -30.482   1.325  1.00  0.00     0.195 C 
HETATM    5  C   UNL     1      42.592 -29.838   1.731  1.00  0.00     0.247 C 
HETATM    6  O   UNL     1      42.057 -28.884   1.187  1.00  0.00    -0.271 OA
HETATM    7  N   UNL     1      42.093 -30.513   2.825  1.00  0.00    -0.290 N 
HETATM    8  N   UNL     1      42.910 -31.549   3.264  1.00  0.00    -0.228 NA
HETATM    9  H   UNL     1      41.293 -30.156   3.340  1.00  0.00     0.183 HD
HETATM   10  C   UNL     1      43.864 -31.782   2.149  1.00  0.00     0.134 C 
HETATM   11  H   UNL     1      42.364 -32.401   3.414  1.00  0.00     0.147 HD
BRANCH  10  12
HETATM   12  C   UNL     1      45.192 -32.338   2.614  1.00  0.00    -0.004 A 
HETATM   13  C   UNL     1      45.761 -31.936   3.828  1.00  0.00     0.073 A 
HETATM   14  C   UNL     1      46.981 -32.454   4.265  1.00  0.00     0.037 A 
HETATM   15  C   UNL     1      47.643 -33.410   3.497  1.00  0.00     0.003 A 
HETATM   16  C   UNL     1      47.089 -33.840   2.295  1.00  0.00     0.001 A 
HETATM   17  C   UNL     1      45.875 -33.306   1.856  1.00  0.00     0.012 A 
BRANCH  13  18
HETATM   18  O   UNL     1      45.091 -31.030   4.603  1.00  0.00    -0.360 OA
HETATM   19  H   UNL     1      45.511 -30.999   5.479  1.00  0.00     0.217 HD
ENDBRANCH  13  18
ENDBRANCH  10  12
ENDBRANCH   2   4
BRANCH   1  20
HETATM   20  C   UNL     1      47.323 -28.768   1.105  1.00  0.00     0.164 C 
BRANCH  20  21
HETATM   21  C   UNL     1      48.439 -29.341   1.948  1.00  0.00    -0.040 A 
HETATM   22  C   UNL     1      49.464 -30.102   1.368  1.00  0.00     0.009 A 
HETATM   23  C   UNL     1      50.510 -30.595   2.148  1.00  0.00     0.001 A 
HETATM   24  C   UNL     1      50.548 -30.332   3.516  1.00  0.00     0.000 A 
HETATM   25  C   UNL     1      49.539 -29.574   4.105  1.00  0.00     0.001 A 
HETATM   26  C   UNL     1      48.493 -29.077   3.325  1.00  0.00     0.009 A 
ENDBRANCH  20  21
ENDBRANCH   1  20
BRANCH   1  27
HETATM   27  C   UNL     1      46.240 -30.449  -0.442  1.00  0.00     0.164 C 
BRANCH  27  28
HETATM   28  C   UNL     1      45.581 -29.789  -1.629  1.00  0.00    -0.040 A 
HETATM   29  C   UNL     1      46.052 -28.565  -2.125  1.00  0.00     0.009 A 
HETATM   30  C   UNL     1      45.457 -27.975  -3.240  1.00  0.00     0.001 A 
HETATM   31  C   UNL     1      44.390 -28.605  -3.877  1.00  0.00     0.000 A 
HETATM   32  C   UNL     1      43.918 -29.826  -3.401  1.00  0.00     0.001 A 
HETATM   33  C   UNL     1      44.513 -30.418  -2.285  1.00  0.00     0.009 A 
ENDBRANCH  27  28
ENDBRANCH   1  27
TORSDOF 7
ENDMDL
