MODEL 1
REMARK VINA RESULT:      -7.9      0.000      0.000
REMARK  5 active torsions:
REMARK  status: ('A' for Active; 'I' for Inactive)
REMARK    1  A    between atoms: C_2  and  N_3 
REMARK       I    between atoms: N_3  and  C_4 
REMARK    2  A    between atoms: C_4  and  C_5 
REMARK    3  A    between atoms: C_5  and  N_6 
REMARK    4  A    between atoms: N_6  and  C_7 
REMARK    5  A    between atoms: C_11  and  C_12 
ROOT
HETATM    1  C   UNL     1      43.220 -15.249   5.220  1.00  0.00     0.022 A 
HETATM    2  C   UNL     1      43.326 -16.464   4.478  1.00  0.00     0.012 A 
HETATM    3  C   UNL     1      43.665 -17.658   5.165  1.00  0.00     0.044 A 
HETATM    4  C   UNL     1      43.755 -18.889   4.491  1.00  0.00     0.046 A 
HETATM    5  C   UNL     1      43.524 -18.970   3.110  1.00  0.00     0.050 A 
HETATM    6  C   UNL     1      43.208 -17.799   2.416  1.00  0.00     0.017 A 
HETATM    7  C   UNL     1      43.115 -16.573   3.084  1.00  0.00     0.016 A 
HETATM    8  N   UNL     1      43.914 -17.610   6.486  1.00  0.00    -0.365 N 
HETATM    9  H   UNL     1      44.162 -18.474   6.969  1.00  0.00     0.165 HD
HETATM   10  C   UNL     1      43.876 -16.477   7.194  1.00  0.00     0.090 A 
HETATM   11  C   UNL     1      43.544 -15.281   6.580  1.00  0.00     0.041 A 
ENDROOT
BRANCH   1  12
HETATM   12  N   UNL     1      42.946 -14.038   4.561  1.00  0.00    -0.283 NA
HETATM   13  H   UNL     1      42.198 -14.131   3.873  1.00  0.00     0.128 HD
BRANCH  12  14
HETATM   14  C   UNL     1      42.727 -12.798   5.345  1.00  0.00     0.195 C 
BRANCH  14  15
HETATM   15  C   UNL     1      43.977 -11.911   5.320  1.00  0.00     0.230 C 
HETATM   16  N   UNL     1      44.695 -11.932   6.497  1.00  0.00    -0.360 N 
HETATM   17  H   UNL     1      44.391 -12.568   7.227  1.00  0.00     0.162 HD
HETATM   18  O   UNL     1      44.269 -11.222   4.350  1.00  0.00    -0.272 OA
BRANCH  16  19
HETATM   19  C   UNL     1      45.895 -11.145   6.690  1.00  0.00     0.118 C 
HETATM   20  C   UNL     1      45.875 -10.412   8.018  1.00  0.00     0.026 C 
ENDBRANCH  16  19
ENDBRANCH  14  15
ENDBRANCH  12  14
ENDBRANCH   1  12
BRANCH   5  21
HETATM   21  C   UNL     1      43.613 -20.292   2.373  1.00  0.00     0.417 C 
HETATM   22  F   UNL     1      44.622 -20.308   1.462  1.00  0.00    -0.166 F 
HETATM   23  F   UNL     1      43.838 -21.333   3.212  1.00  0.00    -0.166 F 
HETATM   24  F   UNL     1      42.476 -20.577   1.689  1.00  0.00    -0.166 F 
ENDBRANCH   5  21
TORSDOF 5
ENDMDL
MODEL 2
REMARK VINA RESULT:      -7.9      3.505      5.183
REMARK  5 active torsions:
REMARK  status: ('A' for Active; 'I' for Inactive)
REMARK    1  A    between atoms: C_2  and  N_3 
REMARK       I    between atoms: N_3  and  C_4 
REMARK    2  A    between atoms: C_4  and  C_5 
REMARK    3  A    between atoms: C_5  and  N_6 
REMARK    4  A    between atoms: N_6  and  C_7 
REMARK    5  A    between atoms: C_11  and  C_12 
ROOT
HETATM    1  C   UNL     1      42.852 -15.213   2.855  1.00  0.00     0.022 A 
HETATM    2  C   UNL     1      43.175 -16.561   3.201  1.00  0.00     0.012 A 
HETATM    3  C   UNL     1      43.424 -16.879   4.560  1.00  0.00     0.044 A 
HETATM    4  C   UNL     1      43.718 -18.193   4.963  1.00  0.00     0.046 A 
HETATM    5  C   UNL     1      43.788 -19.233   4.024  1.00  0.00     0.050 A 
HETATM    6  C   UNL     1      43.564 -18.932   2.677  1.00  0.00     0.017 A 
HETATM    7  C   UNL     1      43.268 -17.625   2.274  1.00  0.00     0.016 A 
HETATM    8  N   UNL     1      43.386 -15.899   5.482  1.00  0.00    -0.365 N 
HETATM    9  H   UNL     1      43.572 -16.137   6.457  1.00  0.00     0.165 HD
HETATM   10  C   UNL     1      43.141 -14.621   5.179  1.00  0.00     0.090 A 
HETATM   11  C   UNL     1      42.884 -14.251   3.869  1.00  0.00     0.041 A 
ENDROOT
BRANCH   1  12
HETATM   12  N   UNL     1      42.660 -14.853   1.510  1.00  0.00    -0.283 NA
HETATM   13  H   UNL     1      42.586 -15.667   0.897  1.00  0.00     0.128 HD
BRANCH  12  14
HETATM   14  C   UNL     1      41.604 -13.878   1.145  1.00  0.00     0.195 C 
BRANCH  14  15
HETATM   15  C   UNL     1      40.552 -14.529   0.240  1.00  0.00     0.230 C 
HETATM   16  N   UNL     1      40.465 -13.953  -1.011  1.00  0.00    -0.360 N 
HETATM   17  H   UNL     1      41.131 -13.225  -1.245  1.00  0.00     0.162 HD
HETATM   18  O   UNL     1      39.836 -15.446   0.626  1.00  0.00    -0.272 OA
BRANCH  16  19
HETATM   19  C   UNL     1      39.517 -14.403  -2.008  1.00  0.00     0.118 C 
HETATM   20  C   UNL     1      38.270 -13.540  -2.023  1.00  0.00     0.026 C 
ENDBRANCH  16  19
ENDBRANCH  14  15
ENDBRANCH  12  14
ENDBRANCH   1  12
BRANCH   5  21
HETATM   21  C   UNL     1      44.098 -20.655   4.446  1.00  0.00     0.417 C 
HETATM   22  F   UNL     1      45.275 -20.748   5.121  1.00  0.00    -0.166 F 
HETATM   23  F   UNL     1      43.146 -21.167   5.265  1.00  0.00    -0.166 F 
HETATM   24  F   UNL     1      44.199 -21.496   3.385  1.00  0.00    -0.166 F 
ENDBRANCH   5  21
TORSDOF 5
ENDMDL
MODEL 3
REMARK VINA RESULT:      -7.8      2.319      3.704
REMARK  5 active torsions:
REMARK  status: ('A' for Active; 'I' for Inactive)
REMARK    1  A    between atoms: C_2  and  N_3 
REMARK       I    between atoms: N_3  and  C_4 
REMARK    2  A    between atoms: C_4  and  C_5 
REMARK    3  A    between atoms: C_5  and  N_6 
REMARK    4  A    between atoms: N_6  and  C_7 
REMARK    5  A    between atoms: C_11  and  C_12 
ROOT
HETATM    1  C   UNL     1      43.036 -15.038   4.779  1.00  0.00     0.022 A 
HETATM    2  C   UNL     1      43.171 -16.305   4.135  1.00  0.00     0.012 A 
HETATM    3  C   UNL     1      43.813 -17.362   4.831  1.00  0.00     0.044 A 
HETATM    4  C   UNL     1      43.949 -18.638   4.258  1.00  0.00     0.046 A 
HETATM    5  C   UNL     1      43.461 -18.904   2.971  1.00  0.00     0.050 A 
HETATM    6  C   UNL     1      42.842 -17.868   2.265  1.00  0.00     0.017 A 
HETATM    7  C   UNL     1      42.703 -16.596   2.833  1.00  0.00     0.016 A 
HETATM    8  N   UNL     1      44.312 -17.133   6.059  1.00  0.00    -0.365 N 
HETATM    9  H   UNL     1      44.778 -17.898   6.549  1.00  0.00     0.165 HD
HETATM   10  C   UNL     1      44.249 -15.942   6.662  1.00  0.00     0.090 A 
HETATM   11  C   UNL     1      43.627 -14.874   6.036  1.00  0.00     0.041 A 
ENDROOT
BRANCH   1  12
HETATM   12  N   UNL     1      42.458 -13.954   4.095  1.00  0.00    -0.283 NA
HETATM   13  H   UNL     1      42.603 -14.010   3.086  1.00  0.00     0.128 HD
BRANCH  12  14
HETATM   14  C   UNL     1      41.049 -13.574   4.359  1.00  0.00     0.195 C 
BRANCH  14  15
HETATM   15  C   UNL     1      40.268 -13.435   3.047  1.00  0.00     0.230 C 
HETATM   16  N   UNL     1      41.040 -13.627   1.920  1.00  0.00    -0.360 N 
HETATM   17  H   UNL     1      42.006 -13.908   2.049  1.00  0.00     0.162 HD
HETATM   18  O   UNL     1      39.079 -13.140   3.023  1.00  0.00    -0.272 OA
BRANCH  16  19
HETATM   19  C   UNL     1      40.501 -13.515   0.581  1.00  0.00     0.118 C 
HETATM   20  C   UNL     1      40.005 -14.852   0.065  1.00  0.00     0.026 C 
ENDBRANCH  16  19
ENDBRANCH  14  15
ENDBRANCH  12  14
ENDBRANCH   1  12
BRANCH   5  21
HETATM   21  C   UNL     1      43.595 -20.278   2.345  1.00  0.00     0.417 C 
HETATM   22  F   UNL     1      44.639 -20.349   1.476  1.00  0.00    -0.166 F 
HETATM   23  F   UNL     1      43.803 -21.246   3.272  1.00  0.00    -0.166 F 
HETATM   24  F   UNL     1      42.489 -20.635   1.644  1.00  0.00    -0.166 F 
ENDBRANCH   5  21
TORSDOF 5
ENDMDL
MODEL 4
REMARK VINA RESULT:      -7.7      1.285      2.498
REMARK  5 active torsions:
REMARK  status: ('A' for Active; 'I' for Inactive)
REMARK    1  A    between atoms: C_2  and  N_3 
REMARK       I    between atoms: N_3  and  C_4 
REMARK    2  A    between atoms: C_4  and  C_5 
REMARK    3  A    between atoms: C_5  and  N_6 
REMARK    4  A    between atoms: N_6  and  C_7 
REMARK    5  A    between atoms: C_11  and  C_12 
ROOT
HETATM    1  C   UNL     1      43.025 -14.622   3.938  1.00  0.00     0.022 A 
HETATM    2  C   UNL     1      43.145 -16.006   3.606  1.00  0.00     0.012 A 
HETATM    3  C   UNL     1      42.887 -16.415   2.272  1.00  0.00     0.044 A 
HETATM    4  C   UNL     1      43.017 -17.759   1.882  1.00  0.00     0.046 A 
HETATM    5  C   UNL     1      43.397 -18.743   2.806  1.00  0.00     0.050 A 
HETATM    6  C   UNL     1      43.636 -18.359   4.129  1.00  0.00     0.017 A 
HETATM    7  C   UNL     1      43.510 -17.020   4.521  1.00  0.00     0.016 A 
HETATM    8  N   UNL     1      42.499 -15.499   1.366  1.00  0.00    -0.365 N 
HETATM    9  H   UNL     1      42.311 -15.805   0.411  1.00  0.00     0.165 HD
HETATM   10  C   UNL     1      42.326 -14.208   1.663  1.00  0.00     0.090 A 
HETATM   11  C   UNL     1      42.570 -13.747   2.946  1.00  0.00     0.041 A 
ENDROOT
BRANCH   1  12
HETATM   12  N   UNL     1      43.215 -14.192   5.262  1.00  0.00    -0.283 NA
HETATM   13  H   UNL     1      44.163 -14.372   5.597  1.00  0.00     0.128 HD
BRANCH  12  14
HETATM   14  C   UNL     1      42.814 -12.822   5.664  1.00  0.00     0.195 C 
BRANCH  14  15
HETATM   15  C   UNL     1      44.017 -11.873   5.634  1.00  0.00     0.230 C 
HETATM   16  N   UNL     1      44.820 -11.960   6.753  1.00  0.00    -0.360 N 
HETATM   17  H   UNL     1      44.598 -12.671   7.441  1.00  0.00     0.162 HD
HETATM   18  O   UNL     1      44.207 -11.088   4.712  1.00  0.00    -0.272 OA
BRANCH  16  19
HETATM   19  C   UNL     1      45.994 -11.131   6.933  1.00  0.00     0.118 C 
HETATM   20  C   UNL     1      45.830 -10.178   8.102  1.00  0.00     0.026 C 
ENDBRANCH  16  19
ENDBRANCH  14  15
ENDBRANCH  12  14
ENDBRANCH   1  12
BRANCH   5  21
HETATM   21  C   UNL     1      43.547 -20.194   2.396  1.00  0.00     0.417 C 
HETATM   22  F   UNL     1      42.434 -20.674   1.779  1.00  0.00    -0.166 F 
HETATM   23  F   UNL     1      44.574 -20.379   1.530  1.00  0.00    -0.166 F 
HETATM   24  F   UNL     1      43.777 -21.008   3.458  1.00  0.00    -0.166 F 
ENDBRANCH   5  21
TORSDOF 5
ENDMDL
MODEL 5
REMARK VINA RESULT:      -7.5      2.095      2.433
REMARK  5 active torsions:
REMARK  status: ('A' for Active; 'I' for Inactive)
REMARK    1  A    between atoms: C_2  and  N_3 
REMARK       I    between atoms: N_3  and  C_4 
REMARK    2  A    between atoms: C_4  and  C_5 
REMARK    3  A    between atoms: C_5  and  N_6 
REMARK    4  A    between atoms: N_6  and  C_7 
REMARK    5  A    between atoms: C_11  and  C_12 
ROOT
HETATM    1  C   UNL     1      42.836 -15.068   4.723  1.00  0.00     0.022 A 
HETATM    2  C   UNL     1      43.029 -16.337   4.098  1.00  0.00     0.012 A 
HETATM    3  C   UNL     1      43.792 -17.324   4.772  1.00  0.00     0.044 A 
HETATM    4  C   UNL     1      43.991 -18.600   4.217  1.00  0.00     0.046 A 
HETATM    5  C   UNL     1      43.448 -18.933   2.967  1.00  0.00     0.050 A 
HETATM    6  C   UNL     1      42.709 -17.965   2.281  1.00  0.00     0.017 A 
HETATM    7  C   UNL     1      42.507 -16.694   2.833  1.00  0.00     0.016 A 
HETATM    8  N   UNL     1      44.345 -17.029   5.962  1.00  0.00    -0.365 N 
HETATM    9  H   UNL     1      44.897 -17.744   6.436  1.00  0.00     0.165 HD
HETATM   10  C   UNL     1      44.226 -15.832   6.545  1.00  0.00     0.090 A 
HETATM   11  C   UNL     1      43.487 -14.830   5.938  1.00  0.00     0.041 A 
ENDROOT
BRANCH   1  12
HETATM   12  N   UNL     1      42.135 -14.048   4.056  1.00  0.00    -0.283 NA
HETATM   13  H   UNL     1      42.334 -14.032   3.055  1.00  0.00     0.128 HD
BRANCH  12  14
HETATM   14  C   UNL     1      40.674 -13.893   4.260  1.00  0.00     0.195 C 
BRANCH  14  15
HETATM   15  C   UNL     1      40.386 -13.003   5.475  1.00  0.00     0.230 C 
HETATM   16  N   UNL     1      41.014 -11.776   5.424  1.00  0.00    -0.360 N 
HETATM   17  H   UNL     1      41.533 -11.543   4.584  1.00  0.00     0.162 HD
HETATM   18  O   UNL     1      39.694 -13.382   6.412  1.00  0.00    -0.272 OA
BRANCH  16  19
HETATM   19  C   UNL     1      40.893 -10.797   6.483  1.00  0.00     0.118 C 
HETATM   20  C   UNL     1      42.238 -10.197   6.846  1.00  0.00     0.026 C 
ENDBRANCH  16  19
ENDBRANCH  14  15
ENDBRANCH  12  14
ENDBRANCH   1  12
BRANCH   5  21
HETATM   21  C   UNL     1      43.650 -20.307   2.361  1.00  0.00     0.417 C 
HETATM   22  F   UNL     1      42.574 -20.714   1.635  1.00  0.00    -0.166 F 
HETATM   23  F   UNL     1      44.714 -20.346   1.521  1.00  0.00    -0.166 F 
HETATM   24  F   UNL     1      43.858 -21.261   3.304  1.00  0.00    -0.166 F 
ENDBRANCH   5  21
TORSDOF 5
ENDMDL
MODEL 6
REMARK VINA RESULT:      -7.2      3.783      5.381
REMARK  5 active torsions:
REMARK  status: ('A' for Active; 'I' for Inactive)
REMARK    1  A    between atoms: C_2  and  N_3 
REMARK       I    between atoms: N_3  and  C_4 
REMARK    2  A    between atoms: C_4  and  C_5 
REMARK    3  A    between atoms: C_5  and  N_6 
REMARK    4  A    between atoms: N_6  and  C_7 
REMARK    5  A    between atoms: C_11  and  C_12 
ROOT
HETATM    1  C   UNL     1      40.257 -14.401   3.612  1.00  0.00     0.022 A 
HETATM    2  C   UNL     1      41.197 -15.473   3.528  1.00  0.00     0.012 A 
HETATM    3  C   UNL     1      42.144 -15.636   4.571  1.00  0.00     0.044 A 
HETATM    4  C   UNL     1      43.075 -16.689   4.555  1.00  0.00     0.046 A 
HETATM    5  C   UNL     1      43.103 -17.608   3.496  1.00  0.00     0.050 A 
HETATM    6  C   UNL     1      42.188 -17.449   2.451  1.00  0.00     0.017 A 
HETATM    7  C   UNL     1      41.258 -16.403   2.465  1.00  0.00     0.016 A 
HETATM    8  N   UNL     1      42.158 -14.758   5.591  1.00  0.00    -0.365 N 
HETATM    9  H   UNL     1      42.847 -14.882   6.333  1.00  0.00     0.165 HD
HETATM   10  C   UNL     1      41.326 -13.715   5.667  1.00  0.00     0.090 A 
HETATM   11  C   UNL     1      40.374 -13.508   4.682  1.00  0.00     0.041 A 
ENDROOT
BRANCH   1  12
HETATM   12  N   UNL     1      39.344 -14.175   2.567  1.00  0.00    -0.283 NA
HETATM   13  H   UNL     1      38.384 -14.400   2.834  1.00  0.00     0.128 HD
BRANCH  12  14
HETATM   14  C   UNL     1      39.352 -12.883   1.839  1.00  0.00     0.195 C 
BRANCH  14  15
HETATM   15  C   UNL     1      39.822 -13.076   0.393  1.00  0.00     0.230 C 
HETATM   16  N   UNL     1      38.789 -13.202  -0.513  1.00  0.00    -0.360 N 
HETATM   17  H   UNL     1      37.842 -13.084  -0.171  1.00  0.00     0.162 HD
HETATM   18  O   UNL     1      41.009 -13.151   0.096  1.00  0.00    -0.272 OA
BRANCH  16  19
HETATM   19  C   UNL     1      39.017 -13.416  -1.927  1.00  0.00     0.118 C 
HETATM   20  C   UNL     1      38.882 -14.881  -2.298  1.00  0.00     0.026 C 
ENDBRANCH  16  19
ENDBRANCH  14  15
ENDBRANCH  12  14
ENDBRANCH   1  12
BRANCH   5  21
HETATM   21  C   UNL     1      44.097 -18.752   3.470  1.00  0.00     0.417 C 
HETATM   22  F   UNL     1      44.915 -18.700   2.385  1.00  0.00    -0.166 F 
HETATM   23  F   UNL     1      44.906 -18.752   4.559  1.00  0.00    -0.166 F 
HETATM   24  F   UNL     1      43.487 -19.964   3.432  1.00  0.00    -0.166 F 
ENDBRANCH   5  21
TORSDOF 5
ENDMDL
MODEL 7
REMARK VINA RESULT:      -7.1      4.956      6.366
REMARK  5 active torsions:
REMARK  status: ('A' for Active; 'I' for Inactive)
REMARK    1  A    between atoms: C_2  and  N_3 
REMARK       I    between atoms: N_3  and  C_4 
REMARK    2  A    between atoms: C_4  and  C_5 
REMARK    3  A    between atoms: C_5  and  N_6 
REMARK    4  A    between atoms: N_6  and  C_7 
REMARK    5  A    between atoms: C_11  and  C_12 
ROOT
HETATM    1  C   UNL     1      40.716 -14.328   1.300  1.00  0.00     0.022 A 
HETATM    2  C   UNL     1      41.520 -15.193   2.102  1.00  0.00     0.012 A 
HETATM    3  C   UNL     1      41.291 -15.240   3.501  1.00  0.00     0.044 A 
HETATM    4  C   UNL     1      42.033 -16.094   4.335  1.00  0.00     0.046 A 
HETATM    5  C   UNL     1      43.037 -16.919   3.809  1.00  0.00     0.050 A 
HETATM    6  C   UNL     1      43.289 -16.870   2.434  1.00  0.00     0.017 A 
HETATM    7  C   UNL     1      42.549 -16.023   1.600  1.00  0.00     0.016 A 
HETATM    8  N   UNL     1      40.349 -14.444   4.040  1.00  0.00    -0.365 N 
HETATM    9  H   UNL     1      40.196 -14.482   5.049  1.00  0.00     0.165 HD
HETATM   10  C   UNL     1      39.620 -13.586   3.321  1.00  0.00     0.090 A 
HETATM   11  C   UNL     1      39.794 -13.500   1.949  1.00  0.00     0.041 A 
ENDROOT
BRANCH   1  12
HETATM   12  N   UNL     1      40.958 -14.212  -0.080  1.00  0.00    -0.283 NA
HETATM   13  H   UNL     1      41.808 -14.699  -0.367  1.00  0.00     0.128 HD
BRANCH  12  14
HETATM   14  C   UNL     1      39.878 -14.514  -1.052  1.00  0.00     0.195 C 
BRANCH  14  15
HETATM   15  C   UNL     1      40.053 -13.688  -2.332  1.00  0.00     0.230 C 
HETATM   16  N   UNL     1      40.929 -12.631  -2.194  1.00  0.00    -0.360 N 
HETATM   17  H   UNL     1      41.424 -12.537  -1.314  1.00  0.00     0.162 HD
HETATM   18  O   UNL     1      39.431 -13.936  -3.359  1.00  0.00    -0.272 OA
BRANCH  16  19
HETATM   19  C   UNL     1      41.215 -11.714  -3.277  1.00  0.00     0.118 C 
HETATM   20  C   UNL     1      40.346 -10.472  -3.202  1.00  0.00     0.026 C 
ENDBRANCH  16  19
ENDBRANCH  14  15
ENDBRANCH  12  14
ENDBRANCH   1  12
BRANCH   5  21
HETATM   21  C   UNL     1      43.840 -17.848   4.697  1.00  0.00     0.417 C 
HETATM   22  F   UNL     1      44.968 -17.258   5.176  1.00  0.00    -0.166 F 
HETATM   23  F   UNL     1      43.134 -18.260   5.780  1.00  0.00    -0.166 F 
HETATM   24  F   UNL     1      44.243 -18.967   4.041  1.00  0.00    -0.166 F 
ENDBRANCH   5  21
TORSDOF 5
ENDMDL
MODEL 8
REMARK VINA RESULT:      -7.0      1.966      2.983
REMARK  5 active torsions:
REMARK  status: ('A' for Active; 'I' for Inactive)
REMARK    1  A    between atoms: C_2  and  N_3 
REMARK       I    between atoms: N_3  and  C_4 
REMARK    2  A    between atoms: C_4  and  C_5 
REMARK    3  A    between atoms: C_5  and  N_6 
REMARK    4  A    between atoms: N_6  and  C_7 
REMARK    5  A    between atoms: C_11  and  C_12 
ROOT
HETATM    1  C   UNL     1      43.003 -15.021   4.223  1.00  0.00     0.022 A 
HETATM    2  C   UNL     1      43.256 -16.419   4.364  1.00  0.00     0.012 A 
HETATM    3  C   UNL     1      43.430 -17.206   3.197  1.00  0.00     0.044 A 
HETATM    4  C   UNL     1      43.710 -18.581   3.276  1.00  0.00     0.046 A 
HETATM    5  C   UNL     1      43.814 -19.222   4.519  1.00  0.00     0.050 A 
HETATM    6  C   UNL     1      43.627 -18.465   5.679  1.00  0.00     0.017 A 
HETATM    7  C   UNL     1      43.350 -17.094   5.603  1.00  0.00     0.016 A 
HETATM    8  N   UNL     1      43.314 -16.625   1.989  1.00  0.00    -0.365 N 
HETATM    9  H   UNL     1      43.435 -17.201   1.155  1.00  0.00     0.165 HD
HETATM   10  C   UNL     1      43.023 -15.331   1.827  1.00  0.00     0.090 A 
HETATM   11  C   UNL     1      42.850 -14.511   2.930  1.00  0.00     0.041 A 
ENDROOT
BRANCH   1  12
HETATM   12  N   UNL     1      42.766 -14.225   5.357  1.00  0.00    -0.283 NA
HETATM   13  H   UNL     1      43.575 -13.652   5.605  1.00  0.00     0.128 HD
BRANCH  12  14
HETATM   14  C   UNL     1      41.542 -13.392   5.438  1.00  0.00     0.195 C 
BRANCH  14  15
HETATM   15  C   UNL     1      41.903 -11.906   5.551  1.00  0.00     0.230 C 
HETATM   16  N   UNL     1      42.373 -11.543   6.796  1.00  0.00    -0.360 N 
HETATM   17  H   UNL     1      42.509 -12.276   7.483  1.00  0.00     0.162 HD
HETATM   18  O   UNL     1      41.741 -11.122   4.622  1.00  0.00    -0.272 OA
BRANCH  16  19
HETATM   19  C   UNL     1      42.746 -10.181   7.119  1.00  0.00     0.118 C 
HETATM   20  C   UNL     1      41.660  -9.478   7.911  1.00  0.00     0.026 C 
ENDBRANCH  16  19
ENDBRANCH  14  15
ENDBRANCH  12  14
ENDBRANCH   1  12
BRANCH   5  21
HETATM   21  C   UNL     1      44.122 -20.703   4.619  1.00  0.00     0.417 C 
HETATM   22  F   UNL     1      43.204 -21.372   5.368  1.00  0.00    -0.166 F 
HETATM   23  F   UNL     1      44.136 -21.307   3.404  1.00  0.00    -0.166 F 
HETATM   24  F   UNL     1      45.329 -20.941   5.191  1.00  0.00    -0.166 F 
ENDBRANCH   5  21
TORSDOF 5
ENDMDL
MODEL 9
REMARK VINA RESULT:      -6.9      4.394      6.423
REMARK  5 active torsions:
REMARK  status: ('A' for Active; 'I' for Inactive)
REMARK    1  A    between atoms: C_2  and  N_3 
REMARK       I    between atoms: N_3  and  C_4 
REMARK    2  A    between atoms: C_4  and  C_5 
REMARK    3  A    between atoms: C_5  and  N_6 
REMARK    4  A    between atoms: N_6  and  C_7 
REMARK    5  A    between atoms: C_11  and  C_12 
ROOT
HETATM    1  C   UNL     1      40.748 -14.977   4.987  1.00  0.00     0.022 A 
HETATM    2  C   UNL     1      40.459 -14.883   3.592  1.00  0.00     0.012 A 
HETATM    3  C   UNL     1      40.141 -13.615   3.042  1.00  0.00     0.044 A 
HETATM    4  C   UNL     1      39.876 -13.458   1.671  1.00  0.00     0.046 A 
HETATM    5  C   UNL     1      39.906 -14.559   0.803  1.00  0.00     0.050 A 
HETATM    6  C   UNL     1      40.199 -15.819   1.332  1.00  0.00     0.017 A 
HETATM    7  C   UNL     1      40.466 -15.978   2.698  1.00  0.00     0.016 A 
HETATM    8  N   UNL     1      40.082 -12.542   3.853  1.00  0.00    -0.365 N 
HETATM    9  H   UNL     1      39.847 -11.635   3.448  1.00  0.00     0.165 HD
HETATM   10  C   UNL     1      40.295 -12.611   5.170  1.00  0.00     0.090 A 
HETATM   11  C   UNL     1      40.617 -13.821   5.764  1.00  0.00     0.041 A 
ENDROOT
BRANCH   1  12
HETATM   12  N   UNL     1      41.008 -16.227   5.575  1.00  0.00    -0.283 NA
HETATM   13  H   UNL     1      40.851 -17.001   4.927  1.00  0.00     0.128 HD
BRANCH  12  14
HETATM   14  C   UNL     1      42.281 -16.458   6.300  1.00  0.00     0.195 C 
BRANCH  14  15
HETATM   15  C   UNL     1      43.062 -17.618   5.672  1.00  0.00     0.230 C 
HETATM   16  N   UNL     1      43.271 -17.476   4.316  1.00  0.00    -0.360 N 
HETATM   17  H   UNL     1      42.968 -16.613   3.878  1.00  0.00     0.162 HD
HETATM   18  O   UNL     1      43.422 -18.591   6.324  1.00  0.00    -0.272 OA
BRANCH  16  19
HETATM   19  C   UNL     1      43.965 -18.473   3.528  1.00  0.00     0.118 C 
HETATM   20  C   UNL     1      43.200 -18.819   2.265  1.00  0.00     0.026 C 
ENDBRANCH  16  19
ENDBRANCH  14  15
ENDBRANCH  12  14
ENDBRANCH   1  12
BRANCH   5  21
HETATM   21  C   UNL     1      39.627 -14.402  -0.679  1.00  0.00     0.417 C 
HETATM   22  F   UNL     1      39.138 -15.542  -1.236  1.00  0.00    -0.166 F 
HETATM   23  F   UNL     1      38.713 -13.432  -0.929  1.00  0.00    -0.166 F 
HETATM   24  F   UNL     1      40.744 -14.082  -1.381  1.00  0.00    -0.166 F 
ENDBRANCH   5  21
TORSDOF 5
ENDMDL
MODEL 10
REMARK VINA RESULT:      -6.7      2.120      3.201
REMARK  5 active torsions:
REMARK  status: ('A' for Active; 'I' for Inactive)
REMARK    1  A    between atoms: C_2  and  N_3 
REMARK       I    between atoms: N_3  and  C_4 
REMARK    2  A    between atoms: C_4  and  C_5 
REMARK    3  A    between atoms: C_5  and  N_6 
REMARK    4  A    between atoms: N_6  and  C_7 
REMARK    5  A    between atoms: C_11  and  C_12 
ROOT
HETATM    1  C   UNL     1      41.671 -13.536   5.277  1.00  0.00     0.022 A 
HETATM    2  C   UNL     1      42.263 -14.817   5.055  1.00  0.00     0.012 A 
HETATM    3  C   UNL     1      41.828 -15.589   3.947  1.00  0.00     0.044 A 
HETATM    4  C   UNL     1      42.394 -16.843   3.663  1.00  0.00     0.046 A 
HETATM    5  C   UNL     1      43.403 -17.378   4.478  1.00  0.00     0.050 A 
HETATM    6  C   UNL     1      43.828 -16.638   5.585  1.00  0.00     0.017 A 
HETATM    7  C   UNL     1      43.268 -15.387   5.869  1.00  0.00     0.016 A 
HETATM    8  N   UNL     1      40.847 -15.114   3.159  1.00  0.00    -0.365 N 
HETATM    9  H   UNL     1      40.538 -15.680   2.367  1.00  0.00     0.165 HD
HETATM   10  C   UNL     1      40.239 -13.944   3.375  1.00  0.00     0.090 A 
HETATM   11  C   UNL     1      40.625 -13.143   4.437  1.00  0.00     0.041 A 
ENDROOT
BRANCH   1  12
HETATM   12  N   UNL     1      42.036 -12.773   6.400  1.00  0.00    -0.283 NA
HETATM   13  H   UNL     1      42.530 -13.326   7.102  1.00  0.00     0.128 HD
BRANCH  12  14
HETATM   14  C   UNL     1      42.741 -11.480   6.222  1.00  0.00     0.195 C 
BRANCH  14  15
HETATM   15  C   UNL     1      43.709 -11.225   7.383  1.00  0.00     0.230 C 
HETATM   16  N   UNL     1      43.976  -9.888   7.599  1.00  0.00    -0.360 N 
HETATM   17  H   UNL     1      43.469  -9.208   7.042  1.00  0.00     0.162 HD
HETATM   18  O   UNL     1      44.220 -12.138   8.020  1.00  0.00    -0.272 OA
BRANCH  16  19
HETATM   19  C   UNL     1      44.884  -9.434   8.631  1.00  0.00     0.118 C 
HETATM   20  C   UNL     1      46.275  -9.183   8.081  1.00  0.00     0.026 C 
ENDBRANCH  16  19
ENDBRANCH  14  15
ENDBRANCH  12  14
ENDBRANCH   1  12
BRANCH   5  21
HETATM   21  C   UNL     1      44.026 -18.727   4.179  1.00  0.00     0.417 C 
HETATM   22  F   UNL     1      43.721 -19.657   5.124  1.00  0.00    -0.166 F 
HETATM   23  F   UNL     1      43.605 -19.235   2.994  1.00  0.00    -0.166 F 
HETATM   24  F   UNL     1      45.380 -18.668   4.123  1.00  0.00    -0.166 F 
ENDBRANCH   5  21
TORSDOF 5
ENDMDL
