MODEL 1
REMARK VINA RESULT:      -8.0      0.000      0.000
REMARK  8 active torsions:
REMARK  status: ('A' for Active; 'I' for Inactive)
REMARK       I    between atoms: C_2  and  N_3 
REMARK    1  A    between atoms: N_3  and  C_4 
REMARK    2  A    between atoms: C_6  and  C_7 
REMARK    3  A    between atoms: C_7  and  N_8 
REMARK    4  A    between atoms: C_11  and  C_12 
REMARK    5  A    between atoms: C_14  and  S_15 
REMARK    6  A    between atoms: S_15  and  C_16 
REMARK    7  A    between atoms: C_16  and  C_17 
REMARK    8  A    between atoms: C_17  and  N_18 
ROOT
HETATM    1  N   UNL     1      44.467  -9.285   8.745  1.00  0.00    -0.066 N 
HETATM    2  H   UNL     1      44.611  -9.795   9.627  1.00  0.00     0.280 HD
HETATM    3  C   UNL     1      43.678 -10.196   7.816  1.00  0.00     0.246 C 
HETATM    4  C   UNL     1      44.481 -11.467   7.508  1.00  0.00     0.064 C 
HETATM    5  C   UNL     1      45.872 -11.127   6.957  1.00  0.00     0.014 C 
HETATM    6  C   UNL     1      46.618 -10.197   7.908  1.00  0.00     0.028 C 
HETATM    7  C   UNL     1      45.828  -8.929   8.194  1.00  0.00     0.235 C 
ENDROOT
BRANCH   4   8
HETATM    8  C   UNL     1      43.733 -12.423   6.603  1.00  0.00     0.044 A 
HETATM    9  N   UNL     1      43.364 -13.590   7.168  1.00  0.00    -0.227 NA
HETATM   10  C   UNL     1      42.741 -14.496   6.392  1.00  0.00     0.188 A 
HETATM   11  N   UNL     1      42.455 -14.320   5.095  1.00  0.00    -0.235 NA
HETATM   12  C   UNL     1      42.819 -13.138   4.565  1.00  0.00     0.121 A 
HETATM   13  C   UNL     1      43.468 -12.149   5.274  1.00  0.00     0.047 A 
BRANCH  10  14
HETATM   14  S   UNL     1      42.286 -16.026   7.165  1.00  0.00    -0.088 SA
BRANCH  14  15
HETATM   15  C   UNL     1      43.798 -16.995   6.867  1.00  0.00     0.110 C 
BRANCH  15  16
HETATM   16  C   UNL     1      43.432 -18.273   6.107  1.00  0.00     0.245 C 
BRANCH  16  17
HETATM   17  N   UNL     1      44.151 -18.355   4.772  1.00  0.00    -0.070 N 
HETATM   18  H   UNL     1      45.139 -18.110   4.927  1.00  0.00     0.279 HD
HETATM   19  C   UNL     1      43.618 -17.355   3.750  1.00  0.00     0.235 C 
HETATM   20  C   UNL     1      43.004 -18.211   2.662  1.00  0.00     0.029 C 
HETATM   21  C   UNL     1      43.898 -19.431   2.642  1.00  0.00     0.029 C 
HETATM   22  C   UNL     1      44.103 -19.726   4.113  1.00  0.00     0.235 C 
ENDBRANCH  16  17
ENDBRANCH  15  16
ENDBRANCH  14  15
ENDBRANCH  10  14
ENDBRANCH   4   8
BRANCH   1  23
HETATM   23  C   UNL     1      43.701  -8.025   9.126  1.00  0.00     0.280 C 
BRANCH  23  24
HETATM   24  C   UNL     1      43.335  -7.979  10.571  1.00  0.00     0.010 A 
HETATM   25  S   UNL     1      42.270  -6.764  11.151  1.00  0.00    -0.075 SA
HETATM   26  C   UNL     1      42.348  -7.362  12.736  1.00  0.00     0.076 A 
HETATM   27  C   UNL     1      43.174  -8.454  12.848  1.00  0.00     0.038 A 
HETATM   28  C   UNL     1      43.760  -8.805  11.595  1.00  0.00     0.019 A 
BRANCH  26  29
HETATM   29  N   UNL     1      41.592  -6.663  13.645  1.00  0.00    -0.322 N 
HETATM   30  C   UNL     1      40.274  -6.975  13.923  1.00  0.00     0.218 C 
HETATM   31  C   UNL     1      39.683  -6.091  14.991  1.00  0.00     0.117 C 
HETATM   32  O   UNL     1      39.602  -7.832  13.359  1.00  0.00    -0.274 OA
HETATM   33  H   UNL     1      42.031  -5.885  14.119  1.00  0.00     0.169 HD
ENDBRANCH  26  29
ENDBRANCH  23  24
ENDBRANCH   1  23
TORSDOF 8
ENDMDL
MODEL 2
REMARK VINA RESULT:      -8.0      1.271      1.281
REMARK  8 active torsions:
REMARK  status: ('A' for Active; 'I' for Inactive)
REMARK       I    between atoms: C_2  and  N_3 
REMARK    1  A    between atoms: N_3  and  C_4 
REMARK    2  A    between atoms: C_6  and  C_7 
REMARK    3  A    between atoms: C_7  and  N_8 
REMARK    4  A    between atoms: C_11  and  C_12 
REMARK    5  A    between atoms: C_14  and  S_15 
REMARK    6  A    between atoms: S_15  and  C_16 
REMARK    7  A    between atoms: C_16  and  C_17 
REMARK    8  A    between atoms: C_17  and  N_18 
ROOT
HETATM    1  N   UNL     1      44.242  -9.436   9.059  1.00  0.00    -0.066 N 
HETATM    2  H   UNL     1      44.614  -9.938   9.877  1.00  0.00     0.280 HD
HETATM    3  C   UNL     1      43.559 -10.463   8.168  1.00  0.00     0.246 C 
HETATM    4  C   UNL     1      44.577 -11.499   7.672  1.00  0.00     0.064 C 
HETATM    5  C   UNL     1      45.768 -10.821   6.982  1.00  0.00     0.014 C 
HETATM    6  C   UNL     1      46.409  -9.787   7.901  1.00  0.00     0.028 C 
HETATM    7  C   UNL     1      45.401  -8.751   8.374  1.00  0.00     0.235 C 
ENDROOT
BRANCH   4   8
HETATM    8  C   UNL     1      43.946 -12.561   6.795  1.00  0.00     0.044 A 
HETATM    9  N   UNL     1      44.250 -13.835   7.117  1.00  0.00    -0.227 NA
HETATM   10  C   UNL     1      43.756 -14.815   6.338  1.00  0.00     0.188 A 
HETATM   11  N   UNL     1      42.979 -14.617   5.266  1.00  0.00    -0.235 NA
HETATM   12  C   UNL     1      42.678 -13.337   4.982  1.00  0.00     0.121 A 
HETATM   13  C   UNL     1      43.140 -12.263   5.713  1.00  0.00     0.047 A 
BRANCH  10  14
HETATM   14  S   UNL     1      44.190 -16.476   6.781  1.00  0.00    -0.088 SA
BRANCH  14  15
HETATM   15  C   UNL     1      43.140 -17.401   5.616  1.00  0.00     0.110 C 
BRANCH  15  16
HETATM   16  C   UNL     1      43.586 -18.866   5.594  1.00  0.00     0.245 C 
BRANCH  16  17
HETATM   17  N   UNL     1      44.226 -19.236   4.268  1.00  0.00    -0.070 N 
HETATM   18  H   UNL     1      45.248 -19.169   4.378  1.00  0.00     0.279 HD
HETATM   19  C   UNL     1      43.855 -18.274   3.142  1.00  0.00     0.235 C 
HETATM   20  C   UNL     1      43.050 -19.114   2.172  1.00  0.00     0.029 C 
HETATM   21  C   UNL     1      43.696 -20.478   2.283  1.00  0.00     0.029 C 
HETATM   22  C   UNL     1      43.896 -20.637   3.777  1.00  0.00     0.235 C 
ENDBRANCH  16  17
ENDBRANCH  15  16
ENDBRANCH  14  15
ENDBRANCH  10  14
ENDBRANCH   4   8
BRANCH   1  23
HETATM   23  C   UNL     1      43.271  -8.406   9.622  1.00  0.00     0.280 C 
BRANCH  23  24
HETATM   24  C   UNL     1      42.828  -8.721  11.011  1.00  0.00     0.010 A 
HETATM   25  S   UNL     1      41.852  -7.604  11.876  1.00  0.00    -0.075 SA
HETATM   26  C   UNL     1      41.780  -8.621  13.233  1.00  0.00     0.076 A 
HETATM   27  C   UNL     1      42.488  -9.785  13.058  1.00  0.00     0.038 A 
HETATM   28  C   UNL     1      43.110  -9.838  11.775  1.00  0.00     0.019 A 
BRANCH  26  29
HETATM   29  N   UNL     1      41.042  -8.122  14.278  1.00  0.00    -0.322 N 
HETATM   30  C   UNL     1      41.576  -7.291  15.245  1.00  0.00     0.218 C 
HETATM   31  C   UNL     1      40.550  -6.842  16.254  1.00  0.00     0.117 C 
HETATM   32  O   UNL     1      42.755  -6.965  15.343  1.00  0.00    -0.274 OA
HETATM   33  H   UNL     1      40.068  -8.389  14.332  1.00  0.00     0.169 HD
ENDBRANCH  26  29
ENDBRANCH  23  24
ENDBRANCH   1  23
TORSDOF 8
ENDMDL
MODEL 3
REMARK VINA RESULT:      -7.8      4.186     10.732
REMARK  8 active torsions:
REMARK  status: ('A' for Active; 'I' for Inactive)
REMARK       I    between atoms: C_2  and  N_3 
REMARK    1  A    between atoms: N_3  and  C_4 
REMARK    2  A    between atoms: C_6  and  C_7 
REMARK    3  A    between atoms: C_7  and  N_8 
REMARK    4  A    between atoms: C_11  and  C_12 
REMARK    5  A    between atoms: C_14  and  S_15 
REMARK    6  A    between atoms: S_15  and  C_16 
REMARK    7  A    between atoms: C_16  and  C_17 
REMARK    8  A    between atoms: C_17  and  N_18 
ROOT
HETATM    1  N   UNL     1      43.353 -16.547   5.017  1.00  0.00    -0.066 N 
HETATM    2  H   UNL     1      44.374 -16.675   5.025  1.00  0.00     0.280 HD
HETATM    3  C   UNL     1      43.082 -15.051   5.089  1.00  0.00     0.246 C 
HETATM    4  C   UNL     1      43.627 -14.474   6.403  1.00  0.00     0.064 C 
HETATM    5  C   UNL     1      43.071 -15.231   7.616  1.00  0.00     0.014 C 
HETATM    6  C   UNL     1      43.346 -16.726   7.492  1.00  0.00     0.028 C 
HETATM    7  C   UNL     1      42.786 -17.298   6.199  1.00  0.00     0.235 C 
ENDROOT
BRANCH   4   8
HETATM    8  C   UNL     1      43.403 -12.981   6.519  1.00  0.00     0.044 A 
HETATM    9  N   UNL     1      44.101 -12.363   7.494  1.00  0.00    -0.227 NA
HETATM   10  C   UNL     1      43.900 -11.044   7.672  1.00  0.00     0.188 A 
HETATM   11  N   UNL     1      43.058 -10.297   6.947  1.00  0.00    -0.235 NA
HETATM   12  C   UNL     1      42.391 -10.938   5.969  1.00  0.00     0.121 A 
HETATM   13  C   UNL     1      42.522 -12.286   5.712  1.00  0.00     0.047 A 
BRANCH  10  14
HETATM   14  S   UNL     1      44.821 -10.269   8.974  1.00  0.00    -0.088 SA
BRANCH  14  15
HETATM   15  C   UNL     1      43.596 -10.343  10.319  1.00  0.00     0.110 C 
BRANCH  15  16
HETATM   16  C   UNL     1      42.596  -9.196  10.150  1.00  0.00     0.245 C 
BRANCH  16  17
HETATM   17  N   UNL     1      41.930  -8.836  11.466  1.00  0.00    -0.070 N 
HETATM   18  H   UNL     1      40.924  -8.706  11.288  1.00  0.00     0.279 HD
HETATM   19  C   UNL     1      42.436  -7.518  12.046  1.00  0.00     0.235 C 
HETATM   20  C   UNL     1      43.138  -7.910  13.329  1.00  0.00     0.029 C 
HETATM   21  C   UNL     1      42.320  -9.084  13.822  1.00  0.00     0.029 C 
HETATM   22  C   UNL     1      42.083  -9.885  12.558  1.00  0.00     0.235 C 
ENDBRANCH  16  17
ENDBRANCH  15  16
ENDBRANCH  14  15
ENDBRANCH  10  14
ENDBRANCH   4   8
BRANCH   1  23
HETATM   23  C   UNL     1      42.877 -17.170   3.711  1.00  0.00     0.280 C 
BRANCH  23  24
HETATM   24  C   UNL     1      41.979 -16.271   2.929  1.00  0.00     0.010 A 
HETATM   25  S   UNL     1      42.555 -15.509   1.503  1.00  0.00    -0.075 SA
HETATM   26  C   UNL     1      41.064 -14.748   1.231  1.00  0.00     0.076 A 
HETATM   27  C   UNL     1      40.137 -15.042   2.201  1.00  0.00     0.038 A 
HETATM   28  C   UNL     1      40.671 -15.914   3.197  1.00  0.00     0.019 A 
BRANCH  26  29
HETATM   29  N   UNL     1      41.023 -13.963   0.105  1.00  0.00    -0.322 N 
HETATM   30  C   UNL     1      40.120 -14.167  -0.921  1.00  0.00     0.218 C 
HETATM   31  C   UNL     1      40.249 -13.142  -2.019  1.00  0.00     0.117 C 
HETATM   32  O   UNL     1      39.316 -15.090  -1.001  1.00  0.00    -0.274 OA
HETATM   33  H   UNL     1      41.695 -13.210   0.035  1.00  0.00     0.169 HD
ENDBRANCH  26  29
ENDBRANCH  23  24
ENDBRANCH   1  23
TORSDOF 8
ENDMDL
MODEL 4
REMARK VINA RESULT:      -7.7      3.618     10.420
REMARK  8 active torsions:
REMARK  status: ('A' for Active; 'I' for Inactive)
REMARK       I    between atoms: C_2  and  N_3 
REMARK    1  A    between atoms: N_3  and  C_4 
REMARK    2  A    between atoms: C_6  and  C_7 
REMARK    3  A    between atoms: C_7  and  N_8 
REMARK    4  A    between atoms: C_11  and  C_12 
REMARK    5  A    between atoms: C_14  and  S_15 
REMARK    6  A    between atoms: S_15  and  C_16 
REMARK    7  A    between atoms: C_16  and  C_17 
REMARK    8  A    between atoms: C_17  and  N_18 
ROOT
HETATM    1  N   UNL     1      42.500 -12.759   5.493  1.00  0.00    -0.066 N 
HETATM    2  H   UNL     1      42.968 -12.382   4.656  1.00  0.00     0.280 HD
HETATM    3  C   UNL     1      41.775 -11.603   6.168  1.00  0.00     0.246 C 
HETATM    4  C   UNL     1      42.780 -10.535   6.620  1.00  0.00     0.064 C 
HETATM    5  C   UNL     1      43.874 -11.142   7.509  1.00  0.00     0.014 C 
HETATM    6  C   UNL     1      44.560 -12.308   6.803  1.00  0.00     0.028 C 
HETATM    7  C   UNL     1      43.563 -13.373   6.375  1.00  0.00     0.235 C 
ENDROOT
BRANCH   4   8
HETATM    8  C   UNL     1      42.110  -9.349   7.280  1.00  0.00     0.044 A 
HETATM    9  N   UNL     1      41.102  -9.647   8.126  1.00  0.00    -0.227 NA
HETATM   10  C   UNL     1      40.440  -8.626   8.700  1.00  0.00     0.188 A 
HETATM   11  N   UNL     1      40.711  -7.331   8.495  1.00  0.00    -0.235 NA
HETATM   12  C   UNL     1      41.734  -7.066   7.661  1.00  0.00     0.121 A 
HETATM   13  C   UNL     1      42.469  -8.040   7.020  1.00  0.00     0.047 A 
BRANCH  10  14
HETATM   14  S   UNL     1      39.111  -9.056   9.793  1.00  0.00    -0.088 SA
BRANCH  14  15
HETATM   15  C   UNL     1      40.057  -9.723  11.198  1.00  0.00     0.110 C 
BRANCH  15  16
HETATM   16  C   UNL     1      40.700  -8.564  11.964  1.00  0.00     0.245 C 
BRANCH  16  17
HETATM   17  N   UNL     1      42.185  -8.793  12.183  1.00  0.00    -0.070 N 
HETATM   18  H   UNL     1      42.387  -8.638  13.181  1.00  0.00     0.279 HD
HETATM   19  C   UNL     1      43.057  -7.806  11.413  1.00  0.00     0.235 C 
HETATM   20  C   UNL     1      43.801  -8.659  10.407  1.00  0.00     0.029 C 
HETATM   21  C   UNL     1      44.009  -9.961  11.150  1.00  0.00     0.029 C 
HETATM   22  C   UNL     1      42.668 -10.188  11.817  1.00  0.00     0.235 C 
ENDBRANCH  16  17
ENDBRANCH  15  16
ENDBRANCH  14  15
ENDBRANCH  10  14
ENDBRANCH   4   8
BRANCH   1  23
HETATM   23  C   UNL     1      41.550 -13.831   4.978  1.00  0.00     0.280 C 
BRANCH  23  24
HETATM   24  C   UNL     1      42.162 -14.701   3.933  1.00  0.00     0.010 A 
HETATM   25  S   UNL     1      41.857 -16.391   3.933  1.00  0.00    -0.075 SA
HETATM   26  C   UNL     1      42.814 -16.627   2.551  1.00  0.00     0.076 A 
HETATM   27  C   UNL     1      43.375 -15.461   2.092  1.00  0.00     0.038 A 
HETATM   28  C   UNL     1      43.011 -14.343   2.901  1.00  0.00     0.019 A 
BRANCH  26  29
HETATM   29  N   UNL     1      42.882 -17.931   2.124  1.00  0.00    -0.322 N 
HETATM   30  C   UNL     1      43.697 -18.875   2.719  1.00  0.00     0.218 C 
HETATM   31  C   UNL     1      43.552 -20.240   2.096  1.00  0.00     0.117 C 
HETATM   32  O   UNL     1      44.501 -18.666   3.622  1.00  0.00    -0.274 OA
HETATM   33  H   UNL     1      42.307 -18.194   1.334  1.00  0.00     0.169 HD
ENDBRANCH  26  29
ENDBRANCH  23  24
ENDBRANCH   1  23
TORSDOF 8
ENDMDL
MODEL 5
REMARK VINA RESULT:      -7.7      2.005      2.825
REMARK  8 active torsions:
REMARK  status: ('A' for Active; 'I' for Inactive)
REMARK       I    between atoms: C_2  and  N_3 
REMARK    1  A    between atoms: N_3  and  C_4 
REMARK    2  A    between atoms: C_6  and  C_7 
REMARK    3  A    between atoms: C_7  and  N_8 
REMARK    4  A    between atoms: C_11  and  C_12 
REMARK    5  A    between atoms: C_14  and  S_15 
REMARK    6  A    between atoms: S_15  and  C_16 
REMARK    7  A    between atoms: C_16  and  C_17 
REMARK    8  A    between atoms: C_17  and  N_18 
ROOT
HETATM    1  N   UNL     1      44.359  -9.353   8.677  1.00  0.00    -0.066 N 
HETATM    2  H   UNL     1      44.505  -9.842   9.572  1.00  0.00     0.280 HD
HETATM    3  C   UNL     1      43.529 -10.268   7.789  1.00  0.00     0.246 C 
HETATM    4  C   UNL     1      44.291 -11.569   7.505  1.00  0.00     0.064 C 
HETATM    5  C   UNL     1      45.681 -11.283   6.919  1.00  0.00     0.014 C 
HETATM    6  C   UNL     1      46.469 -10.348   7.830  1.00  0.00     0.028 C 
HETATM    7  C   UNL     1      45.719  -9.051   8.092  1.00  0.00     0.235 C 
ENDROOT
BRANCH   4   8
HETATM    8  C   UNL     1      43.501 -12.529   6.640  1.00  0.00     0.044 A 
HETATM    9  N   UNL     1      42.535 -11.969   5.884  1.00  0.00    -0.227 NA
HETATM   10  C   UNL     1      41.769 -12.785   5.136  1.00  0.00     0.188 A 
HETATM   11  N   UNL     1      41.900 -14.116   5.084  1.00  0.00    -0.235 NA
HETATM   12  C   UNL     1      42.885 -14.643   5.834  1.00  0.00     0.121 A 
HETATM   13  C   UNL     1      43.717 -13.894   6.639  1.00  0.00     0.047 A 
BRANCH  10  14
HETATM   14  S   UNL     1      40.498 -12.015   4.168  1.00  0.00    -0.088 SA
BRANCH  14  15
HETATM   15  C   UNL     1      40.425 -13.170   2.762  1.00  0.00     0.110 C 
BRANCH  15  16
HETATM   16  C   UNL     1      41.610 -12.901   1.831  1.00  0.00     0.245 C 
BRANCH  16  17
HETATM   17  N   UNL     1      42.155 -14.187   1.235  1.00  0.00    -0.070 N 
HETATM   18  H   UNL     1      42.372 -14.011   0.243  1.00  0.00     0.279 HD
HETATM   19  C   UNL     1      41.140 -15.326   1.254  1.00  0.00     0.235 C 
HETATM   20  C   UNL     1      41.735 -16.352   2.196  1.00  0.00     0.029 C 
HETATM   21  C   UNL     1      43.223 -16.210   1.960  1.00  0.00     0.029 C 
HETATM   22  C   UNL     1      43.416 -14.709   1.906  1.00  0.00     0.235 C 
ENDBRANCH  16  17
ENDBRANCH  15  16
ENDBRANCH  14  15
ENDBRANCH  10  14
ENDBRANCH   4   8
BRANCH   1  23
HETATM   23  C   UNL     1      43.634  -8.062   9.035  1.00  0.00     0.280 C 
BRANCH  23  24
HETATM   24  C   UNL     1      43.270  -7.977  10.478  1.00  0.00     0.010 A 
HETATM   25  S   UNL     1      42.099  -6.838  11.005  1.00  0.00    -0.075 SA
HETATM   26  C   UNL     1      42.237  -7.346  12.618  1.00  0.00     0.076 A 
HETATM   27  C   UNL     1      43.160  -8.351  12.777  1.00  0.00     0.038 A 
HETATM   28  C   UNL     1      43.772  -8.709  11.539  1.00  0.00     0.019 A 
BRANCH  26  29
HETATM   29  N   UNL     1      41.422  -6.675  13.497  1.00  0.00    -0.322 N 
HETATM   30  C   UNL     1      40.143  -7.098  13.808  1.00  0.00     0.218 C 
HETATM   31  C   UNL     1      39.476  -6.218  14.833  1.00  0.00     0.117 C 
HETATM   32  O   UNL     1      39.555  -8.047  13.299  1.00  0.00    -0.274 OA
HETATM   33  H   UNL     1      41.786  -5.833  13.923  1.00  0.00     0.169 HD
ENDBRANCH  26  29
ENDBRANCH  23  24
ENDBRANCH   1  23
TORSDOF 8
ENDMDL
MODEL 6
REMARK VINA RESULT:      -7.6      4.349     10.865
REMARK  8 active torsions:
REMARK  status: ('A' for Active; 'I' for Inactive)
REMARK       I    between atoms: C_2  and  N_3 
REMARK    1  A    between atoms: N_3  and  C_4 
REMARK    2  A    between atoms: C_6  and  C_7 
REMARK    3  A    between atoms: C_7  and  N_8 
REMARK    4  A    between atoms: C_11  and  C_12 
REMARK    5  A    between atoms: C_14  and  S_15 
REMARK    6  A    between atoms: S_15  and  C_16 
REMARK    7  A    between atoms: C_16  and  C_17 
REMARK    8  A    between atoms: C_17  and  N_18 
ROOT
HETATM    1  N   UNL     1      41.814 -13.802   5.021  1.00  0.00    -0.066 N 
HETATM    2  H   UNL     1      42.463 -14.136   4.295  1.00  0.00     0.280 HD
HETATM    3  C   UNL     1      42.497 -12.652   5.748  1.00  0.00     0.246 C 
HETATM    4  C   UNL     1      43.776 -13.144   6.438  1.00  0.00     0.064 C 
HETATM    5  C   UNL     1      43.487 -14.335   7.362  1.00  0.00     0.014 C 
HETATM    6  C   UNL     1      42.785 -15.453   6.599  1.00  0.00     0.028 C 
HETATM    7  C   UNL     1      41.507 -14.967   5.933  1.00  0.00     0.235 C 
ENDROOT
BRANCH   4   8
HETATM    8  C   UNL     1      44.510 -12.034   7.161  1.00  0.00     0.044 A 
HETATM    9  N   UNL     1      44.031 -11.720   8.382  1.00  0.00    -0.227 NA
HETATM   10  C   UNL     1      44.616 -10.705   9.045  1.00  0.00     0.188 A 
HETATM   11  N   UNL     1      45.646  -9.986   8.582  1.00  0.00    -0.235 NA
HETATM   12  C   UNL     1      46.113 -10.335   7.369  1.00  0.00     0.121 A 
HETATM   13  C   UNL     1      45.579 -11.354   6.609  1.00  0.00     0.047 A 
BRANCH  10  14
HETATM   14  S   UNL     1      43.949 -10.309  10.640  1.00  0.00    -0.088 SA
BRANCH  14  15
HETATM   15  C   UNL     1      42.484  -9.350  10.142  1.00  0.00     0.110 C 
BRANCH  15  16
HETATM   16  C   UNL     1      42.564  -7.952  10.763  1.00  0.00     0.245 C 
BRANCH  16  17
HETATM   17  N   UNL     1      41.717  -7.849  12.019  1.00  0.00    -0.070 N 
HETATM   18  H   UNL     1      41.138  -7.001  11.943  1.00  0.00     0.279 HD
HETATM   19  C   UNL     1      42.553  -7.682  13.285  1.00  0.00     0.235 C 
HETATM   20  C   UNL     1      42.299  -8.947  14.079  1.00  0.00     0.029 C 
HETATM   21  C   UNL     1      40.859  -9.275  13.749  1.00  0.00     0.029 C 
HETATM   22  C   UNL     1      40.791  -9.032  12.255  1.00  0.00     0.235 C 
ENDBRANCH  16  17
ENDBRANCH  15  16
ENDBRANCH  14  15
ENDBRANCH  10  14
ENDBRANCH   4   8
BRANCH   1  23
HETATM   23  C   UNL     1      40.561 -13.365   4.274  1.00  0.00     0.280 C 
BRANCH  23  24
HETATM   24  C   UNL     1      40.444 -13.980   2.920  1.00  0.00     0.010 A 
HETATM   25  S   UNL     1      40.897 -13.085   1.527  1.00  0.00    -0.075 SA
HETATM   26  C   UNL     1      40.515 -14.376   0.495  1.00  0.00     0.076 A 
HETATM   27  C   UNL     1      40.038 -15.470   1.174  1.00  0.00     0.038 A 
HETATM   28  C   UNL     1      39.981 -15.238   2.581  1.00  0.00     0.019 A 
BRANCH  26  29
HETATM   29  N   UNL     1      40.733 -14.123  -0.837  1.00  0.00    -0.322 N 
HETATM   30  C   UNL     1      39.781 -13.546  -1.657  1.00  0.00     0.218 C 
HETATM   31  C   UNL     1      40.282 -13.329  -3.062  1.00  0.00     0.117 C 
HETATM   32  O   UNL     1      38.629 -13.269  -1.339  1.00  0.00    -0.274 OA
HETATM   33  H   UNL     1      41.632 -14.380  -1.221  1.00  0.00     0.169 HD
ENDBRANCH  26  29
ENDBRANCH  23  24
ENDBRANCH   1  23
TORSDOF 8
ENDMDL
MODEL 7
REMARK VINA RESULT:      -7.6      1.357      1.471
REMARK  8 active torsions:
REMARK  status: ('A' for Active; 'I' for Inactive)
REMARK       I    between atoms: C_2  and  N_3 
REMARK    1  A    between atoms: N_3  and  C_4 
REMARK    2  A    between atoms: C_6  and  C_7 
REMARK    3  A    between atoms: C_7  and  N_8 
REMARK    4  A    between atoms: C_11  and  C_12 
REMARK    5  A    between atoms: C_14  and  S_15 
REMARK    6  A    between atoms: S_15  and  C_16 
REMARK    7  A    between atoms: C_16  and  C_17 
REMARK    8  A    between atoms: C_17  and  N_18 
ROOT
HETATM    1  N   UNL     1      44.131  -9.490   8.664  1.00  0.00    -0.066 N 
HETATM    2  H   UNL     1      44.100 -10.203   9.405  1.00  0.00     0.280 HD
HETATM    3  C   UNL     1      43.432 -10.070   7.444  1.00  0.00     0.246 C 
HETATM    4  C   UNL     1      44.178 -11.314   6.943  1.00  0.00     0.064 C 
HETATM    5  C   UNL     1      45.659 -11.007   6.682  1.00  0.00     0.014 C 
HETATM    6  C   UNL     1      46.315 -10.408   7.922  1.00  0.00     0.028 C 
HETATM    7  C   UNL     1      45.584  -9.164   8.402  1.00  0.00     0.235 C 
ENDROOT
BRANCH   4   8
HETATM    8  C   UNL     1      43.512 -11.947   5.740  1.00  0.00     0.044 A 
HETATM    9  N   UNL     1      42.589 -12.891   6.017  1.00  0.00    -0.227 NA
HETATM   10  C   UNL     1      42.004 -13.521   4.981  1.00  0.00     0.188 A 
HETATM   11  N   UNL     1      42.268 -13.275   3.692  1.00  0.00    -0.235 NA
HETATM   12  C   UNL     1      43.179 -12.315   3.448  1.00  0.00     0.121 A 
HETATM   13  C   UNL     1      43.838 -11.618   4.438  1.00  0.00     0.047 A 
BRANCH  10  14
HETATM   14  S   UNL     1      40.809 -14.768   5.383  1.00  0.00    -0.088 SA
BRANCH  14  15
HETATM   15  C   UNL     1      41.499 -16.179   4.462  1.00  0.00     0.110 C 
BRANCH  15  16
HETATM   16  C   UNL     1      42.815 -16.609   5.115  1.00  0.00     0.245 C 
BRANCH  16  17
HETATM   17  N   UNL     1      43.747 -17.269   4.114  1.00  0.00    -0.070 N 
HETATM   18  H   UNL     1      44.663 -16.801   4.175  1.00  0.00     0.279 HD
HETATM   19  C   UNL     1      43.279 -17.104   2.671  1.00  0.00     0.235 C 
HETATM   20  C   UNL     1      42.951 -18.509   2.213  1.00  0.00     0.029 C 
HETATM   21  C   UNL     1      43.969 -19.354   2.947  1.00  0.00     0.029 C 
HETATM   22  C   UNL     1      43.963 -18.758   4.339  1.00  0.00     0.235 C 
ENDBRANCH  16  17
ENDBRANCH  15  16
ENDBRANCH  14  15
ENDBRANCH  10  14
ENDBRANCH   4   8
BRANCH   1  23
HETATM   23  C   UNL     1      43.409  -8.278   9.237  1.00  0.00     0.280 C 
BRANCH  23  24
HETATM   24  C   UNL     1      43.002  -8.460  10.660  1.00  0.00     0.010 A 
HETATM   25  S   UNL     1      41.832  -7.417  11.361  1.00  0.00    -0.075 SA
HETATM   26  C   UNL     1      41.913  -8.223  12.852  1.00  0.00     0.076 A 
HETATM   27  C   UNL     1      42.816  -9.258  12.843  1.00  0.00     0.038 A 
HETATM   28  C   UNL     1      43.461  -9.389  11.576  1.00  0.00     0.019 A 
BRANCH  26  29
HETATM   29  N   UNL     1      41.082  -7.714  13.819  1.00  0.00    -0.322 N 
HETATM   30  C   UNL     1      41.550  -7.092  14.961  1.00  0.00     0.218 C 
HETATM   31  C   UNL     1      40.438  -6.578  15.839  1.00  0.00     0.117 C 
HETATM   32  O   UNL     1      42.727  -6.987  15.292  1.00  0.00    -0.274 OA
HETATM   33  H   UNL     1      40.085  -7.812  13.678  1.00  0.00     0.169 HD
ENDBRANCH  26  29
ENDBRANCH  23  24
ENDBRANCH   1  23
TORSDOF 8
ENDMDL
MODEL 8
REMARK VINA RESULT:      -7.6      3.561     10.875
REMARK  8 active torsions:
REMARK  status: ('A' for Active; 'I' for Inactive)
REMARK       I    between atoms: C_2  and  N_3 
REMARK    1  A    between atoms: N_3  and  C_4 
REMARK    2  A    between atoms: C_6  and  C_7 
REMARK    3  A    between atoms: C_7  and  N_8 
REMARK    4  A    between atoms: C_11  and  C_12 
REMARK    5  A    between atoms: C_14  and  S_15 
REMARK    6  A    between atoms: S_15  and  C_16 
REMARK    7  A    between atoms: C_16  and  C_17 
REMARK    8  A    between atoms: C_17  and  N_18 
ROOT
HETATM    1  N   UNL     1      42.001 -13.580   4.277  1.00  0.00    -0.066 N 
HETATM    2  H   UNL     1      41.896 -14.405   4.884  1.00  0.00     0.280 HD
HETATM    3  C   UNL     1      43.119 -12.726   4.859  1.00  0.00     0.246 C 
HETATM    4  C   UNL     1      42.740 -12.240   6.264  1.00  0.00     0.064 C 
HETATM    5  C   UNL     1      41.389 -11.514   6.257  1.00  0.00     0.014 C 
HETATM    6  C   UNL     1      40.304 -12.396   5.647  1.00  0.00     0.028 C 
HETATM    7  C   UNL     1      40.674 -12.859   4.247  1.00  0.00     0.235 C 
ENDROOT
BRANCH   4   8
HETATM    8  C   UNL     1      43.829 -11.401   6.901  1.00  0.00     0.044 A 
HETATM    9  N   UNL     1      43.403 -10.313   7.575  1.00  0.00    -0.227 NA
HETATM   10  C   UNL     1      44.334  -9.505   8.116  1.00  0.00     0.188 A 
HETATM   11  N   UNL     1      45.655  -9.707   8.040  1.00  0.00    -0.235 NA
HETATM   12  C   UNL     1      46.048 -10.812   7.378  1.00  0.00     0.121 A 
HETATM   13  C   UNL     1      45.173 -11.696   6.783  1.00  0.00     0.047 A 
BRANCH  10  14
HETATM   14  S   UNL     1      43.739  -8.075   8.979  1.00  0.00    -0.088 SA
BRANCH  14  15
HETATM   15  C   UNL     1      42.028  -8.596   9.318  1.00  0.00     0.110 C 
BRANCH  15  16
HETATM   16  C   UNL     1      41.338  -7.527  10.169  1.00  0.00     0.245 C 
BRANCH  16  17
HETATM   17  N   UNL     1      41.237  -7.949  11.624  1.00  0.00    -0.070 N 
HETATM   18  H   UNL     1      40.253  -7.859  11.915  1.00  0.00     0.279 HD
HETATM   19  C   UNL     1      42.042  -7.051  12.559  1.00  0.00     0.235 C 
HETATM   20  C   UNL     1      43.125  -7.951  13.116  1.00  0.00     0.029 C 
HETATM   21  C   UNL     1      42.438  -9.296  13.207  1.00  0.00     0.029 C 
HETATM   22  C   UNL     1      41.679  -9.379  11.899  1.00  0.00     0.235 C 
ENDBRANCH  16  17
ENDBRANCH  15  16
ENDBRANCH  14  15
ENDBRANCH  10  14
ENDBRANCH   4   8
BRANCH   1  23
HETATM   23  C   UNL     1      42.338 -14.133   2.898  1.00  0.00     0.280 C 
BRANCH  23  24
HETATM   24  C   UNL     1      42.832 -15.540   2.939  1.00  0.00     0.010 A 
HETATM   25  S   UNL     1      43.112 -16.311   4.447  1.00  0.00    -0.075 SA
HETATM   26  C   UNL     1      43.596 -17.751   3.693  1.00  0.00     0.076 A 
HETATM   27  C   UNL     1      43.567 -17.665   2.322  1.00  0.00     0.038 A 
HETATM   28  C   UNL     1      43.138 -16.377   1.882  1.00  0.00     0.019 A 
BRANCH  26  29
HETATM   29  N   UNL     1      43.945 -18.757   4.560  1.00  0.00    -0.322 N 
HETATM   30  C   UNL     1      43.938 -20.093   4.204  1.00  0.00     0.218 C 
HETATM   31  C   UNL     1      44.407 -20.992   5.318  1.00  0.00     0.117 C 
HETATM   32  O   UNL     1      43.557 -20.550   3.131  1.00  0.00    -0.274 OA
HETATM   33  H   UNL     1      44.210 -18.494   5.500  1.00  0.00     0.169 HD
ENDBRANCH  26  29
ENDBRANCH  23  24
ENDBRANCH   1  23
TORSDOF 8
ENDMDL
MODEL 9
REMARK VINA RESULT:      -7.4      1.880      2.360
REMARK  8 active torsions:
REMARK  status: ('A' for Active; 'I' for Inactive)
REMARK       I    between atoms: C_2  and  N_3 
REMARK    1  A    between atoms: N_3  and  C_4 
REMARK    2  A    between atoms: C_6  and  C_7 
REMARK    3  A    between atoms: C_7  and  N_8 
REMARK    4  A    between atoms: C_11  and  C_12 
REMARK    5  A    between atoms: C_14  and  S_15 
REMARK    6  A    between atoms: S_15  and  C_16 
REMARK    7  A    between atoms: C_16  and  C_17 
REMARK    8  A    between atoms: C_17  and  N_18 
ROOT
HETATM    1  N   UNL     1      44.220  -9.914   8.532  1.00  0.00    -0.066 N 
HETATM    2  H   UNL     1      44.360 -10.634   9.254  1.00  0.00     0.280 HD
HETATM    3  C   UNL     1      43.201 -10.456   7.539  1.00  0.00     0.246 C 
HETATM    4  C   UNL     1      43.744 -11.719   6.857  1.00  0.00     0.064 C 
HETATM    5  C   UNL     1      45.112 -11.459   6.212  1.00  0.00     0.014 C 
HETATM    6  C   UNL     1      46.094 -10.898   7.235  1.00  0.00     0.028 C 
HETATM    7  C   UNL     1      45.561  -9.635   7.895  1.00  0.00     0.235 C 
ENDROOT
BRANCH   4   8
HETATM    8  C   UNL     1      42.760 -12.316   5.872  1.00  0.00     0.044 A 
HETATM    9  N   UNL     1      43.299 -12.802   4.735  1.00  0.00    -0.227 NA
HETATM   10  C   UNL     1      42.462 -13.297   3.804  1.00  0.00     0.188 A 
HETATM   11  N   UNL     1      41.129 -13.347   3.927  1.00  0.00    -0.235 NA
HETATM   12  C   UNL     1      40.624 -12.871   5.080  1.00  0.00     0.121 A 
HETATM   13  C   UNL     1      41.395 -12.338   6.090  1.00  0.00     0.047 A 
BRANCH  10  14
HETATM   14  S   UNL     1      43.204 -13.912   2.316  1.00  0.00    -0.088 SA
BRANCH  14  15
HETATM   15  C   UNL     1      42.212 -15.418   2.064  1.00  0.00     0.110 C 
BRANCH  15  16
HETATM   16  C   UNL     1      43.152 -16.615   1.899  1.00  0.00     0.245 C 
BRANCH  16  17
HETATM   17  N   UNL     1      42.971 -17.626   3.018  1.00  0.00    -0.070 N 
HETATM   18  H   UNL     1      42.032 -18.039   2.926  1.00  0.00     0.279 HD
HETATM   19  C   UNL     1      43.022 -16.989   4.405  1.00  0.00     0.235 C 
HETATM   20  C   UNL     1      44.265 -17.571   5.046  1.00  0.00     0.029 C 
HETATM   21  C   UNL     1      44.319 -18.972   4.478  1.00  0.00     0.029 C 
HETATM   22  C   UNL     1      43.987 -18.758   3.016  1.00  0.00     0.235 C 
ENDBRANCH  16  17
ENDBRANCH  15  16
ENDBRANCH  14  15
ENDBRANCH  10  14
ENDBRANCH   4   8
BRANCH   1  23
HETATM   23  C   UNL     1      43.719  -8.685   9.278  1.00  0.00     0.280 C 
BRANCH  23  24
HETATM   24  C   UNL     1      43.242  -8.993  10.657  1.00  0.00     0.010 A 
HETATM   25  S   UNL     1      42.286  -7.852  11.513  1.00  0.00    -0.075 SA
HETATM   26  C   UNL     1      42.160  -8.874  12.861  1.00  0.00     0.076 A 
HETATM   27  C   UNL     1      42.835 -10.058  12.691  1.00  0.00     0.038 A 
HETATM   28  C   UNL     1      43.477 -10.123  11.418  1.00  0.00     0.019 A 
BRANCH  26  29
HETATM   29  N   UNL     1      41.420  -8.358  13.897  1.00  0.00    -0.322 N 
HETATM   30  C   UNL     1      41.937  -7.468  14.819  1.00  0.00     0.218 C 
HETATM   31  C   UNL     1      40.911  -7.015  15.826  1.00  0.00     0.117 C 
HETATM   32  O   UNL     1      43.105  -7.096  14.884  1.00  0.00    -0.274 OA
HETATM   33  H   UNL     1      40.457  -8.657  13.978  1.00  0.00     0.169 HD
ENDBRANCH  26  29
ENDBRANCH  23  24
ENDBRANCH   1  23
TORSDOF 8
ENDMDL
MODEL 10
REMARK VINA RESULT:      -7.2      6.265      9.639
REMARK  8 active torsions:
REMARK  status: ('A' for Active; 'I' for Inactive)
REMARK       I    between atoms: C_2  and  N_3 
REMARK    1  A    between atoms: N_3  and  C_4 
REMARK    2  A    between atoms: C_6  and  C_7 
REMARK    3  A    between atoms: C_7  and  N_8 
REMARK    4  A    between atoms: C_11  and  C_12 
REMARK    5  A    between atoms: C_14  and  S_15 
REMARK    6  A    between atoms: S_15  and  C_16 
REMARK    7  A    between atoms: C_16  and  C_17 
REMARK    8  A    between atoms: C_17  and  N_18 
ROOT
HETATM    1  N   UNL     1      41.803 -13.931   2.641  1.00  0.00    -0.066 N 
HETATM    2  H   UNL     1      41.096 -13.363   3.128  1.00  0.00     0.280 HD
HETATM    3  C   UNL     1      41.587 -13.744   1.146  1.00  0.00     0.246 C 
HETATM    4  C   UNL     1      40.199 -14.258   0.741  1.00  0.00     0.064 C 
HETATM    5  C   UNL     1      39.992 -15.711   1.187  1.00  0.00     0.014 C 
HETATM    6  C   UNL     1      40.239 -15.857   2.685  1.00  0.00     0.028 C 
HETATM    7  C   UNL     1      41.623 -15.366   3.080  1.00  0.00     0.235 C 
ENDROOT
BRANCH   4   8
HETATM    8  C   UNL     1      39.921 -14.076  -0.737  1.00  0.00     0.044 A 
HETATM    9  N   UNL     1      40.420 -12.950  -1.288  1.00  0.00    -0.227 NA
HETATM   10  C   UNL     1      40.156 -12.716  -2.586  1.00  0.00     0.188 A 
HETATM   11  N   UNL     1      39.438 -13.524  -3.376  1.00  0.00    -0.235 NA
HETATM   12  C   UNL     1      38.970 -14.648  -2.803  1.00  0.00     0.121 A 
HETATM   13  C   UNL     1      39.179 -14.975  -1.479  1.00  0.00     0.047 A 
BRANCH  10  14
HETATM   14  S   UNL     1      40.813 -11.218  -3.272  1.00  0.00    -0.088 SA
BRANCH  14  15
HETATM   15  C   UNL     1      41.236 -10.327  -1.742  1.00  0.00     0.110 C 
BRANCH  15  16
HETATM   16  C   UNL     1      40.357  -9.079  -1.629  1.00  0.00     0.245 C 
BRANCH  16  17
HETATM   17  N   UNL     1      41.191  -7.813  -1.534  1.00  0.00    -0.070 N 
HETATM   18  H   UNL     1      40.732  -7.179  -0.865  1.00  0.00     0.279 HD
HETATM   19  C   UNL     1      41.271  -7.055  -2.856  1.00  0.00     0.235 C 
HETATM   20  C   UNL     1      42.730  -7.133  -3.254  1.00  0.00     0.029 C 
HETATM   21  C   UNL     1      43.449  -7.099  -1.923  1.00  0.00     0.029 C 
HETATM   22  C   UNL     1      42.622  -8.034  -1.066  1.00  0.00     0.235 C 
ENDBRANCH  16  17
ENDBRANCH  15  16
ENDBRANCH  14  15
ENDBRANCH  10  14
ENDBRANCH   4   8
BRANCH   1  23
HETATM   23  C   UNL     1      43.148 -13.395   3.114  1.00  0.00     0.280 C 
BRANCH  23  24
HETATM   24  C   UNL     1      43.197 -13.158   4.585  1.00  0.00     0.010 A 
HETATM   25  S   UNL     1      43.155 -11.555   5.201  1.00  0.00    -0.075 SA
HETATM   26  C   UNL     1      43.228 -12.102   6.805  1.00  0.00     0.076 A 
HETATM   27  C   UNL     1      43.298 -13.471   6.894  1.00  0.00     0.038 A 
HETATM   28  C   UNL     1      43.295 -14.086   5.606  1.00  0.00     0.019 A 
BRANCH  26  29
HETATM   29  N   UNL     1      43.215 -11.103   7.747  1.00  0.00    -0.322 N 
HETATM   30  C   UNL     1      44.351 -10.681   8.412  1.00  0.00     0.218 C 
HETATM   31  C   UNL     1      44.079  -9.540   9.357  1.00  0.00     0.117 C 
HETATM   32  O   UNL     1      45.468 -11.179   8.314  1.00  0.00    -0.274 OA
HETATM   33  H   UNL     1      42.325 -10.669   7.957  1.00  0.00     0.169 HD
ENDBRANCH  26  29
ENDBRANCH  23  24
ENDBRANCH   1  23
TORSDOF 8
ENDMDL
