MODEL 1
REMARK VINA RESULT:      -8.2      0.000      0.000
REMARK  5 active torsions:
REMARK  status: ('A' for Active; 'I' for Inactive)
REMARK    1  A    between atoms: C_3  and  N_4 
REMARK       I    between atoms: N_4  and  C_5 
REMARK    2  A    between atoms: C_5  and  C_6 
REMARK    3  A    between atoms: C_6  and  N_7 
REMARK       I    between atoms: N_7  and  C_8 
REMARK    4  A    between atoms: C_8  and  C_9 
REMARK    5  A    between atoms: C_10  and  C_11 
ROOT
HETATM    1  N   UNL     1      44.599 -17.033   5.452  1.00  0.00    -0.348 N 
HETATM    2  C   UNL     1      43.856 -18.190   5.479  1.00  0.00     0.255 C 
HETATM    3  O   UNL     1      43.401 -18.650   6.521  1.00  0.00    -0.268 OA
HETATM    4  H   UNL     1      45.038 -16.756   4.585  1.00  0.00     0.163 HD
ENDROOT
BRANCH   1   5
HETATM    5  C   UNL     1      44.714 -16.139   6.590  1.00  0.00     0.226 C 
BRANCH   5   6
HETATM    6  C   UNL     1      43.564 -15.137   6.764  1.00  0.00     0.239 C 
HETATM    7  N   UNL     1      42.917 -14.839   5.574  1.00  0.00    -0.325 N 
HETATM    8  H   UNL     1      43.433 -15.121   4.740  1.00  0.00     0.169 HD
HETATM    9  O   UNL     1      43.386 -14.579   7.843  1.00  0.00    -0.271 OA
BRANCH   7  10
HETATM   10  C   UNL     1      41.974 -13.798   5.407  1.00  0.00     0.046 A 
HETATM   11  C   UNL     1      40.635 -14.063   5.784  1.00  0.00    -0.035 A 
HETATM   12  C   UNL     1      40.196 -15.408   6.303  1.00  0.00     0.050 C 
HETATM   13  C   UNL     1      39.661 -13.062   5.639  1.00  0.00     0.009 A 
HETATM   14  C   UNL     1      39.996 -11.815   5.125  1.00  0.00     0.001 A 
HETATM   15  C   UNL     1      41.315 -11.546   4.774  1.00  0.00     0.009 A 
HETATM   16  C   UNL     1      42.323 -12.516   4.933  1.00  0.00    -0.035 A 
HETATM   17  C   UNL     1      43.731 -12.087   4.615  1.00  0.00     0.050 C 
ENDBRANCH   7  10
ENDBRANCH   5   6
ENDBRANCH   1   5
BRANCH   2  18
HETATM   18  C   UNL     1      43.672 -18.795   4.173  1.00  0.00     0.080 A 
HETATM   19  C   UNL     1      43.183 -18.248   2.940  1.00  0.00     0.104 A 
HETATM   20  N   UNL     1      43.247 -19.178   1.966  1.00  0.00    -0.174 NA
HETATM   21  N   UNL     1      43.757 -20.266   2.544  1.00  0.00    -0.288 N 
HETATM   22  H   UNL     1      43.910 -21.088   1.969  1.00  0.00     0.188 HD
HETATM   23  C   UNL     1      44.010 -20.104   3.868  1.00  0.00     0.128 A 
BRANCH  19  24
HETATM   24  C   UNL     1      42.621 -16.924   2.625  1.00  0.00    -0.004 A 
HETATM   25  C   UNL     1      41.248 -16.652   2.698  1.00  0.00     0.017 A 
HETATM   26  C   UNL     1      40.749 -15.392   2.342  1.00  0.00     0.043 A 
HETATM   27  C   UNL     1      41.618 -14.403   1.900  1.00  0.00     0.116 A 
HETATM   28  F   UNL     1      41.136 -13.205   1.546  1.00  0.00    -0.206 F 
HETATM   29  C   UNL     1      42.981 -14.645   1.810  1.00  0.00     0.043 A 
HETATM   30  C   UNL     1      43.479 -15.900   2.172  1.00  0.00     0.017 A 
ENDBRANCH  19  24
ENDBRANCH   2  18
TORSDOF 5
ENDMDL
MODEL 2
REMARK VINA RESULT:      -8.0      4.389      7.920
REMARK  5 active torsions:
REMARK  status: ('A' for Active; 'I' for Inactive)
REMARK    1  A    between atoms: C_3  and  N_4 
REMARK       I    between atoms: N_4  and  C_5 
REMARK    2  A    between atoms: C_5  and  C_6 
REMARK    3  A    between atoms: C_6  and  N_7 
REMARK       I    between atoms: N_7  and  C_8 
REMARK    4  A    between atoms: C_8  and  C_9 
REMARK    5  A    between atoms: C_10  and  C_11 
ROOT
HETATM    1  N   UNL     1      42.809 -12.106   6.083  1.00  0.00    -0.348 N 
HETATM    2  C   UNL     1      43.700 -12.474   7.064  1.00  0.00     0.255 C 
HETATM    3  O   UNL     1      43.627 -13.555   7.640  1.00  0.00    -0.268 OA
HETATM    4  H   UNL     1      42.850 -11.165   5.716  1.00  0.00     0.163 HD
ENDROOT
BRANCH   1   5
HETATM    5  C   UNL     1      41.866 -13.031   5.482  1.00  0.00     0.226 C 
BRANCH   5   6
HETATM    6  C   UNL     1      42.462 -14.025   4.476  1.00  0.00     0.239 C 
HETATM    7  N   UNL     1      42.174 -15.347   4.779  1.00  0.00    -0.325 N 
HETATM    8  H   UNL     1      41.831 -15.488   5.730  1.00  0.00     0.169 HD
HETATM    9  O   UNL     1      43.233 -13.636   3.602  1.00  0.00    -0.271 OA
BRANCH   7  10
HETATM   10  C   UNL     1      42.769 -16.468   4.153  1.00  0.00     0.046 A 
HETATM   11  C   UNL     1      43.800 -17.137   4.857  1.00  0.00    -0.035 A 
HETATM   12  C   UNL     1      44.294 -16.666   6.201  1.00  0.00     0.050 C 
HETATM   13  C   UNL     1      44.422 -18.256   4.280  1.00  0.00     0.009 A 
HETATM   14  C   UNL     1      44.039 -18.710   3.024  1.00  0.00     0.001 A 
HETATM   15  C   UNL     1      43.013 -18.067   2.341  1.00  0.00     0.009 A 
HETATM   16  C   UNL     1      42.347 -16.961   2.901  1.00  0.00    -0.035 A 
HETATM   17  C   UNL     1      41.187 -16.402   2.121  1.00  0.00     0.050 C 
ENDBRANCH   7  10
ENDBRANCH   5   6
ENDBRANCH   1   5
BRANCH   2  18
HETATM   18  C   UNL     1      44.712 -11.472   7.340  1.00  0.00     0.080 A 
HETATM   19  C   UNL     1      44.826 -10.516   8.404  1.00  0.00     0.104 A 
HETATM   20  N   UNL     1      45.978  -9.825   8.281  1.00  0.00    -0.174 NA
HETATM   21  N   UNL     1      46.575 -10.319   7.196  1.00  0.00    -0.288 N 
HETATM   22  H   UNL     1      47.482  -9.945   6.935  1.00  0.00     0.188 HD
HETATM   23  C   UNL     1      45.855 -11.290   6.579  1.00  0.00     0.128 A 
BRANCH  19  24
HETATM   24  C   UNL     1      43.908 -10.178   9.504  1.00  0.00    -0.004 A 
HETATM   25  C   UNL     1      44.152 -10.557  10.832  1.00  0.00     0.017 A 
HETATM   26  C   UNL     1      43.229 -10.259  11.842  1.00  0.00     0.043 A 
HETATM   27  C   UNL     1      42.053  -9.590  11.528  1.00  0.00     0.116 A 
HETATM   28  F   UNL     1      41.166  -9.320  12.495  1.00  0.00    -0.206 F 
HETATM   29  C   UNL     1      41.780  -9.209  10.224  1.00  0.00     0.043 A 
HETATM   30  C   UNL     1      42.704  -9.500   9.217  1.00  0.00     0.017 A 
ENDBRANCH  19  24
ENDBRANCH   2  18
TORSDOF 5
ENDMDL
MODEL 3
REMARK VINA RESULT:      -8.0      4.447      7.915
REMARK  5 active torsions:
REMARK  status: ('A' for Active; 'I' for Inactive)
REMARK    1  A    between atoms: C_3  and  N_4 
REMARK       I    between atoms: N_4  and  C_5 
REMARK    2  A    between atoms: C_5  and  C_6 
REMARK    3  A    between atoms: C_6  and  N_7 
REMARK       I    between atoms: N_7  and  C_8 
REMARK    4  A    between atoms: C_8  and  C_9 
REMARK    5  A    between atoms: C_10  and  C_11 
ROOT
HETATM    1  N   UNL     1      42.734 -12.057   6.171  1.00  0.00    -0.348 N 
HETATM    2  C   UNL     1      43.673 -12.461   7.090  1.00  0.00     0.255 C 
HETATM    3  O   UNL     1      43.660 -13.583   7.587  1.00  0.00    -0.268 OA
HETATM    4  H   UNL     1      42.727 -11.091   5.874  1.00  0.00     0.163 HD
ENDROOT
BRANCH   1   5
HETATM    5  C   UNL     1      41.802 -12.972   5.536  1.00  0.00     0.226 C 
BRANCH   5   6
HETATM    6  C   UNL     1      42.424 -13.975   4.555  1.00  0.00     0.239 C 
HETATM    7  N   UNL     1      42.093 -15.291   4.839  1.00  0.00    -0.325 N 
HETATM    8  H   UNL     1      41.701 -15.428   5.771  1.00  0.00     0.169 HD
HETATM    9  O   UNL     1      43.244 -13.601   3.721  1.00  0.00    -0.271 OA
BRANCH   7  10
HETATM   10  C   UNL     1      42.692 -16.423   4.237  1.00  0.00     0.046 A 
HETATM   11  C   UNL     1      42.175 -16.850   2.990  1.00  0.00    -0.035 A 
HETATM   12  C   UNL     1      41.002 -16.171   2.330  1.00  0.00     0.050 C 
HETATM   13  C   UNL     1      42.736 -17.967   2.351  1.00  0.00     0.009 A 
HETATM   14  C   UNL     1      43.790 -18.661   2.932  1.00  0.00     0.001 A 
HETATM   15  C   UNL     1      44.313 -18.231   4.147  1.00  0.00     0.009 A 
HETATM   16  C   UNL     1      43.795 -17.097   4.802  1.00  0.00    -0.035 A 
HETATM   17  C   UNL     1      44.498 -16.662   6.060  1.00  0.00     0.050 C 
ENDBRANCH   7  10
ENDBRANCH   5   6
ENDBRANCH   1   5
BRANCH   2  18
HETATM   18  C   UNL     1      44.657 -11.443   7.405  1.00  0.00     0.080 A 
HETATM   19  C   UNL     1      44.723 -10.495   8.480  1.00  0.00     0.104 A 
HETATM   20  N   UNL     1      45.866  -9.783   8.398  1.00  0.00    -0.174 NA
HETATM   21  N   UNL     1      46.503 -10.256   7.326  1.00  0.00    -0.288 N 
HETATM   22  H   UNL     1      47.410  -9.863   7.096  1.00  0.00     0.188 HD
HETATM   23  C   UNL     1      45.819 -11.234   6.680  1.00  0.00     0.128 A 
BRANCH  19  24
HETATM   24  C   UNL     1      43.767 -10.185   9.557  1.00  0.00    -0.004 A 
HETATM   25  C   UNL     1      42.596  -9.447   9.333  1.00  0.00     0.017 A 
HETATM   26  C   UNL     1      41.737  -9.131  10.393  1.00  0.00     0.043 A 
HETATM   27  C   UNL     1      42.051  -9.540  11.683  1.00  0.00     0.116 A 
HETATM   28  F   UNL     1      41.234  -9.223  12.696  1.00  0.00    -0.206 F 
HETATM   29  C   UNL     1      43.206 -10.264  11.936  1.00  0.00     0.043 A 
HETATM   30  C   UNL     1      44.059 -10.586  10.877  1.00  0.00     0.017 A 
ENDBRANCH  19  24
ENDBRANCH   2  18
TORSDOF 5
ENDMDL
MODEL 4
REMARK VINA RESULT:      -7.9      3.181      5.475
REMARK  5 active torsions:
REMARK  status: ('A' for Active; 'I' for Inactive)
REMARK    1  A    between atoms: C_3  and  N_4 
REMARK       I    between atoms: N_4  and  C_5 
REMARK    2  A    between atoms: C_5  and  C_6 
REMARK    3  A    between atoms: C_6  and  N_7 
REMARK       I    between atoms: N_7  and  C_8 
REMARK    4  A    between atoms: C_8  and  C_9 
REMARK    5  A    between atoms: C_10  and  C_11 
ROOT
HETATM    1  N   UNL     1      41.142 -13.725   4.886  1.00  0.00    -0.348 N 
HETATM    2  C   UNL     1      42.404 -14.269   4.829  1.00  0.00     0.255 C 
HETATM    3  O   UNL     1      43.220 -13.938   3.975  1.00  0.00    -0.268 OA
HETATM    4  H   UNL     1      40.476 -14.109   5.543  1.00  0.00     0.163 HD
ENDROOT
BRANCH   1   5
HETATM    5  C   UNL     1      40.744 -12.564   4.110  1.00  0.00     0.226 C 
BRANCH   5   6
HETATM    6  C   UNL     1      40.019 -12.867   2.791  1.00  0.00     0.239 C 
HETATM    7  N   UNL     1      40.872 -13.296   1.787  1.00  0.00    -0.325 N 
HETATM    8  H   UNL     1      41.859 -13.119   1.977  1.00  0.00     0.169 HD
HETATM    9  O   UNL     1      38.829 -12.590   2.660  1.00  0.00    -0.271 OA
BRANCH   7  10
HETATM   10  C   UNL     1      40.511 -13.436   0.425  1.00  0.00     0.046 A 
HETATM   11  C   UNL     1      39.986 -14.685   0.015  1.00  0.00    -0.035 A 
HETATM   12  C   UNL     1      39.848 -15.851   0.961  1.00  0.00     0.050 C 
HETATM   13  C   UNL     1      39.611 -14.875  -1.324  1.00  0.00     0.009 A 
HETATM   14  C   UNL     1      39.755 -13.852  -2.253  1.00  0.00     0.001 A 
HETATM   15  C   UNL     1      40.252 -12.618  -1.847  1.00  0.00     0.009 A 
HETATM   16  C   UNL     1      40.609 -12.382  -0.506  1.00  0.00    -0.035 A 
HETATM   17  C   UNL     1      41.042 -10.983  -0.157  1.00  0.00     0.050 C 
ENDBRANCH   7  10
ENDBRANCH   5   6
ENDBRANCH   1   5
BRANCH   2  18
HETATM   18  C   UNL     1      42.662 -15.254   5.862  1.00  0.00     0.080 A 
HETATM   19  C   UNL     1      43.056 -16.631   5.775  1.00  0.00     0.104 A 
HETATM   20  N   UNL     1      43.239 -17.137   7.012  1.00  0.00    -0.174 NA
HETATM   21  N   UNL     1      42.981 -16.133   7.850  1.00  0.00    -0.288 N 
HETATM   22  H   UNL     1      43.083 -16.301   8.845  1.00  0.00     0.188 HD
HETATM   23  C   UNL     1      42.609 -14.989   7.221  1.00  0.00     0.128 A 
BRANCH  19  24
HETATM   24  C   UNL     1      43.233 -17.515   4.611  1.00  0.00    -0.004 A 
HETATM   25  C   UNL     1      42.694 -17.217   3.351  1.00  0.00     0.017 A 
HETATM   26  C   UNL     1      42.844 -18.108   2.281  1.00  0.00     0.043 A 
HETATM   27  C   UNL     1      43.522 -19.306   2.468  1.00  0.00     0.116 A 
HETATM   28  F   UNL     1      43.650 -20.162   1.446  1.00  0.00    -0.206 F 
HETATM   29  C   UNL     1      44.060 -19.631   3.704  1.00  0.00     0.043 A 
HETATM   30  C   UNL     1      43.917 -18.739   4.769  1.00  0.00     0.017 A 
ENDBRANCH  19  24
ENDBRANCH   2  18
TORSDOF 5
ENDMDL
MODEL 5
REMARK VINA RESULT:      -7.7      3.213      5.599
REMARK  5 active torsions:
REMARK  status: ('A' for Active; 'I' for Inactive)
REMARK    1  A    between atoms: C_3  and  N_4 
REMARK       I    between atoms: N_4  and  C_5 
REMARK    2  A    between atoms: C_5  and  C_6 
REMARK    3  A    between atoms: C_6  and  N_7 
REMARK       I    between atoms: N_7  and  C_8 
REMARK    4  A    between atoms: C_8  and  C_9 
REMARK    5  A    between atoms: C_10  and  C_11 
ROOT
HETATM    1  N   UNL     1      39.134 -12.529   3.316  1.00  0.00    -0.348 N 
HETATM    2  C   UNL     1      39.784 -12.014   2.220  1.00  0.00     0.255 C 
HETATM    3  O   UNL     1      40.399 -10.953   2.264  1.00  0.00    -0.268 OA
HETATM    4  H   UNL     1      38.556 -13.351   3.197  1.00  0.00     0.163 HD
ENDROOT
BRANCH   1   5
HETATM    5  C   UNL     1      39.305 -12.004   4.659  1.00  0.00     0.226 C 
BRANCH   5   6
HETATM    6  C   UNL     1      40.107 -12.893   5.620  1.00  0.00     0.239 C 
HETATM    7  N   UNL     1      41.191 -13.511   5.014  1.00  0.00    -0.325 N 
HETATM    8  H   UNL     1      41.162 -13.491   3.994  1.00  0.00     0.169 HD
HETATM    9  O   UNL     1      39.692 -13.112   6.754  1.00  0.00    -0.271 OA
BRANCH   7  10
HETATM   10  C   UNL     1      41.966 -14.539   5.600  1.00  0.00     0.046 A 
HETATM   11  C   UNL     1      43.259 -14.198   6.065  1.00  0.00    -0.035 A 
HETATM   12  C   UNL     1      43.829 -12.811   5.911  1.00  0.00     0.050 C 
HETATM   13  C   UNL     1      44.067 -15.182   6.656  1.00  0.00     0.009 A 
HETATM   14  C   UNL     1      43.613 -16.488   6.786  1.00  0.00     0.001 A 
HETATM   15  C   UNL     1      42.335 -16.821   6.349  1.00  0.00     0.009 A 
HETATM   16  C   UNL     1      41.486 -15.853   5.779  1.00  0.00    -0.035 A 
HETATM   17  C   UNL     1      40.091 -16.298   5.431  1.00  0.00     0.050 C 
ENDBRANCH   7  10
ENDBRANCH   5   6
ENDBRANCH   1   5
BRANCH   2  18
HETATM   18  C   UNL     1      39.669 -12.838   1.031  1.00  0.00     0.080 A 
HETATM   19  C   UNL     1      40.258 -14.104   0.700  1.00  0.00     0.104 A 
HETATM   20  N   UNL     1      39.812 -14.520  -0.502  1.00  0.00    -0.174 NA
HETATM   21  N   UNL     1      38.973 -13.571  -0.919  1.00  0.00    -0.288 N 
HETATM   22  H   UNL     1      38.503 -13.702  -1.809  1.00  0.00     0.188 HD
HETATM   23  C   UNL     1      38.864 -12.530  -0.054  1.00  0.00     0.128 A 
BRANCH  19  24
HETATM   24  C   UNL     1      41.244 -14.930   1.418  1.00  0.00    -0.004 A 
HETATM   25  C   UNL     1      42.527 -14.464   1.736  1.00  0.00     0.017 A 
HETATM   26  C   UNL     1      43.452 -15.298   2.377  1.00  0.00     0.043 A 
HETATM   27  C   UNL     1      43.103 -16.605   2.692  1.00  0.00     0.116 A 
HETATM   28  F   UNL     1      43.995 -17.403   3.291  1.00  0.00    -0.206 F 
HETATM   29  C   UNL     1      41.843 -17.096   2.383  1.00  0.00     0.043 A 
HETATM   30  C   UNL     1      40.919 -16.261   1.751  1.00  0.00     0.017 A 
ENDBRANCH  19  24
ENDBRANCH   2  18
TORSDOF 5
ENDMDL
MODEL 6
REMARK VINA RESULT:      -7.7      2.851      5.152
REMARK  5 active torsions:
REMARK  status: ('A' for Active; 'I' for Inactive)
REMARK    1  A    between atoms: C_3  and  N_4 
REMARK       I    between atoms: N_4  and  C_5 
REMARK    2  A    between atoms: C_5  and  C_6 
REMARK    3  A    between atoms: C_6  and  N_7 
REMARK       I    between atoms: N_7  and  C_8 
REMARK    4  A    between atoms: C_8  and  C_9 
REMARK    5  A    between atoms: C_10  and  C_11 
ROOT
HETATM    1  N   UNL     1      40.947 -14.300   6.236  1.00  0.00    -0.348 N 
HETATM    2  C   UNL     1      41.182 -15.632   5.987  1.00  0.00     0.255 C 
HETATM    3  O   UNL     1      40.453 -16.299   5.259  1.00  0.00    -0.268 OA
HETATM    4  H   UNL     1      41.516 -13.826   6.925  1.00  0.00     0.163 HD
ENDROOT
BRANCH   1   5
HETATM    5  C   UNL     1      39.979 -13.513   5.493  1.00  0.00     0.226 C 
BRANCH   5   6
HETATM    6  C   UNL     1      40.354 -13.203   4.038  1.00  0.00     0.239 C 
HETATM    7  N   UNL     1      39.339 -13.493   3.139  1.00  0.00    -0.325 N 
HETATM    8  H   UNL     1      38.602 -14.086   3.524  1.00  0.00     0.169 HD
HETATM    9  O   UNL     1      41.503 -12.877   3.750  1.00  0.00    -0.271 OA
BRANCH   7  10
HETATM   10  C   UNL     1      39.485 -13.508   1.732  1.00  0.00     0.046 A 
HETATM   11  C   UNL     1      39.192 -12.312   1.033  1.00  0.00    -0.035 A 
HETATM   12  C   UNL     1      38.697 -11.072   1.732  1.00  0.00     0.050 C 
HETATM   13  C   UNL     1      39.323 -12.274  -0.364  1.00  0.00     0.009 A 
HETATM   14  C   UNL     1      39.733 -13.399  -1.069  1.00  0.00     0.001 A 
HETATM   15  C   UNL     1      40.042 -14.569  -0.382  1.00  0.00     0.009 A 
HETATM   16  C   UNL     1      39.951 -14.634   1.022  1.00  0.00    -0.035 A 
HETATM   17  C   UNL     1      40.402 -15.915   1.670  1.00  0.00     0.050 C 
ENDBRANCH   7  10
ENDBRANCH   5   6
ENDBRANCH   1   5
BRANCH   2  18
HETATM   18  C   UNL     1      42.355 -16.154   6.661  1.00  0.00     0.080 A 
HETATM   19  C   UNL     1      43.374 -17.061   6.215  1.00  0.00     0.104 A 
HETATM   20  N   UNL     1      44.310 -17.211   7.174  1.00  0.00    -0.174 NA
HETATM   21  N   UNL     1      43.913 -16.435   8.183  1.00  0.00    -0.288 N 
HETATM   22  H   UNL     1      44.500 -16.387   9.010  1.00  0.00     0.188 HD
HETATM   23  C   UNL     1      42.741 -15.796   7.943  1.00  0.00     0.128 A 
BRANCH  19  24
HETATM   24  C   UNL     1      43.507 -17.827   4.964  1.00  0.00    -0.004 A 
HETATM   25  C   UNL     1      43.222 -17.273   3.708  1.00  0.00     0.017 A 
HETATM   26  C   UNL     1      43.314 -18.050   2.547  1.00  0.00     0.043 A 
HETATM   27  C   UNL     1      43.680 -19.387   2.636  1.00  0.00     0.116 A 
HETATM   28  F   UNL     1      43.753 -20.131   1.525  1.00  0.00    -0.206 F 
HETATM   29  C   UNL     1      43.962 -19.965   3.865  1.00  0.00     0.043 A 
HETATM   30  C   UNL     1      43.876 -19.187   5.023  1.00  0.00     0.017 A 
ENDBRANCH  19  24
ENDBRANCH   2  18
TORSDOF 5
ENDMDL
MODEL 7
REMARK VINA RESULT:      -7.5      1.610      2.660
REMARK  5 active torsions:
REMARK  status: ('A' for Active; 'I' for Inactive)
REMARK    1  A    between atoms: C_3  and  N_4 
REMARK       I    between atoms: N_4  and  C_5 
REMARK    2  A    between atoms: C_5  and  C_6 
REMARK    3  A    between atoms: C_6  and  N_7 
REMARK       I    between atoms: N_7  and  C_8 
REMARK    4  A    between atoms: C_8  and  C_9 
REMARK    5  A    between atoms: C_10  and  C_11 
ROOT
HETATM    1  N   UNL     1      43.798 -15.351   6.203  1.00  0.00    -0.348 N 
HETATM    2  C   UNL     1      42.879 -16.351   5.988  1.00  0.00     0.255 C 
HETATM    3  O   UNL     1      41.846 -16.441   6.645  1.00  0.00    -0.268 OA
HETATM    4  H   UNL     1      44.679 -15.385   5.708  1.00  0.00     0.163 HD
ENDROOT
BRANCH   1   5
HETATM    5  C   UNL     1      43.532 -14.196   7.041  1.00  0.00     0.226 C 
BRANCH   5   6
HETATM    6  C   UNL     1      42.817 -13.027   6.350  1.00  0.00     0.239 C 
HETATM    7  N   UNL     1      42.079 -13.417   5.243  1.00  0.00    -0.325 N 
HETATM    8  H   UNL     1      42.305 -14.353   4.903  1.00  0.00     0.169 HD
HETATM    9  O   UNL     1      43.040 -11.871   6.698  1.00  0.00    -0.271 OA
BRANCH   7  10
HETATM   10  C   UNL     1      41.502 -12.531   4.303  1.00  0.00     0.046 A 
HETATM   11  C   UNL     1      42.294 -12.152   3.192  1.00  0.00    -0.035 A 
HETATM   12  C   UNL     1      43.715 -12.623   3.018  1.00  0.00     0.050 C 
HETATM   13  C   UNL     1      41.768 -11.275   2.230  1.00  0.00     0.009 A 
HETATM   14  C   UNL     1      40.479 -10.772   2.359  1.00  0.00     0.001 A 
HETATM   15  C   UNL     1      39.692 -11.160   3.438  1.00  0.00     0.009 A 
HETATM   16  C   UNL     1      40.177 -12.061   4.406  1.00  0.00    -0.035 A 
HETATM   17  C   UNL     1      39.209 -12.488   5.477  1.00  0.00     0.050 C 
ENDBRANCH   7  10
ENDBRANCH   5   6
ENDBRANCH   1   5
BRANCH   2  18
HETATM   18  C   UNL     1      43.251 -17.269   4.929  1.00  0.00     0.080 A 
HETATM   19  C   UNL     1      42.937 -17.271   3.529  1.00  0.00     0.104 A 
HETATM   20  N   UNL     1      43.560 -18.300   2.918  1.00  0.00    -0.174 NA
HETATM   21  N   UNL     1      44.245 -18.922   3.878  1.00  0.00    -0.288 N 
HETATM   22  H   UNL     1      44.809 -19.725   3.620  1.00  0.00     0.188 HD
HETATM   23  C   UNL     1      44.081 -18.365   5.104  1.00  0.00     0.128 A 
BRANCH  19  24
HETATM   24  C   UNL     1      42.058 -16.397   2.733  1.00  0.00    -0.004 A 
HETATM   25  C   UNL     1      42.494 -15.752   1.567  1.00  0.00     0.017 A 
HETATM   26  C   UNL     1      41.642 -14.891   0.866  1.00  0.00     0.043 A 
HETATM   27  C   UNL     1      40.354 -14.659   1.333  1.00  0.00     0.116 A 
HETATM   28  F   UNL     1      39.548 -13.823   0.668  1.00  0.00    -0.206 F 
HETATM   29  C   UNL     1      39.897 -15.277   2.488  1.00  0.00     0.043 A 
HETATM   30  C   UNL     1      40.746 -16.142   3.183  1.00  0.00     0.017 A 
ENDBRANCH  19  24
ENDBRANCH   2  18
TORSDOF 5
ENDMDL
MODEL 8
REMARK VINA RESULT:      -7.5      3.941      5.597
REMARK  5 active torsions:
REMARK  status: ('A' for Active; 'I' for Inactive)
REMARK    1  A    between atoms: C_3  and  N_4 
REMARK       I    between atoms: N_4  and  C_5 
REMARK    2  A    between atoms: C_5  and  C_6 
REMARK    3  A    between atoms: C_6  and  N_7 
REMARK       I    between atoms: N_7  and  C_8 
REMARK    4  A    between atoms: C_8  and  C_9 
REMARK    5  A    between atoms: C_10  and  C_11 
ROOT
HETATM    1  N   UNL     1      42.121 -12.158   4.111  1.00  0.00    -0.348 N 
HETATM    2  C   UNL     1      42.429 -13.151   3.211  1.00  0.00     0.255 C 
HETATM    3  O   UNL     1      43.549 -13.263   2.721  1.00  0.00    -0.268 OA
HETATM    4  H   UNL     1      41.159 -12.046   4.402  1.00  0.00     0.163 HD
ENDROOT
BRANCH   1   5
HETATM    5  C   UNL     1      43.124 -11.313   4.735  1.00  0.00     0.226 C 
BRANCH   5   6
HETATM    6  C   UNL     1      43.151 -11.341   6.269  1.00  0.00     0.239 C 
HETATM    7  N   UNL     1      43.441 -10.107   6.831  1.00  0.00    -0.325 N 
HETATM    8  H   UNL     1      43.829  -9.432   6.172  1.00  0.00     0.169 HD
HETATM    9  O   UNL     1      43.070 -12.408   6.872  1.00  0.00    -0.271 OA
BRANCH   7  10
HETATM   10  C   UNL     1      43.740  -9.892   8.198  1.00  0.00     0.046 A 
HETATM   11  C   UNL     1      45.086 -10.053   8.605  1.00  0.00    -0.035 A 
HETATM   12  C   UNL     1      46.170 -10.481   7.648  1.00  0.00     0.050 C 
HETATM   13  C   UNL     1      45.435  -9.849   9.949  1.00  0.00     0.009 A 
HETATM   14  C   UNL     1      44.471  -9.496  10.886  1.00  0.00     0.001 A 
HETATM   15  C   UNL     1      43.152  -9.317  10.484  1.00  0.00     0.009 A 
HETATM   16  C   UNL     1      42.771  -9.484   9.139  1.00  0.00    -0.035 A 
HETATM   17  C   UNL     1      41.340  -9.170   8.796  1.00  0.00     0.050 C 
ENDBRANCH   7  10
ENDBRANCH   5   6
ENDBRANCH   1   5
BRANCH   2  18
HETATM   18  C   UNL     1      41.317 -14.031   2.909  1.00  0.00     0.080 A 
HETATM   19  C   UNL     1      41.191 -15.457   2.999  1.00  0.00     0.104 A 
HETATM   20  N   UNL     1      39.938 -15.832   2.667  1.00  0.00    -0.174 NA
HETATM   21  N   UNL     1      39.292 -14.700   2.383  1.00  0.00    -0.288 N 
HETATM   22  H   UNL     1      38.312 -14.760   2.126  1.00  0.00     0.188 HD
HETATM   23  C   UNL     1      40.071 -13.594   2.489  1.00  0.00     0.128 A 
BRANCH  19  24
HETATM   24  C   UNL     1      42.178 -16.496   3.338  1.00  0.00    -0.004 A 
HETATM   25  C   UNL     1      42.651 -17.420   2.396  1.00  0.00     0.017 A 
HETATM   26  C   UNL     1      43.553 -18.424   2.770  1.00  0.00     0.043 A 
HETATM   27  C   UNL     1      43.977 -18.516   4.089  1.00  0.00     0.116 A 
HETATM   28  F   UNL     1      44.829 -19.487   4.446  1.00  0.00    -0.206 F 
HETATM   29  C   UNL     1      43.521 -17.621   5.045  1.00  0.00     0.043 A 
HETATM   30  C   UNL     1      42.627 -16.616   4.670  1.00  0.00     0.017 A 
ENDBRANCH  19  24
ENDBRANCH   2  18
TORSDOF 5
ENDMDL
MODEL 9
REMARK VINA RESULT:      -7.5      3.555      6.181
REMARK  5 active torsions:
REMARK  status: ('A' for Active; 'I' for Inactive)
REMARK    1  A    between atoms: C_3  and  N_4 
REMARK       I    between atoms: N_4  and  C_5 
REMARK    2  A    between atoms: C_5  and  C_6 
REMARK    3  A    between atoms: C_6  and  N_7 
REMARK       I    between atoms: N_7  and  C_8 
REMARK    4  A    between atoms: C_8  and  C_9 
REMARK    5  A    between atoms: C_10  and  C_11 
ROOT
HETATM    1  N   UNL     1      41.321 -12.646   4.191  1.00  0.00    -0.348 N 
HETATM    2  C   UNL     1      42.509 -13.336   4.161  1.00  0.00     0.255 C 
HETATM    3  O   UNL     1      43.274 -13.279   3.202  1.00  0.00    -0.268 OA
HETATM    4  H   UNL     1      40.680 -12.812   4.956  1.00  0.00     0.163 HD
ENDROOT
BRANCH   1   5
HETATM    5  C   UNL     1      40.974 -11.621   3.222  1.00  0.00     0.226 C 
BRANCH   5   6
HETATM    6  C   UNL     1      40.214 -12.112   1.982  1.00  0.00     0.239 C 
HETATM    7  N   UNL     1      41.051 -12.560   0.972  1.00  0.00    -0.325 N 
HETATM    8  H   UNL     1      42.026 -12.280   1.087  1.00  0.00     0.169 HD
HETATM    9  O   UNL     1      38.999 -11.953   1.897  1.00  0.00    -0.271 OA
BRANCH   7  10
HETATM   10  C   UNL     1      40.636 -12.862  -0.347  1.00  0.00     0.046 A 
HETATM   11  C   UNL     1      40.854 -11.878  -1.341  1.00  0.00    -0.035 A 
HETATM   12  C   UNL     1      41.461 -10.535  -1.025  1.00  0.00     0.050 C 
HETATM   13  C   UNL     1      40.462 -12.129  -2.665  1.00  0.00     0.009 A 
HETATM   14  C   UNL     1      39.858 -13.332  -3.009  1.00  0.00     0.001 A 
HETATM   15  C   UNL     1      39.662 -14.308  -2.038  1.00  0.00     0.009 A 
HETATM   16  C   UNL     1      40.070 -14.103  -0.706  1.00  0.00    -0.035 A 
HETATM   17  C   UNL     1      39.899 -15.260   0.240  1.00  0.00     0.050 C 
ENDBRANCH   7  10
ENDBRANCH   5   6
ENDBRANCH   1   5
BRANCH   2  18
HETATM   18  C   UNL     1      42.758 -14.124   5.353  1.00  0.00     0.080 A 
HETATM   19  C   UNL     1      43.136 -15.498   5.514  1.00  0.00     0.104 A 
HETATM   20  N   UNL     1      43.315 -15.777   6.822  1.00  0.00    -0.174 NA
HETATM   21  N   UNL     1      43.070 -14.636   7.466  1.00  0.00    -0.288 N 
HETATM   22  H   UNL     1      43.172 -14.624   8.476  1.00  0.00     0.188 HD
HETATM   23  C   UNL     1      42.711 -13.619   6.643  1.00  0.00     0.128 A 
BRANCH  19  24
HETATM   24  C   UNL     1      43.300 -16.579   4.527  1.00  0.00    -0.004 A 
HETATM   25  C   UNL     1      42.572 -16.621   3.329  1.00  0.00     0.017 A 
HETATM   26  C   UNL     1      42.723 -17.691   2.439  1.00  0.00     0.043 A 
HETATM   27  C   UNL     1      43.591 -18.731   2.747  1.00  0.00     0.116 A 
HETATM   28  F   UNL     1      43.720 -19.760   1.900  1.00  0.00    -0.206 F 
HETATM   29  C   UNL     1      44.318 -18.721   3.928  1.00  0.00     0.043 A 
HETATM   30  C   UNL     1      44.174 -17.649   4.812  1.00  0.00     0.017 A 
ENDBRANCH  19  24
ENDBRANCH   2  18
TORSDOF 5
ENDMDL
MODEL 10
REMARK VINA RESULT:      -7.4      4.156      5.621
REMARK  5 active torsions:
REMARK  status: ('A' for Active; 'I' for Inactive)
REMARK    1  A    between atoms: C_3  and  N_4 
REMARK       I    between atoms: N_4  and  C_5 
REMARK    2  A    between atoms: C_5  and  C_6 
REMARK    3  A    between atoms: C_6  and  N_7 
REMARK       I    between atoms: N_7  and  C_8 
REMARK    4  A    between atoms: C_8  and  C_9 
REMARK    5  A    between atoms: C_10  and  C_11 
ROOT
HETATM    1  N   UNL     1      43.347 -12.962   6.673  1.00  0.00    -0.348 N 
HETATM    2  C   UNL     1      42.811 -13.440   5.501  1.00  0.00     0.255 C 
HETATM    3  O   UNL     1      43.261 -13.129   4.402  1.00  0.00    -0.268 OA
HETATM    4  H   UNL     1      42.874 -13.165   7.544  1.00  0.00     0.163 HD
ENDROOT
BRANCH   1   5
HETATM    5  C   UNL     1      44.612 -12.251   6.734  1.00  0.00     0.226 C 
BRANCH   5   6
HETATM    6  C   UNL     1      44.717 -11.179   7.828  1.00  0.00     0.239 C 
HETATM    7  N   UNL     1      43.500 -10.891   8.426  1.00  0.00    -0.325 N 
HETATM    8  H   UNL     1      42.691 -11.234   7.907  1.00  0.00     0.169 HD
HETATM    9  O   UNL     1      45.769 -10.570   8.000  1.00  0.00    -0.271 OA
BRANCH   7  10
HETATM   10  C   UNL     1      43.268  -9.804   9.302  1.00  0.00     0.046 A 
HETATM   11  C   UNL     1      42.704  -8.629   8.749  1.00  0.00    -0.035 A 
HETATM   12  C   UNL     1      42.397  -8.498   7.279  1.00  0.00     0.050 C 
HETATM   13  C   UNL     1      42.453  -7.523   9.577  1.00  0.00     0.009 A 
HETATM   14  C   UNL     1      42.756  -7.568  10.932  1.00  0.00     0.001 A 
HETATM   15  C   UNL     1      43.290  -8.729  11.481  1.00  0.00     0.009 A 
HETATM   16  C   UNL     1      43.527  -9.867  10.687  1.00  0.00    -0.035 A 
HETATM   17  C   UNL     1      44.014 -11.100  11.401  1.00  0.00     0.050 C 
ENDBRANCH   7  10
ENDBRANCH   5   6
ENDBRANCH   1   5
BRANCH   2  18
HETATM   18  C   UNL     1      41.683 -14.331   5.695  1.00  0.00     0.080 A 
HETATM   19  C   UNL     1      41.483 -15.698   5.309  1.00  0.00     0.104 A 
HETATM   20  N   UNL     1      40.290 -16.136   5.762  1.00  0.00    -0.174 NA
HETATM   21  N   UNL     1      39.755 -15.101   6.412  1.00  0.00    -0.288 N 
HETATM   22  H   UNL     1      38.851 -15.230   6.854  1.00  0.00     0.188 HD
HETATM   23  C   UNL     1      40.532 -13.989   6.386  1.00  0.00     0.128 A 
BRANCH  19  24
HETATM   24  C   UNL     1      42.318 -16.610   4.508  1.00  0.00    -0.004 A 
HETATM   25  C   UNL     1      42.151 -16.763   3.125  1.00  0.00     0.017 A 
HETATM   26  C   UNL     1      42.934 -17.677   2.408  1.00  0.00     0.043 A 
HETATM   27  C   UNL     1      43.878 -18.450   3.072  1.00  0.00     0.116 A 
HETATM   28  F   UNL     1      44.613 -19.333   2.385  1.00  0.00    -0.206 F 
HETATM   29  C   UNL     1      44.060 -18.326   4.441  1.00  0.00     0.043 A 
HETATM   30  C   UNL     1      43.284 -17.409   5.154  1.00  0.00     0.017 A 
ENDBRANCH  19  24
ENDBRANCH   2  18
TORSDOF 5
ENDMDL
