MODEL 1
REMARK VINA RESULT:      -7.3      0.000      0.000
REMARK  4 active torsions:
REMARK  status: ('A' for Active; 'I' for Inactive)
REMARK    1  A    between atoms: C_2  and  C_3 
REMARK    2  A    between atoms: C_3  and  N_4 
REMARK    3  A    between atoms: N_4  and  N_5 
REMARK    4  A    between atoms: C_10  and  C_11 
ROOT
HETATM    1  N   UNL     1      43.707 -18.375   4.034  1.00  0.00    -0.231 N 
HETATM    2  C   UNL     1      43.917 -19.739   3.951  1.00  0.00     0.211 A 
HETATM    3  S   UNL     1      44.578 -20.780   5.060  1.00  0.00    -0.038 SA
HETATM    4  N   UNL     1      43.442 -20.110   2.702  1.00  0.00    -0.250 N 
HETATM    5  N   UNL     1      42.929 -19.026   2.042  1.00  0.00    -0.152 NA
HETATM    6  C   UNL     1      43.087 -18.016   2.862  1.00  0.00     0.177 A 
HETATM    7  H   UNL     1      43.419 -21.043   2.308  1.00  0.00     0.191 HD
ENDROOT
BRANCH   1   8
HETATM    8  N   UNL     1      44.045 -17.580   5.136  1.00  0.00    -0.225 NA
HETATM    9  H   UNL     1      44.214 -16.634   4.778  1.00  0.00     0.147 HD
BRANCH   8  10
HETATM   10  C   UNL     1      42.942 -17.497   6.103  1.00  0.00     0.149 C 
BRANCH  10  11
HETATM   11  C   UNL     1      42.287 -16.131   6.057  1.00  0.00    -0.041 A 
HETATM   12  C   UNL     1      40.914 -15.991   6.371  1.00  0.00     0.011 A 
HETATM   13  C   UNL     1      40.288 -14.740   6.329  1.00  0.00     0.040 A 
HETATM   14  C   UNL     1      41.053 -13.651   5.969  1.00  0.00     0.105 A 
HETATM   15  C   UNL     1      42.388 -13.773   5.669  1.00  0.00     0.105 A 
HETATM   16  O   UNL     1      40.611 -12.370   5.864  1.00  0.00    -0.323 OA
HETATM   17  C   UNL     1      43.033 -14.991   5.711  1.00  0.00     0.048 A 
HETATM   18  O   UNL     1      42.956 -12.584   5.335  1.00  0.00    -0.323 OA
HETATM   19  C   UNL     1      41.820 -11.701   5.446  1.00  0.00     0.352 A 
ENDBRANCH  10  11
ENDBRANCH   8  10
ENDBRANCH   1   8
BRANCH   6  20
HETATM   20  C   UNL     1      42.644 -16.645   2.512  1.00  0.00     0.016 A 
HETATM   21  C   UNL     1      41.285 -16.352   2.648  1.00  0.00     0.034 A 
HETATM   22  C   UNL     1      40.846 -15.076   2.341  1.00  0.00     0.117 A 
HETATM   23  N   UNL     1      41.662 -14.093   1.914  1.00  0.00    -0.273 NA
HETATM   24  C   UNL     1      42.974 -14.391   1.809  1.00  0.00     0.117 A 
HETATM   25  C   UNL     1      43.510 -15.634   2.103  1.00  0.00     0.034 A 
ENDBRANCH   6  20
TORSDOF 4
ENDMDL
MODEL 2
REMARK VINA RESULT:      -7.2      3.793      6.258
REMARK  4 active torsions:
REMARK  status: ('A' for Active; 'I' for Inactive)
REMARK    1  A    between atoms: C_2  and  C_3 
REMARK    2  A    between atoms: C_3  and  N_4 
REMARK    3  A    between atoms: N_4  and  N_5 
REMARK    4  A    between atoms: C_10  and  C_11 
ROOT
HETATM    1  N   UNL     1      40.707 -14.687   2.156  1.00  0.00    -0.231 N 
HETATM    2  C   UNL     1      40.134 -13.845   1.220  1.00  0.00     0.211 A 
HETATM    3  S   UNL     1      39.879 -14.080  -0.401  1.00  0.00    -0.038 SA
HETATM    4  N   UNL     1      39.782 -12.700   1.920  1.00  0.00    -0.250 N 
HETATM    5  N   UNL     1      40.095 -12.832   3.246  1.00  0.00    -0.152 NA
HETATM    6  C   UNL     1      40.628 -14.025   3.358  1.00  0.00     0.177 A 
HETATM    7  H   UNL     1      39.320 -11.877   1.553  1.00  0.00     0.191 HD
ENDROOT
BRANCH   1   8
HETATM    8  N   UNL     1      41.212 -15.962   1.880  1.00  0.00    -0.225 NA
HETATM    9  H   UNL     1      40.923 -16.195   0.924  1.00  0.00     0.147 HD
BRANCH   8  10
HETATM   10  C   UNL     1      42.681 -15.982   1.915  1.00  0.00     0.149 C 
BRANCH  10  11
HETATM   11  C   UNL     1      43.186 -17.136   2.757  1.00  0.00    -0.041 A 
HETATM   12  C   UNL     1      43.766 -16.889   4.025  1.00  0.00     0.011 A 
HETATM   13  C   UNL     1      44.244 -17.940   4.816  1.00  0.00     0.040 A 
HETATM   14  C   UNL     1      44.134 -19.220   4.319  1.00  0.00     0.105 A 
HETATM   15  C   UNL     1      43.567 -19.473   3.094  1.00  0.00     0.105 A 
HETATM   16  O   UNL     1      44.554 -20.353   4.942  1.00  0.00    -0.323 OA
HETATM   17  C   UNL     1      43.079 -18.460   2.296  1.00  0.00     0.048 A 
HETATM   18  O   UNL     1      43.560 -20.798   2.788  1.00  0.00    -0.323 OA
HETATM   19  C   UNL     1      44.201 -21.348   3.958  1.00  0.00     0.352 A 
ENDBRANCH  10  11
ENDBRANCH   8  10
ENDBRANCH   1   8
BRANCH   6  20
HETATM   20  C   UNL     1      41.099 -14.554   4.660  1.00  0.00     0.016 A 
HETATM   21  C   UNL     1      42.131 -13.864   5.301  1.00  0.00     0.034 A 
HETATM   22  C   UNL     1      42.581 -14.329   6.525  1.00  0.00     0.117 A 
HETATM   23  N   UNL     1      42.076 -15.418   7.138  1.00  0.00    -0.273 NA
HETATM   24  C   UNL     1      41.065 -16.057   6.511  1.00  0.00     0.117 A 
HETATM   25  C   UNL     1      40.540 -15.663   5.291  1.00  0.00     0.034 A 
ENDBRANCH   6  20
TORSDOF 4
ENDMDL
MODEL 3
REMARK VINA RESULT:      -6.9      3.781      5.624
REMARK  4 active torsions:
REMARK  status: ('A' for Active; 'I' for Inactive)
REMARK    1  A    between atoms: C_2  and  C_3 
REMARK    2  A    between atoms: C_3  and  N_4 
REMARK    3  A    between atoms: N_4  and  N_5 
REMARK    4  A    between atoms: C_10  and  C_11 
ROOT
HETATM    1  N   UNL     1      40.157 -13.760   1.085  1.00  0.00    -0.231 N 
HETATM    2  C   UNL     1      40.084 -13.436  -0.257  1.00  0.00     0.211 A 
HETATM    3  S   UNL     1      39.222 -14.156  -1.477  1.00  0.00    -0.038 SA
HETATM    4  N   UNL     1      40.904 -12.328  -0.414  1.00  0.00    -0.250 N 
HETATM    5  N   UNL     1      41.446 -11.957   0.787  1.00  0.00    -0.152 NA
HETATM    6  C   UNL     1      40.973 -12.815   1.658  1.00  0.00     0.177 A 
HETATM    7  H   UNL     1      41.076 -11.810  -1.268  1.00  0.00     0.191 HD
ENDROOT
BRANCH   1   8
HETATM    8  N   UNL     1      39.480 -14.827   1.687  1.00  0.00    -0.225 NA
HETATM    9  H   UNL     1      38.596 -14.940   1.181  1.00  0.00     0.147 HD
BRANCH   8  10
HETATM   10  C   UNL     1      40.227 -16.086   1.556  1.00  0.00     0.149 C 
BRANCH  10  11
HETATM   11  C   UNL     1      41.153 -16.290   2.738  1.00  0.00    -0.041 A 
HETATM   12  C   UNL     1      42.502 -16.663   2.528  1.00  0.00     0.011 A 
HETATM   13  C   UNL     1      43.372 -16.863   3.606  1.00  0.00     0.040 A 
HETATM   14  C   UNL     1      42.870 -16.687   4.877  1.00  0.00     0.105 A 
HETATM   15  C   UNL     1      41.565 -16.319   5.094  1.00  0.00     0.105 A 
HETATM   16  O   UNL     1      43.564 -16.850   6.034  1.00  0.00    -0.323 OA
HETATM   17  C   UNL     1      40.687 -16.105   4.052  1.00  0.00     0.048 A 
HETATM   18  O   UNL     1      41.270 -16.204   6.416  1.00  0.00    -0.323 OA
HETATM   19  C   UNL     1      42.539 -16.558   7.007  1.00  0.00     0.352 A 
ENDBRANCH  10  11
ENDBRANCH   8  10
ENDBRANCH   1   8
BRANCH   6  20
HETATM   20  C   UNL     1      41.325 -12.745   3.096  1.00  0.00     0.016 A 
HETATM   21  C   UNL     1      42.656 -12.984   3.447  1.00  0.00     0.034 A 
HETATM   22  C   UNL     1      43.015 -12.911   4.782  1.00  0.00     0.117 A 
HETATM   23  N   UNL     1      42.145 -12.623   5.771  1.00  0.00    -0.273 NA
HETATM   24  C   UNL     1      40.869 -12.375   5.407  1.00  0.00     0.117 A 
HETATM   25  C   UNL     1      40.416 -12.413   4.099  1.00  0.00     0.034 A 
ENDBRANCH   6  20
TORSDOF 4
ENDMDL
MODEL 4
REMARK VINA RESULT:      -6.8      3.967      6.241
REMARK  4 active torsions:
REMARK  status: ('A' for Active; 'I' for Inactive)
REMARK    1  A    between atoms: C_2  and  C_3 
REMARK    2  A    between atoms: C_3  and  N_4 
REMARK    3  A    between atoms: N_4  and  N_5 
REMARK    4  A    between atoms: C_10  and  C_11 
ROOT
HETATM    1  N   UNL     1      40.501 -14.215   1.866  1.00  0.00    -0.231 N 
HETATM    2  C   UNL     1      40.281 -13.692   3.127  1.00  0.00     0.211 A 
HETATM    3  S   UNL     1      40.623 -14.337   4.616  1.00  0.00    -0.038 SA
HETATM    4  N   UNL     1      39.692 -12.454   2.916  1.00  0.00    -0.250 N 
HETATM    5  N   UNL     1      39.576 -12.200   1.576  1.00  0.00    -0.152 NA
HETATM    6  C   UNL     1      40.077 -13.255   0.980  1.00  0.00     0.177 A 
HETATM    7  H   UNL     1      39.410 -11.783   3.620  1.00  0.00     0.191 HD
ENDROOT
BRANCH   1   8
HETATM    8  N   UNL     1      41.080 -15.463   1.608  1.00  0.00    -0.225 NA
HETATM    9  H   UNL     1      40.898 -15.676   0.622  1.00  0.00     0.147 HD
BRANCH   8  10
HETATM   10  C   UNL     1      42.538 -15.431   1.790  1.00  0.00     0.149 C 
BRANCH  10  11
HETATM   11  C   UNL     1      43.010 -16.634   2.581  1.00  0.00    -0.041 A 
HETATM   12  C   UNL     1      43.545 -16.466   3.880  1.00  0.00     0.011 A 
HETATM   13  C   UNL     1      43.992 -17.563   4.624  1.00  0.00     0.040 A 
HETATM   14  C   UNL     1      43.897 -18.811   4.048  1.00  0.00     0.105 A 
HETATM   15  C   UNL     1      43.374 -18.989   2.791  1.00  0.00     0.105 A 
HETATM   16  O   UNL     1      44.292 -19.981   4.617  1.00  0.00    -0.323 OA
HETATM   17  C   UNL     1      42.916 -17.929   2.038  1.00  0.00     0.048 A 
HETATM   18  O   UNL     1      43.374 -20.294   2.408  1.00  0.00    -0.323 OA
HETATM   19  C   UNL     1      43.972 -20.915   3.565  1.00  0.00     0.352 A 
ENDBRANCH  10  11
ENDBRANCH   8  10
ENDBRANCH   1   8
BRANCH   6  20
HETATM   20  C   UNL     1      40.141 -13.363  -0.497  1.00  0.00     0.016 A 
HETATM   21  C   UNL     1      39.421 -14.398  -1.099  1.00  0.00     0.034 A 
HETATM   22  C   UNL     1      39.452 -14.515  -2.478  1.00  0.00     0.117 A 
HETATM   23  N   UNL     1      40.145 -13.681  -3.279  1.00  0.00    -0.273 NA
HETATM   24  C   UNL     1      40.816 -12.676  -2.678  1.00  0.00     0.117 A 
HETATM   25  C   UNL     1      40.837 -12.470  -1.308  1.00  0.00     0.034 A 
ENDBRANCH   6  20
TORSDOF 4
ENDMDL
MODEL 5
REMARK VINA RESULT:      -6.7      3.794      6.067
REMARK  4 active torsions:
REMARK  status: ('A' for Active; 'I' for Inactive)
REMARK    1  A    between atoms: C_2  and  C_3 
REMARK    2  A    between atoms: C_3  and  N_4 
REMARK    3  A    between atoms: N_4  and  N_5 
REMARK    4  A    between atoms: C_10  and  C_11 
ROOT
HETATM    1  N   UNL     1      40.358 -13.261   1.821  1.00  0.00    -0.231 N 
HETATM    2  C   UNL     1      39.741 -12.760   2.953  1.00  0.00     0.211 A 
HETATM    3  S   UNL     1      40.100 -13.005   4.553  1.00  0.00    -0.038 SA
HETATM    4  N   UNL     1      38.707 -11.962   2.487  1.00  0.00    -0.250 N 
HETATM    5  N   UNL     1      38.696 -11.941   1.118  1.00  0.00    -0.152 NA
HETATM    6  C   UNL     1      39.695 -12.708   0.753  1.00  0.00     0.177 A 
HETATM    7  H   UNL     1      38.054 -11.421   3.041  1.00  0.00     0.191 HD
ENDROOT
BRANCH   1   8
HETATM    8  N   UNL     1      41.460 -14.124   1.828  1.00  0.00    -0.225 NA
HETATM    9  H   UNL     1      41.958 -13.961   2.710  1.00  0.00     0.147 HD
BRANCH   8  10
HETATM   10  C   UNL     1      41.044 -15.533   1.810  1.00  0.00     0.149 C 
BRANCH  10  11
HETATM   11  C   UNL     1      41.898 -16.360   2.748  1.00  0.00    -0.041 A 
HETATM   12  C   UNL     1      42.878 -17.240   2.228  1.00  0.00     0.011 A 
HETATM   13  C   UNL     1      43.673 -18.018   3.077  1.00  0.00     0.040 A 
HETATM   14  C   UNL     1      43.468 -17.901   4.434  1.00  0.00     0.105 A 
HETATM   15  C   UNL     1      42.526 -17.046   4.952  1.00  0.00     0.105 A 
HETATM   16  O   UNL     1      44.137 -18.584   5.401  1.00  0.00    -0.323 OA
HETATM   17  C   UNL     1      41.735 -16.260   4.141  1.00  0.00     0.048 A 
HETATM   18  O   UNL     1      42.480 -17.084   6.310  1.00  0.00    -0.323 OA
HETATM   19  C   UNL     1      43.493 -18.073   6.587  1.00  0.00     0.352 A 
ENDBRANCH  10  11
ENDBRANCH   8  10
ENDBRANCH   1   8
BRANCH   6  20
HETATM   20  C   UNL     1      40.024 -12.938  -0.673  1.00  0.00     0.016 A 
HETATM   21  C   UNL     1      39.477 -14.069  -1.287  1.00  0.00     0.034 A 
HETATM   22  C   UNL     1      39.758 -14.301  -2.622  1.00  0.00     0.117 A 
HETATM   23  N   UNL     1      40.536 -13.494  -3.369  1.00  0.00    -0.273 NA
HETATM   24  C   UNL     1      41.037 -12.397  -2.763  1.00  0.00     0.117 A 
HETATM   25  C   UNL     1      40.805 -12.073  -1.436  1.00  0.00     0.034 A 
ENDBRANCH   6  20
TORSDOF 4
ENDMDL
MODEL 6
REMARK VINA RESULT:      -6.7      1.966      3.685
REMARK  4 active torsions:
REMARK  status: ('A' for Active; 'I' for Inactive)
REMARK    1  A    between atoms: C_2  and  C_3 
REMARK    2  A    between atoms: C_3  and  N_4 
REMARK    3  A    between atoms: N_4  and  N_5 
REMARK    4  A    between atoms: C_10  and  C_11 
ROOT
HETATM    1  N   UNL     1      43.037 -18.156   3.427  1.00  0.00    -0.231 N 
HETATM    2  C   UNL     1      43.754 -19.330   3.284  1.00  0.00     0.211 A 
HETATM    3  S   UNL     1      43.936 -20.306   1.955  1.00  0.00    -0.038 SA
HETATM    4  N   UNL     1      44.337 -19.561   4.522  1.00  0.00    -0.250 N 
HETATM    5  N   UNL     1      44.021 -18.556   5.396  1.00  0.00    -0.152 NA
HETATM    6  C   UNL     1      43.262 -17.732   4.714  1.00  0.00     0.177 A 
HETATM    7  H   UNL     1      44.949 -20.326   4.777  1.00  0.00     0.191 HD
ENDROOT
BRANCH   1   8
HETATM    8  N   UNL     1      42.284 -17.551   2.415  1.00  0.00    -0.225 NA
HETATM    9  H   UNL     1      41.459 -17.140   2.865  1.00  0.00     0.147 HD
BRANCH   8  10
HETATM   10  C   UNL     1      43.025 -16.458   1.769  1.00  0.00     0.149 C 
BRANCH  10  11
HETATM   11  C   UNL     1      42.431 -15.114   2.136  1.00  0.00    -0.041 A 
HETATM   12  C   UNL     1      43.277 -14.005   2.377  1.00  0.00     0.011 A 
HETATM   13  C   UNL     1      42.749 -12.756   2.723  1.00  0.00     0.040 A 
HETATM   14  C   UNL     1      41.380 -12.644   2.825  1.00  0.00     0.105 A 
HETATM   15  C   UNL     1      40.547 -13.710   2.587  1.00  0.00     0.105 A 
HETATM   16  O   UNL     1      40.698 -11.517   3.161  1.00  0.00    -0.323 OA
HETATM   17  C   UNL     1      41.037 -14.949   2.235  1.00  0.00     0.048 A 
HETATM   18  O   UNL     1      39.235 -13.391   2.745  1.00  0.00    -0.323 OA
HETATM   19  C   UNL     1      39.339 -12.002   3.125  1.00  0.00     0.352 A 
ENDBRANCH  10  11
ENDBRANCH   8  10
ENDBRANCH   1   8
BRANCH   6  20
HETATM   20  C   UNL     1      42.713 -16.494   5.316  1.00  0.00     0.016 A 
HETATM   21  C   UNL     1      43.616 -15.473   5.629  1.00  0.00     0.034 A 
HETATM   22  C   UNL     1      43.128 -14.301   6.180  1.00  0.00     0.117 A 
HETATM   23  N   UNL     1      41.822 -14.086   6.435  1.00  0.00    -0.273 NA
HETATM   24  C   UNL     1      40.966 -15.076   6.106  1.00  0.00     0.117 A 
HETATM   25  C   UNL     1      41.355 -16.279   5.541  1.00  0.00     0.034 A 
ENDBRANCH   6  20
TORSDOF 4
ENDMDL
MODEL 7
REMARK VINA RESULT:      -6.6      3.346      4.966
REMARK  4 active torsions:
REMARK  status: ('A' for Active; 'I' for Inactive)
REMARK    1  A    between atoms: C_2  and  C_3 
REMARK    2  A    between atoms: C_3  and  N_4 
REMARK    3  A    between atoms: N_4  and  N_5 
REMARK    4  A    between atoms: C_10  and  C_11 
ROOT
HETATM    1  N   UNL     1      41.791 -14.366   3.884  1.00  0.00    -0.231 N 
HETATM    2  C   UNL     1      40.629 -13.693   3.555  1.00  0.00     0.211 A 
HETATM    3  S   UNL     1      40.297 -12.069   3.597  1.00  0.00    -0.038 SA
HETATM    4  N   UNL     1      39.734 -14.674   3.153  1.00  0.00    -0.250 N 
HETATM    5  N   UNL     1      40.323 -15.909   3.201  1.00  0.00    -0.152 NA
HETATM    6  C   UNL     1      41.545 -15.693   3.623  1.00  0.00     0.177 A 
HETATM    7  H   UNL     1      38.786 -14.540   2.824  1.00  0.00     0.191 HD
ENDROOT
BRANCH   1   8
HETATM    8  N   UNL     1      42.963 -13.758   4.348  1.00  0.00    -0.225 NA
HETATM    9  H   UNL     1      42.892 -12.762   4.113  1.00  0.00     0.147 HD
BRANCH   8  10
HETATM   10  C   UNL     1      43.085 -13.859   5.809  1.00  0.00     0.149 C 
BRANCH  10  11
HETATM   11  C   UNL     1      43.490 -12.529   6.410  1.00  0.00    -0.041 A 
HETATM   12  C   UNL     1      42.528 -11.507   6.588  1.00  0.00     0.011 A 
HETATM   13  C   UNL     1      42.883 -10.269   7.135  1.00  0.00     0.040 A 
HETATM   14  C   UNL     1      44.200 -10.078   7.490  1.00  0.00     0.105 A 
HETATM   15  C   UNL     1      45.142 -11.064   7.329  1.00  0.00     0.105 A 
HETATM   16  O   UNL     1      44.723  -8.941   8.021  1.00  0.00    -0.323 OA
HETATM   17  C   UNL     1      44.821 -12.297   6.802  1.00  0.00     0.048 A 
HETATM   18  O   UNL     1      46.379 -10.673   7.736  1.00  0.00    -0.323 OA
HETATM   19  C   UNL     1      46.109  -9.320   8.160  1.00  0.00     0.352 A 
ENDBRANCH  10  11
ENDBRANCH   8  10
ENDBRANCH   1   8
BRANCH   6  20
HETATM   20  C   UNL     1      42.518 -16.796   3.803  1.00  0.00     0.016 A 
HETATM   21  C   UNL     1      43.006 -17.419   2.651  1.00  0.00     0.034 A 
HETATM   22  C   UNL     1      43.927 -18.443   2.789  1.00  0.00     0.117 A 
HETATM   23  N   UNL     1      44.382 -18.878   3.980  1.00  0.00    -0.273 NA
HETATM   24  C   UNL     1      43.914 -18.248   5.078  1.00  0.00     0.117 A 
HETATM   25  C   UNL     1      43.000 -17.208   5.043  1.00  0.00     0.034 A 
ENDBRANCH   6  20
TORSDOF 4
ENDMDL
MODEL 8
REMARK VINA RESULT:      -6.5      1.913      3.495
REMARK  4 active torsions:
REMARK  status: ('A' for Active; 'I' for Inactive)
REMARK    1  A    between atoms: C_2  and  C_3 
REMARK    2  A    between atoms: C_3  and  N_4 
REMARK    3  A    between atoms: N_4  and  N_5 
REMARK    4  A    between atoms: C_10  and  C_11 
ROOT
HETATM    1  N   UNL     1      43.577 -18.506   3.683  1.00  0.00    -0.231 N 
HETATM    2  C   UNL     1      43.841 -19.830   3.387  1.00  0.00     0.211 A 
HETATM    3  S   UNL     1      43.994 -20.578   1.915  1.00  0.00    -0.038 SA
HETATM    4  N   UNL     1      43.970 -20.464   4.615  1.00  0.00    -0.250 N 
HETATM    5  N   UNL     1      43.822 -19.565   5.637  1.00  0.00    -0.152 NA
HETATM    6  C   UNL     1      43.605 -18.412   5.053  1.00  0.00     0.177 A 
HETATM    7  H   UNL     1      44.184 -21.440   4.780  1.00  0.00     0.191 HD
ENDROOT
BRANCH   1   8
HETATM    8  N   UNL     1      43.371 -17.501   2.731  1.00  0.00    -0.225 NA
HETATM    9  H   UNL     1      43.656 -17.888   1.825  1.00  0.00     0.147 HD
BRANCH   8  10
HETATM   10  C   UNL     1      41.951 -17.136   2.627  1.00  0.00     0.149 C 
BRANCH  10  11
HETATM   11  C   UNL     1      41.764 -15.642   2.796  1.00  0.00    -0.041 A 
HETATM   12  C   UNL     1      40.462 -15.094   2.880  1.00  0.00     0.011 A 
HETATM   13  C   UNL     1      40.267 -13.716   3.029  1.00  0.00     0.040 A 
HETATM   14  C   UNL     1      41.384 -12.912   3.088  1.00  0.00     0.105 A 
HETATM   15  C   UNL     1      42.653 -13.432   3.015  1.00  0.00     0.105 A 
HETATM   16  O   UNL     1      41.384 -11.559   3.218  1.00  0.00    -0.323 OA
HETATM   17  C   UNL     1      42.877 -14.786   2.878  1.00  0.00     0.048 A 
HETATM   18  O   UNL     1      43.614 -12.472   3.088  1.00  0.00    -0.323 OA
HETATM   19  C   UNL     1      42.801 -11.285   3.201  1.00  0.00     0.352 A 
ENDBRANCH  10  11
ENDBRANCH   8  10
ENDBRANCH   1   8
BRANCH   6  20
HETATM   20  C   UNL     1      43.398 -17.167   5.831  1.00  0.00     0.016 A 
HETATM   21  C   UNL     1      44.503 -16.331   6.015  1.00  0.00     0.034 A 
HETATM   22  C   UNL     1      44.335 -15.155   6.726  1.00  0.00     0.117 A 
HETATM   23  N   UNL     1      43.158 -14.768   7.256  1.00  0.00    -0.273 NA
HETATM   24  C   UNL     1      42.100 -15.580   7.048  1.00  0.00     0.117 A 
HETATM   25  C   UNL     1      42.165 -16.770   6.342  1.00  0.00     0.034 A 
ENDBRANCH   6  20
TORSDOF 4
ENDMDL
MODEL 9
REMARK VINA RESULT:      -6.5      4.311      6.468
REMARK  4 active torsions:
REMARK  status: ('A' for Active; 'I' for Inactive)
REMARK    1  A    between atoms: C_2  and  C_3 
REMARK    2  A    between atoms: C_3  and  N_4 
REMARK    3  A    between atoms: N_4  and  N_5 
REMARK    4  A    between atoms: C_10  and  C_11 
ROOT
HETATM    1  N   UNL     1      40.641 -13.343   4.758  1.00  0.00    -0.231 N 
HETATM    2  C   UNL     1      40.660 -12.491   5.848  1.00  0.00     0.211 A 
HETATM    3  S   UNL     1      39.469 -11.500   6.439  1.00  0.00    -0.038 SA
HETATM    4  N   UNL     1      41.927 -12.622   6.397  1.00  0.00    -0.250 N 
HETATM    5  N   UNL     1      42.662 -13.541   5.697  1.00  0.00    -0.152 NA
HETATM    6  C   UNL     1      41.868 -13.961   4.742  1.00  0.00     0.177 A 
HETATM    7  H   UNL     1      42.288 -12.156   7.221  1.00  0.00     0.191 HD
ENDROOT
BRANCH   1   8
HETATM    8  N   UNL     1      39.547 -13.524   3.905  1.00  0.00    -0.225 NA
HETATM    9  H   UNL     1      38.706 -13.487   4.491  1.00  0.00     0.147 HD
BRANCH   8  10
HETATM   10  C   UNL     1      39.445 -12.441   2.917  1.00  0.00     0.149 C 
BRANCH  10  11
HETATM   11  C   UNL     1      39.552 -12.985   1.507  1.00  0.00    -0.041 A 
HETATM   12  C   UNL     1      39.856 -14.351   1.294  1.00  0.00     0.011 A 
HETATM   13  C   UNL     1      39.966 -14.873   0.000  1.00  0.00     0.040 A 
HETATM   14  C   UNL     1      39.771 -14.012  -1.058  1.00  0.00     0.105 A 
HETATM   15  C   UNL     1      39.468 -12.686  -0.864  1.00  0.00     0.105 A 
HETATM   16  O   UNL     1      39.850 -14.340  -2.375  1.00  0.00    -0.323 OA
HETATM   17  C   UNL     1      39.344 -12.146   0.398  1.00  0.00     0.048 A 
HETATM   18  O   UNL     1      39.319 -12.011  -2.035  1.00  0.00    -0.323 OA
HETATM   19  C   UNL     1      39.579 -13.063  -2.989  1.00  0.00     0.352 A 
ENDBRANCH  10  11
ENDBRANCH   8  10
ENDBRANCH   1   8
BRANCH   6  20
HETATM   20  C   UNL     1      42.298 -14.984   3.759  1.00  0.00     0.016 A 
HETATM   21  C   UNL     1      43.074 -14.554   2.679  1.00  0.00     0.034 A 
HETATM   22  C   UNL     1      43.501 -15.490   1.753  1.00  0.00     0.117 A 
HETATM   23  N   UNL     1      43.208 -16.803   1.835  1.00  0.00    -0.273 NA
HETATM   24  C   UNL     1      42.476 -17.200   2.897  1.00  0.00     0.117 A 
HETATM   25  C   UNL     1      42.012 -16.341   3.880  1.00  0.00     0.034 A 
ENDBRANCH   6  20
TORSDOF 4
ENDMDL
MODEL 10
REMARK VINA RESULT:      -6.4      3.639      5.531
REMARK  4 active torsions:
REMARK  status: ('A' for Active; 'I' for Inactive)
REMARK    1  A    between atoms: C_2  and  C_3 
REMARK    2  A    between atoms: C_3  and  N_4 
REMARK    3  A    between atoms: N_4  and  N_5 
REMARK    4  A    between atoms: C_10  and  C_11 
ROOT
HETATM    1  N   UNL     1      40.270 -13.502   3.954  1.00  0.00    -0.231 N 
HETATM    2  C   UNL     1      39.462 -13.449   2.834  1.00  0.00     0.211 A 
HETATM    3  S   UNL     1      38.677 -12.156   2.154  1.00  0.00    -0.038 SA
HETATM    4  N   UNL     1      39.423 -14.746   2.343  1.00  0.00    -0.250 N 
HETATM    5  N   UNL     1      40.201 -15.572   3.109  1.00  0.00    -0.152 NA
HETATM    6  C   UNL     1      40.701 -14.804   4.047  1.00  0.00     0.177 A 
HETATM    7  H   UNL     1      38.937 -15.074   1.517  1.00  0.00     0.191 HD
ENDROOT
BRANCH   1   8
HETATM    8  N   UNL     1      40.582 -12.407   4.768  1.00  0.00    -0.225 NA
HETATM    9  H   UNL     1      40.731 -12.774   5.714  1.00  0.00     0.147 HD
BRANCH   8  10
HETATM   10  C   UNL     1      41.831 -11.757   4.346  1.00  0.00     0.149 C 
BRANCH  10  11
HETATM   11  C   UNL     1      42.768 -11.574   5.521  1.00  0.00    -0.041 A 
HETATM   12  C   UNL     1      43.902 -12.410   5.663  1.00  0.00     0.011 A 
HETATM   13  C   UNL     1      44.776 -12.262   6.746  1.00  0.00     0.040 A 
HETATM   14  C   UNL     1      44.495 -11.279   7.669  1.00  0.00     0.105 A 
HETATM   15  C   UNL     1      43.402 -10.457   7.540  1.00  0.00     0.105 A 
HETATM   16  O   UNL     1      45.224 -11.003   8.783  1.00  0.00    -0.323 OA
HETATM   17  C   UNL     1      42.528 -10.573   6.479  1.00  0.00     0.048 A 
HETATM   18  O   UNL     1      43.302  -9.560   8.557  1.00  0.00    -0.323 OA
HETATM   19  C   UNL     1      44.452  -9.922   9.350  1.00  0.00     0.352 A 
ENDBRANCH  10  11
ENDBRANCH   8  10
ENDBRANCH   1   8
BRANCH   6  20
HETATM   20  C   UNL     1      41.616 -15.331   5.086  1.00  0.00     0.016 A 
HETATM   21  C   UNL     1      42.896 -15.721   4.682  1.00  0.00     0.034 A 
HETATM   22  C   UNL     1      43.776 -16.204   5.634  1.00  0.00     0.117 A 
HETATM   23  N   UNL     1      43.466 -16.323   6.940  1.00  0.00    -0.273 NA
HETATM   24  C   UNL     1      42.232 -15.922   7.313  1.00  0.00     0.117 A 
HETATM   25  C   UNL     1      41.286 -15.415   6.437  1.00  0.00     0.034 A 
ENDBRANCH   6  20
TORSDOF 4
ENDMDL
