MODEL 1
REMARK VINA RESULT:      -9.6      0.000      0.000
REMARK  6 active torsions:
REMARK  status: ('A' for Active; 'I' for Inactive)
REMARK    1  A    between atoms: O_2  and  C_3 
REMARK    2  A    between atoms: C_5  and  C_6 
REMARK    3  A    between atoms: C_12  and  C_13 
REMARK       I    between atoms: C_13  and  N_14 
REMARK    4  A    between atoms: N_14  and  C_15 
REMARK    5  A    between atoms: C_17  and  O_18 
REMARK    6  A    between atoms: C_23  and  C_24 
ROOT
HETATM    1  C   UNL     1      42.181 -15.648   3.030  1.00  0.00     0.118 C 
HETATM    2  N   UNL     1      42.566 -14.327   3.547  1.00  0.00    -0.365 N 
HETATM    3  C   UNL     1      42.287 -13.203   2.821  1.00  0.00     0.138 A 
HETATM    4  N   UNL     1      41.802 -13.299   1.536  1.00  0.00    -0.240 N 
HETATM    5  N   UNL     1      41.617 -12.123   0.925  1.00  0.00    -0.181 NA
HETATM    6  C   UNL     1      41.922 -11.239   1.876  1.00  0.00     0.160 A 
HETATM    7  C   UNL     1      42.364 -11.844   3.080  1.00  0.00     0.096 A 
HETATM    8  C   UNL     1      41.481 -14.542   0.863  1.00  0.00     0.221 C 
HETATM    9  C   UNL     1      42.285 -15.681   1.495  1.00  0.00     0.066 C 
HETATM   10  H   UNL     1      42.484 -14.287   4.564  1.00  0.00     0.161 HD
ENDROOT
BRANCH   7  11
HETATM   11  C   UNL     1      42.774 -11.118   4.272  1.00  0.00     0.261 C 
HETATM   12  N   UNL     1      43.730 -11.761   5.033  1.00  0.00    -0.323 N 
HETATM   13  H   UNL     1      44.130 -12.595   4.619  1.00  0.00     0.169 HD
HETATM   14  O   UNL     1      42.293 -10.015   4.511  1.00  0.00    -0.267 OA
BRANCH  12  15
HETATM   15  C   UNL     1      44.263 -11.342   6.271  1.00  0.00     0.037 A 
HETATM   16  C   UNL     1      43.496 -11.163   7.428  1.00  0.00     0.066 A 
HETATM   17  C   UNL     1      44.107 -10.754   8.612  1.00  0.00     0.067 A 
HETATM   18  C   UNL     1      45.474 -10.524   8.672  1.00  0.00     0.036 A 
HETATM   19  C   UNL     1      46.246 -10.704   7.527  1.00  0.00     0.005 A 
HETATM   20  C   UNL     1      45.643 -11.110   6.332  1.00  0.00     0.029 A 
BRANCH  17  21
HETATM   21  O   UNL     1      43.381 -10.567   9.754  1.00  0.00    -0.361 OA
HETATM   22  H   UNL     1      43.973 -10.208  10.438  1.00  0.00     0.217 HD
ENDBRANCH  17  21
ENDBRANCH  12  15
ENDBRANCH   7  11
BRANCH   1  23
HETATM   23  C   UNL     1      43.054 -16.732   3.632  1.00  0.00    -0.033 A 
HETATM   24  C   UNL     1      43.217 -17.978   3.003  1.00  0.00     0.046 A 
HETATM   25  C   UNL     1      43.920 -19.016   3.622  1.00  0.00     0.068 A 
HETATM   26  C   UNL     1      44.506 -18.800   4.868  1.00  0.00     0.037 A 
HETATM   27  C   UNL     1      44.373 -17.561   5.496  1.00  0.00     0.003 A 
HETATM   28  C   UNL     1      43.647 -16.535   4.889  1.00  0.00     0.009 A 
BRANCH  25  29
HETATM   29  O   UNL     1      43.964 -20.185   2.911  1.00  0.00    -0.356 OA
HETATM   30  C   UNL     1      43.179 -20.233   1.724  1.00  0.00     0.210 C 
ENDBRANCH  25  29
ENDBRANCH   1  23
BRANCH   8  31
HETATM   31  C   UNL     1      39.988 -14.786   0.917  1.00  0.00     0.409 C 
HETATM   32  F   UNL     1      39.668 -16.099   0.956  1.00  0.00    -0.169 F 
HETATM   33  F   UNL     1      39.390 -14.186   1.966  1.00  0.00    -0.169 F 
HETATM   34  F   UNL     1      39.400 -14.284  -0.201  1.00  0.00    -0.169 F 
ENDBRANCH   8  31
TORSDOF 6
ENDMDL
MODEL 2
REMARK VINA RESULT:      -9.5      0.997      1.726
REMARK  6 active torsions:
REMARK  status: ('A' for Active; 'I' for Inactive)
REMARK    1  A    between atoms: O_2  and  C_3 
REMARK    2  A    between atoms: C_5  and  C_6 
REMARK    3  A    between atoms: C_12  and  C_13 
REMARK       I    between atoms: C_13  and  N_14 
REMARK    4  A    between atoms: N_14  and  C_15 
REMARK    5  A    between atoms: C_17  and  O_18 
REMARK    6  A    between atoms: C_23  and  C_24 
ROOT
HETATM    1  C   UNL     1      41.928 -15.676   2.982  1.00  0.00     0.118 C 
HETATM    2  N   UNL     1      42.359 -14.382   3.533  1.00  0.00    -0.365 N 
HETATM    3  C   UNL     1      42.186 -13.240   2.803  1.00  0.00     0.138 A 
HETATM    4  N   UNL     1      41.770 -13.300   1.492  1.00  0.00    -0.240 N 
HETATM    5  N   UNL     1      41.687 -12.111   0.882  1.00  0.00    -0.181 NA
HETATM    6  C   UNL     1      41.988 -11.251   1.857  1.00  0.00     0.160 A 
HETATM    7  C   UNL     1      42.326 -11.889   3.079  1.00  0.00     0.096 A 
HETATM    8  C   UNL     1      41.416 -14.518   0.790  1.00  0.00     0.221 C 
HETATM    9  C   UNL     1      42.117 -15.705   1.455  1.00  0.00     0.066 C 
HETATM   10  H   UNL     1      42.221 -14.343   4.544  1.00  0.00     0.161 HD
ENDROOT
BRANCH   7  11
HETATM   11  C   UNL     1      42.709 -11.195   4.298  1.00  0.00     0.261 C 
HETATM   12  N   UNL     1      43.753 -11.781   4.986  1.00  0.00    -0.323 N 
HETATM   13  H   UNL     1      44.216 -12.546   4.508  1.00  0.00     0.169 HD
HETATM   14  O   UNL     1      42.132 -10.161   4.619  1.00  0.00    -0.267 OA
BRANCH  12  15
HETATM   15  C   UNL     1      44.290 -11.382   6.229  1.00  0.00     0.037 A 
HETATM   16  C   UNL     1      43.528 -11.226   7.392  1.00  0.00     0.066 A 
HETATM   17  C   UNL     1      44.143 -10.836   8.581  1.00  0.00     0.067 A 
HETATM   18  C   UNL     1      45.510 -10.604   8.638  1.00  0.00     0.036 A 
HETATM   19  C   UNL     1      46.277 -10.762   7.487  1.00  0.00     0.005 A 
HETATM   20  C   UNL     1      45.670 -11.148   6.288  1.00  0.00     0.029 A 
BRANCH  17  21
HETATM   21  O   UNL     1      43.421 -10.671   9.729  1.00  0.00    -0.361 OA
HETATM   22  H   UNL     1      42.522 -10.387   9.487  1.00  0.00     0.217 HD
ENDBRANCH  17  21
ENDBRANCH  12  15
ENDBRANCH   7  11
BRANCH   1  23
HETATM   23  C   UNL     1      42.702 -16.812   3.623  1.00  0.00    -0.033 A 
HETATM   24  C   UNL     1      42.798 -16.939   5.020  1.00  0.00     0.046 A 
HETATM   25  C   UNL     1      43.613 -17.913   5.604  1.00  0.00     0.068 A 
HETATM   26  C   UNL     1      44.314 -18.800   4.789  1.00  0.00     0.037 A 
HETATM   27  C   UNL     1      44.212 -18.702   3.401  1.00  0.00     0.003 A 
HETATM   28  C   UNL     1      43.418 -17.712   2.819  1.00  0.00     0.009 A 
BRANCH  25  29
HETATM   29  O   UNL     1      43.640 -17.894   6.972  1.00  0.00    -0.356 OA
HETATM   30  C   UNL     1      43.670 -16.610   7.586  1.00  0.00     0.210 C 
ENDBRANCH  25  29
ENDBRANCH   1  23
BRANCH   8  31
HETATM   31  C   UNL     1      39.911 -14.675   0.758  1.00  0.00     0.409 C 
HETATM   32  F   UNL     1      39.516 -15.968   0.725  1.00  0.00    -0.169 F 
HETATM   33  F   UNL     1      39.293 -14.084   1.801  1.00  0.00    -0.169 F 
HETATM   34  F   UNL     1      39.413 -14.095  -0.365  1.00  0.00    -0.169 F 
ENDBRANCH   8  31
TORSDOF 6
ENDMDL
MODEL 3
REMARK VINA RESULT:      -9.4      3.472      6.833
REMARK  6 active torsions:
REMARK  status: ('A' for Active; 'I' for Inactive)
REMARK    1  A    between atoms: O_2  and  C_3 
REMARK    2  A    between atoms: C_5  and  C_6 
REMARK    3  A    between atoms: C_12  and  C_13 
REMARK       I    between atoms: C_13  and  N_14 
REMARK    4  A    between atoms: N_14  and  C_15 
REMARK    5  A    between atoms: C_17  and  O_18 
REMARK    6  A    between atoms: C_23  and  C_24 
ROOT
HETATM    1  C   UNL     1      43.010 -15.359   4.018  1.00  0.00     0.118 C 
HETATM    2  N   UNL     1      42.175 -14.657   3.031  1.00  0.00    -0.365 N 
HETATM    3  C   UNL     1      41.501 -13.525   3.391  1.00  0.00     0.138 A 
HETATM    4  N   UNL     1      41.455 -13.122   4.707  1.00  0.00    -0.240 N 
HETATM    5  N   UNL     1      40.722 -12.023   4.925  1.00  0.00    -0.181 NA
HETATM    6  C   UNL     1      40.347 -11.664   3.696  1.00  0.00     0.160 A 
HETATM    7  C   UNL     1      40.784 -12.567   2.692  1.00  0.00     0.096 A 
HETATM    8  C   UNL     1      42.142 -13.783   5.799  1.00  0.00     0.221 C 
HETATM    9  C   UNL     1      42.396 -15.245   5.425  1.00  0.00     0.066 C 
HETATM   10  H   UNL     1      42.580 -14.710   2.095  1.00  0.00     0.161 HD
ENDROOT
BRANCH   7  11
HETATM   11  C   UNL     1      40.503 -12.426   1.272  1.00  0.00     0.261 C 
HETATM   12  N   UNL     1      39.533 -13.286   0.794  1.00  0.00    -0.323 N 
HETATM   13  H   UNL     1      39.040 -13.823   1.497  1.00  0.00     0.169 HD
HETATM   14  O   UNL     1      41.092 -11.575   0.614  1.00  0.00    -0.267 OA
BRANCH  12  15
HETATM   15  C   UNL     1      39.105 -13.433  -0.543  1.00  0.00     0.037 A 
HETATM   16  C   UNL     1      38.379 -12.462  -1.240  1.00  0.00     0.066 A 
HETATM   17  C   UNL     1      38.004 -12.688  -2.564  1.00  0.00     0.067 A 
HETATM   18  C   UNL     1      38.345 -13.866  -3.214  1.00  0.00     0.036 A 
HETATM   19  C   UNL     1      39.072 -14.836  -2.530  1.00  0.00     0.005 A 
HETATM   20  C   UNL     1      39.450 -14.621  -1.201  1.00  0.00     0.029 A 
BRANCH  17  21
HETATM   21  O   UNL     1      37.289 -11.759  -3.265  1.00  0.00    -0.361 OA
HETATM   22  H   UNL     1      36.380 -12.088  -3.371  1.00  0.00     0.217 HD
ENDBRANCH  17  21
ENDBRANCH  12  15
ENDBRANCH   7  11
BRANCH   1  23
HETATM   23  C   UNL     1      43.171 -16.818   3.639  1.00  0.00    -0.033 A 
HETATM   24  C   UNL     1      43.809 -17.733   4.494  1.00  0.00     0.046 A 
HETATM   25  C   UNL     1      44.066 -19.046   4.090  1.00  0.00     0.068 A 
HETATM   26  C   UNL     1      43.647 -19.470   2.829  1.00  0.00     0.037 A 
HETATM   27  C   UNL     1      42.992 -18.580   1.976  1.00  0.00     0.003 A 
HETATM   28  C   UNL     1      42.761 -17.262   2.372  1.00  0.00     0.009 A 
BRANCH  25  29
HETATM   29  O   UNL     1      44.729 -19.812   5.009  1.00  0.00    -0.356 OA
HETATM   30  C   UNL     1      44.008 -20.913   5.553  1.00  0.00     0.210 C 
ENDBRANCH  25  29
ENDBRANCH   1  23
BRANCH   8  31
HETATM   31  C   UNL     1      43.417 -13.038   6.131  1.00  0.00     0.409 C 
HETATM   32  F   UNL     1      43.966 -12.426   5.057  1.00  0.00    -0.169 F 
HETATM   33  F   UNL     1      43.254 -12.109   7.095  1.00  0.00    -0.169 F 
HETATM   34  F   UNL     1      44.352 -13.911   6.591  1.00  0.00    -0.169 F 
ENDBRANCH   8  31
TORSDOF 6
ENDMDL
MODEL 4
REMARK VINA RESULT:      -9.3      2.894      5.071
REMARK  6 active torsions:
REMARK  status: ('A' for Active; 'I' for Inactive)
REMARK    1  A    between atoms: O_2  and  C_3 
REMARK    2  A    between atoms: C_5  and  C_6 
REMARK    3  A    between atoms: C_12  and  C_13 
REMARK       I    between atoms: C_13  and  N_14 
REMARK    4  A    between atoms: N_14  and  C_15 
REMARK    5  A    between atoms: C_17  and  O_18 
REMARK    6  A    between atoms: C_23  and  C_24 
ROOT
HETATM    1  C   UNL     1      41.768 -14.856   1.738  1.00  0.00     0.118 C 
HETATM    2  N   UNL     1      42.114 -14.007   2.888  1.00  0.00    -0.365 N 
HETATM    3  C   UNL     1      42.443 -14.580   4.084  1.00  0.00     0.138 A 
HETATM    4  N   UNL     1      42.293 -15.935   4.279  1.00  0.00    -0.240 N 
HETATM    5  N   UNL     1      42.608 -16.355   5.510  1.00  0.00    -0.181 NA
HETATM    6  C   UNL     1      43.048 -15.245   6.103  1.00  0.00     0.160 A 
HETATM    7  C   UNL     1      42.957 -14.096   5.276  1.00  0.00     0.096 A 
HETATM    8  C   UNL     1      41.856 -16.874   3.265  1.00  0.00     0.221 C 
HETATM    9  C   UNL     1      41.040 -16.129   2.205  1.00  0.00     0.066 C 
HETATM   10  H   UNL     1      42.614 -13.167   2.593  1.00  0.00     0.161 HD
ENDROOT
BRANCH   7  11
HETATM   11  C   UNL     1      43.352 -12.754   5.674  1.00  0.00     0.261 C 
HETATM   12  N   UNL     1      44.106 -12.700   6.831  1.00  0.00    -0.323 N 
HETATM   13  H   UNL     1      44.404 -13.596   7.200  1.00  0.00     0.169 HD
HETATM   14  O   UNL     1      43.037 -11.793   4.981  1.00  0.00    -0.267 OA
BRANCH  12  15
HETATM   15  C   UNL     1      44.566 -11.545   7.499  1.00  0.00     0.037 A 
HETATM   16  C   UNL     1      45.738 -10.863   7.157  1.00  0.00     0.066 A 
HETATM   17  C   UNL     1      46.115  -9.724   7.866  1.00  0.00     0.067 A 
HETATM   18  C   UNL     1      45.339  -9.242   8.912  1.00  0.00     0.036 A 
HETATM   19  C   UNL     1      44.168  -9.911   9.257  1.00  0.00     0.005 A 
HETATM   20  C   UNL     1      43.784 -11.058   8.554  1.00  0.00     0.029 A 
BRANCH  17  21
HETATM   21  O   UNL     1      47.257  -9.042   7.556  1.00  0.00    -0.361 OA
HETATM   22  H   UNL     1      47.460  -9.196   6.617  1.00  0.00     0.217 HD
ENDBRANCH  17  21
ENDBRANCH  12  15
ENDBRANCH   7  11
BRANCH   1  23
HETATM   23  C   UNL     1      40.901 -14.094   0.755  1.00  0.00    -0.033 A 
HETATM   24  C   UNL     1      40.084 -14.761  -0.175  1.00  0.00     0.046 A 
HETATM   25  C   UNL     1      39.384 -14.059  -1.160  1.00  0.00     0.068 A 
HETATM   26  C   UNL     1      39.464 -12.667  -1.198  1.00  0.00     0.037 A 
HETATM   27  C   UNL     1      40.252 -11.988  -0.268  1.00  0.00     0.003 A 
HETATM   28  C   UNL     1      40.972 -12.694   0.697  1.00  0.00     0.009 A 
BRANCH  25  29
HETATM   29  O   UNL     1      38.662 -14.840  -2.020  1.00  0.00    -0.356 OA
HETATM   30  C   UNL     1      38.547 -14.368  -3.358  1.00  0.00     0.210 C 
ENDBRANCH  25  29
ENDBRANCH   1  23
BRANCH   8  31
HETATM   31  C   UNL     1      43.052 -17.592   2.678  1.00  0.00     0.409 C 
HETATM   32  F   UNL     1      43.919 -18.030   3.618  1.00  0.00    -0.169 F 
HETATM   33  F   UNL     1      42.714 -18.646   1.908  1.00  0.00    -0.169 F 
HETATM   34  F   UNL     1      43.752 -16.741   1.881  1.00  0.00    -0.169 F 
ENDBRANCH   8  31
TORSDOF 6
ENDMDL
MODEL 5
REMARK VINA RESULT:      -9.3      1.639      2.070
REMARK  6 active torsions:
REMARK  status: ('A' for Active; 'I' for Inactive)
REMARK    1  A    between atoms: O_2  and  C_3 
REMARK    2  A    between atoms: C_5  and  C_6 
REMARK    3  A    between atoms: C_12  and  C_13 
REMARK       I    between atoms: C_13  and  N_14 
REMARK    4  A    between atoms: N_14  and  C_15 
REMARK    5  A    between atoms: C_17  and  O_18 
REMARK    6  A    between atoms: C_23  and  C_24 
ROOT
HETATM    1  C   UNL     1      42.703 -16.330   3.846  1.00  0.00     0.118 C 
HETATM    2  N   UNL     1      43.094 -15.271   4.789  1.00  0.00    -0.365 N 
HETATM    3  C   UNL     1      43.178 -13.976   4.363  1.00  0.00     0.138 A 
HETATM    4  N   UNL     1      43.066 -13.668   3.026  1.00  0.00    -0.240 N 
HETATM    5  N   UNL     1      43.214 -12.368   2.743  1.00  0.00    -0.181 NA
HETATM    6  C   UNL     1      43.350 -11.811   3.947  1.00  0.00     0.160 A 
HETATM    7  C   UNL     1      43.354 -12.760   5.003  1.00  0.00     0.096 A 
HETATM    8  C   UNL     1      42.791 -14.627   1.975  1.00  0.00     0.221 C 
HETATM    9  C   UNL     1      43.231 -16.020   2.434  1.00  0.00     0.066 C 
HETATM   10  H   UNL     1      42.735 -15.457   5.727  1.00  0.00     0.161 HD
ENDROOT
BRANCH   7  11
HETATM   11  C   UNL     1      43.501 -12.431   6.412  1.00  0.00     0.261 C 
HETATM   12  N   UNL     1      43.619 -11.080   6.674  1.00  0.00    -0.323 N 
HETATM   13  H   UNL     1      43.464 -10.466   5.882  1.00  0.00     0.169 HD
HETATM   14  O   UNL     1      43.484 -13.323   7.253  1.00  0.00    -0.267 OA
BRANCH  12  15
HETATM   15  C   UNL     1      43.848 -10.468   7.925  1.00  0.00     0.037 A 
HETATM   16  C   UNL     1      42.857  -9.817   8.667  1.00  0.00     0.066 A 
HETATM   17  C   UNL     1      43.170  -9.246   9.899  1.00  0.00     0.067 A 
HETATM   18  C   UNL     1      44.456  -9.317  10.416  1.00  0.00     0.036 A 
HETATM   19  C   UNL     1      45.448  -9.967   9.688  1.00  0.00     0.005 A 
HETATM   20  C   UNL     1      45.146 -10.539   8.447  1.00  0.00     0.029 A 
BRANCH  17  21
HETATM   21  O   UNL     1      42.222  -8.599  10.641  1.00  0.00    -0.361 OA
HETATM   22  H   UNL     1      42.623  -7.798  11.019  1.00  0.00     0.217 HD
ENDBRANCH  17  21
ENDBRANCH  12  15
ENDBRANCH   7  11
BRANCH   1  23
HETATM   23  C   UNL     1      43.224 -17.676   4.311  1.00  0.00    -0.033 A 
HETATM   24  C   UNL     1      43.477 -18.719   3.402  1.00  0.00     0.046 A 
HETATM   25  C   UNL     1      43.837 -19.995   3.845  1.00  0.00     0.068 A 
HETATM   26  C   UNL     1      43.989 -20.229   5.211  1.00  0.00     0.037 A 
HETATM   27  C   UNL     1      43.764 -19.199   6.125  1.00  0.00     0.003 A 
HETATM   28  C   UNL     1      43.378 -17.933   5.682  1.00  0.00     0.009 A 
BRANCH  25  29
HETATM   29  O   UNL     1      44.011 -20.921   2.853  1.00  0.00    -0.356 OA
HETATM   30  C   UNL     1      43.626 -20.522   1.542  1.00  0.00     0.210 C 
ENDBRANCH  25  29
ENDBRANCH   1  23
BRANCH   8  31
HETATM   31  C   UNL     1      41.324 -14.576   1.602  1.00  0.00     0.409 C 
HETATM   32  F   UNL     1      40.530 -14.208   2.633  1.00  0.00    -0.169 F 
HETATM   33  F   UNL     1      41.068 -13.747   0.570  1.00  0.00    -0.169 F 
HETATM   34  F   UNL     1      40.905 -15.810   1.219  1.00  0.00    -0.169 F 
ENDBRANCH   8  31
TORSDOF 6
ENDMDL
MODEL 6
REMARK VINA RESULT:      -9.1      3.285      7.413
REMARK  6 active torsions:
REMARK  status: ('A' for Active; 'I' for Inactive)
REMARK    1  A    between atoms: O_2  and  C_3 
REMARK    2  A    between atoms: C_5  and  C_6 
REMARK    3  A    between atoms: C_12  and  C_13 
REMARK       I    between atoms: C_13  and  N_14 
REMARK    4  A    between atoms: N_14  and  C_15 
REMARK    5  A    between atoms: C_17  and  O_18 
REMARK    6  A    between atoms: C_23  and  C_24 
ROOT
HETATM    1  C   UNL     1      40.674 -12.812   1.371  1.00  0.00     0.118 C 
HETATM    2  N   UNL     1      41.239 -13.968   2.085  1.00  0.00    -0.365 N 
HETATM    3  C   UNL     1      41.944 -13.778   3.239  1.00  0.00     0.138 A 
HETATM    4  N   UNL     1      42.279 -12.510   3.657  1.00  0.00    -0.240 N 
HETATM    5  N   UNL     1      43.010 -12.471   4.778  1.00  0.00    -0.181 NA
HETATM    6  C   UNL     1      43.083 -13.754   5.134  1.00  0.00     0.160 A 
HETATM    7  C   UNL     1      42.453 -14.627   4.209  1.00  0.00     0.096 A 
HETATM    8  C   UNL     1      41.882 -11.286   2.990  1.00  0.00     0.221 C 
HETATM    9  C   UNL     1      41.591 -11.585   1.517  1.00  0.00     0.066 C 
HETATM   10  H   UNL     1      40.630 -14.785   2.010  1.00  0.00     0.161 HD
ENDROOT
BRANCH   7  11
HETATM   11  C   UNL     1      42.395 -16.074   4.342  1.00  0.00     0.261 C 
HETATM   12  N   UNL     1      43.410 -16.749   3.692  1.00  0.00    -0.323 N 
HETATM   13  H   UNL     1      44.145 -16.166   3.307  1.00  0.00     0.169 HD
HETATM   14  O   UNL     1      41.509 -16.591   5.014  1.00  0.00    -0.267 OA
BRANCH  12  15
HETATM   15  C   UNL     1      43.574 -18.146   3.579  1.00  0.00     0.037 A 
HETATM   16  C   UNL     1      44.070 -18.957   4.605  1.00  0.00     0.066 A 
HETATM   17  C   UNL     1      44.191 -20.332   4.410  1.00  0.00     0.067 A 
HETATM   18  C   UNL     1      43.818 -20.921   3.210  1.00  0.00     0.036 A 
HETATM   19  C   UNL     1      43.318 -20.123   2.185  1.00  0.00     0.005 A 
HETATM   20  C   UNL     1      43.197 -18.742   2.368  1.00  0.00     0.029 A 
BRANCH  17  21
HETATM   21  O   UNL     1      44.678 -21.146   5.392  1.00  0.00    -0.361 OA
HETATM   22  H   UNL     1      44.065 -21.117   6.147  1.00  0.00     0.217 HD
ENDBRANCH  17  21
ENDBRANCH  12  15
ENDBRANCH   7  11
BRANCH   1  23
HETATM   23  C   UNL     1      40.473 -13.138  -0.096  1.00  0.00    -0.033 A 
HETATM   24  C   UNL     1      40.850 -12.238  -1.107  1.00  0.00     0.046 A 
HETATM   25  C   UNL     1      40.550 -12.487  -2.449  1.00  0.00     0.068 A 
HETATM   26  C   UNL     1      39.900 -13.669  -2.798  1.00  0.00     0.037 A 
HETATM   27  C   UNL     1      39.538 -14.585  -1.809  1.00  0.00     0.003 A 
HETATM   28  C   UNL     1      39.815 -14.321  -0.467  1.00  0.00     0.009 A 
BRANCH  25  29
HETATM   29  O   UNL     1      40.941 -11.505  -3.318  1.00  0.00    -0.356 OA
HETATM   30  C   UNL     1      40.921 -10.172  -2.817  1.00  0.00     0.210 C 
ENDBRANCH  25  29
ENDBRANCH   1  23
BRANCH   8  31
HETATM   31  C   UNL     1      40.696 -10.672   3.703  1.00  0.00     0.409 C 
HETATM   32  F   UNL     1      39.926  -9.915   2.891  1.00  0.00    -0.169 F 
HETATM   33  F   UNL     1      39.898 -11.588   4.289  1.00  0.00    -0.169 F 
HETATM   34  F   UNL     1      41.131  -9.849   4.693  1.00  0.00    -0.169 F 
ENDBRANCH   8  31
TORSDOF 6
ENDMDL
MODEL 7
REMARK VINA RESULT:      -9.1      1.676      2.351
REMARK  6 active torsions:
REMARK  status: ('A' for Active; 'I' for Inactive)
REMARK    1  A    between atoms: O_2  and  C_3 
REMARK    2  A    between atoms: C_5  and  C_6 
REMARK    3  A    between atoms: C_12  and  C_13 
REMARK       I    between atoms: C_13  and  N_14 
REMARK    4  A    between atoms: N_14  and  C_15 
REMARK    5  A    between atoms: C_17  and  O_18 
REMARK    6  A    between atoms: C_23  and  C_24 
ROOT
HETATM    1  C   UNL     1      42.206 -15.286   3.132  1.00  0.00     0.118 C 
HETATM    2  N   UNL     1      42.694 -14.389   4.191  1.00  0.00    -0.365 N 
HETATM    3  C   UNL     1      42.764 -13.044   3.966  1.00  0.00     0.138 A 
HETATM    4  N   UNL     1      42.544 -12.529   2.708  1.00  0.00    -0.240 N 
HETATM    5  N   UNL     1      42.689 -11.201   2.620  1.00  0.00    -0.181 NA
HETATM    6  C   UNL     1      42.936 -10.841   3.881  1.00  0.00     0.160 A 
HETATM    7  C   UNL     1      43.013 -11.944   4.771  1.00  0.00     0.096 A 
HETATM    8  C   UNL     1      42.163 -13.311   1.548  1.00  0.00     0.221 C 
HETATM    9  C   UNL     1      42.617 -14.759   1.745  1.00  0.00     0.066 C 
HETATM   10  H   UNL     1      42.412 -14.719   5.116  1.00  0.00     0.161 HD
ENDROOT
BRANCH   7  11
HETATM   11  C   UNL     1      43.285 -11.841   6.196  1.00  0.00     0.261 C 
HETATM   12  N   UNL     1      43.395 -10.546   6.664  1.00  0.00    -0.323 N 
HETATM   13  H   UNL     1      43.151  -9.819   6.001  1.00  0.00     0.169 HD
HETATM   14  O   UNL     1      43.370 -12.857   6.877  1.00  0.00    -0.267 OA
BRANCH  12  15
HETATM   15  C   UNL     1      43.726 -10.135   7.974  1.00  0.00     0.037 A 
HETATM   16  C   UNL     1      42.795  -9.646   8.895  1.00  0.00     0.066 A 
HETATM   17  C   UNL     1      43.209  -9.270  10.172  1.00  0.00     0.067 A 
HETATM   18  C   UNL     1      44.539  -9.378  10.555  1.00  0.00     0.036 A 
HETATM   19  C   UNL     1      45.472  -9.869   9.646  1.00  0.00     0.005 A 
HETATM   20  C   UNL     1      45.068 -10.244   8.361  1.00  0.00     0.029 A 
BRANCH  17  21
HETATM   21  O   UNL     1      42.322  -8.784  11.089  1.00  0.00    -0.361 OA
HETATM   22  H   UNL     1      41.687  -9.489  11.305  1.00  0.00     0.217 HD
ENDBRANCH  17  21
ENDBRANCH  12  15
ENDBRANCH   7  11
BRANCH   1  23
HETATM   23  C   UNL     1      42.741 -16.690   3.333  1.00  0.00    -0.033 A 
HETATM   24  C   UNL     1      43.023 -17.192   4.616  1.00  0.00     0.046 A 
HETATM   25  C   UNL     1      43.632 -18.438   4.789  1.00  0.00     0.068 A 
HETATM   26  C   UNL     1      43.930 -19.217   3.673  1.00  0.00     0.037 A 
HETATM   27  C   UNL     1      43.636 -18.744   2.393  1.00  0.00     0.003 A 
HETATM   28  C   UNL     1      43.053 -17.488   2.221  1.00  0.00     0.009 A 
BRANCH  25  29
HETATM   29  O   UNL     1      43.883 -18.779   6.090  1.00  0.00    -0.356 OA
HETATM   30  C   UNL     1      43.493 -17.832   7.079  1.00  0.00     0.210 C 
ENDBRANCH  25  29
ENDBRANCH   1  23
BRANCH   8  31
HETATM   31  C   UNL     1      40.672 -13.196   1.317  1.00  0.00     0.409 C 
HETATM   32  F   UNL     1      40.140 -14.299   0.745  1.00  0.00    -0.169 F 
HETATM   33  F   UNL     1      39.978 -12.942   2.445  1.00  0.00    -0.169 F 
HETATM   34  F   UNL     1      40.418 -12.166   0.467  1.00  0.00    -0.169 F 
ENDBRANCH   8  31
TORSDOF 6
ENDMDL
MODEL 8
REMARK VINA RESULT:      -8.9      3.577      8.010
REMARK  6 active torsions:
REMARK  status: ('A' for Active; 'I' for Inactive)
REMARK    1  A    between atoms: O_2  and  C_3 
REMARK    2  A    between atoms: C_5  and  C_6 
REMARK    3  A    between atoms: C_12  and  C_13 
REMARK       I    between atoms: C_13  and  N_14 
REMARK    4  A    between atoms: N_14  and  C_15 
REMARK    5  A    between atoms: C_17  and  O_18 
REMARK    6  A    between atoms: C_23  and  C_24 
ROOT
HETATM    1  C   UNL     1      42.818 -14.552   5.779  1.00  0.00     0.118 C 
HETATM    2  N   UNL     1      42.134 -14.607   4.478  1.00  0.00    -0.365 N 
HETATM    3  C   UNL     1      42.285 -15.702   3.675  1.00  0.00     0.138 A 
HETATM    4  N   UNL     1      43.200 -16.682   3.987  1.00  0.00    -0.240 N 
HETATM    5  N   UNL     1      43.278 -17.673   3.090  1.00  0.00    -0.181 NA
HETATM    6  C   UNL     1      42.326 -17.358   2.211  1.00  0.00     0.160 A 
HETATM    7  C   UNL     1      41.677 -16.131   2.506  1.00  0.00     0.096 A 
HETATM    8  C   UNL     1      44.020 -16.699   5.182  1.00  0.00     0.221 C 
HETATM    9  C   UNL     1      44.178 -15.269   5.706  1.00  0.00     0.066 C 
HETATM   10  H   UNL     1      41.222 -14.150   4.518  1.00  0.00     0.161 HD
ENDROOT
BRANCH   7  11
HETATM   11  C   UNL     1      40.614 -15.542   1.707  1.00  0.00     0.261 C 
HETATM   12  N   UNL     1      41.051 -14.854   0.592  1.00  0.00    -0.323 N 
HETATM   13  H   UNL     1      42.040 -14.940   0.385  1.00  0.00     0.169 HD
HETATM   14  O   UNL     1      39.443 -15.705   2.032  1.00  0.00    -0.267 OA
BRANCH  12  15
HETATM   15  C   UNL     1      40.266 -14.120  -0.323  1.00  0.00     0.037 A 
HETATM   16  C   UNL     1      39.923 -14.580  -1.598  1.00  0.00     0.066 A 
HETATM   17  C   UNL     1      39.134 -13.791  -2.435  1.00  0.00     0.067 A 
HETATM   18  C   UNL     1      38.672 -12.549  -2.024  1.00  0.00     0.036 A 
HETATM   19  C   UNL     1      39.004 -12.085  -0.754  1.00  0.00     0.005 A 
HETATM   20  C   UNL     1      39.798 -12.866   0.092  1.00  0.00     0.029 A 
BRANCH  17  21
HETATM   21  O   UNL     1      38.790 -14.214  -3.687  1.00  0.00    -0.361 OA
HETATM   22  H   UNL     1      37.908 -14.624  -3.641  1.00  0.00     0.217 HD
ENDBRANCH  17  21
ENDBRANCH  12  15
ENDBRANCH   7  11
BRANCH   1  23
HETATM   23  C   UNL     1      43.013 -13.114   6.219  1.00  0.00    -0.033 A 
HETATM   24  C   UNL     1      44.119 -12.726   6.994  1.00  0.00     0.046 A 
HETATM   25  C   UNL     1      44.230 -11.428   7.501  1.00  0.00     0.068 A 
HETATM   26  C   UNL     1      43.246 -10.488   7.199  1.00  0.00     0.037 A 
HETATM   27  C   UNL     1      42.153 -10.850   6.411  1.00  0.00     0.003 A 
HETATM   28  C   UNL     1      42.031 -12.154   5.929  1.00  0.00     0.009 A 
BRANCH  25  29
HETATM   29  O   UNL     1      45.338 -11.205   8.273  1.00  0.00    -0.356 OA
HETATM   30  C   UNL     1      45.852  -9.878   8.271  1.00  0.00     0.210 C 
ENDBRANCH  25  29
ENDBRANCH   1  23
BRANCH   8  31
HETATM   31  C   UNL     1      43.414 -17.630   6.209  1.00  0.00     0.409 C 
HETATM   32  F   UNL     1      42.063 -17.579   6.237  1.00  0.00    -0.169 F 
HETATM   33  F   UNL     1      43.773 -18.919   6.035  1.00  0.00    -0.169 F 
HETATM   34  F   UNL     1      43.834 -17.278   7.453  1.00  0.00    -0.169 F 
ENDBRANCH   8  31
TORSDOF 6
ENDMDL
MODEL 9
REMARK VINA RESULT:      -8.8      1.501      2.316
REMARK  6 active torsions:
REMARK  status: ('A' for Active; 'I' for Inactive)
REMARK    1  A    between atoms: O_2  and  C_3 
REMARK    2  A    between atoms: C_5  and  C_6 
REMARK    3  A    between atoms: C_12  and  C_13 
REMARK       I    between atoms: C_13  and  N_14 
REMARK    4  A    between atoms: N_14  and  C_15 
REMARK    5  A    between atoms: C_17  and  O_18 
REMARK    6  A    between atoms: C_23  and  C_24 
ROOT
HETATM    1  C   UNL     1      41.854 -15.632   2.902  1.00  0.00     0.118 C 
HETATM    2  N   UNL     1      42.110 -14.556   3.870  1.00  0.00    -0.365 N 
HETATM    3  C   UNL     1      42.003 -13.250   3.482  1.00  0.00     0.138 A 
HETATM    4  N   UNL     1      41.823 -12.924   2.156  1.00  0.00    -0.240 N 
HETATM    5  N   UNL     1      41.781 -11.609   1.911  1.00  0.00    -0.181 NA
HETATM    6  C   UNL     1      41.860 -11.072   3.129  1.00  0.00     0.160 A 
HETATM    7  C   UNL     1      42.017 -12.040   4.156  1.00  0.00     0.096 A 
HETATM    8  C   UNL     1      41.665 -13.883   1.081  1.00  0.00     0.221 C 
HETATM    9  C   UNL     1      42.305 -15.212   1.492  1.00  0.00     0.066 C 
HETATM   10  H   UNL     1      41.799 -14.816   4.807  1.00  0.00     0.161 HD
ENDROOT
BRANCH   7  11
HETATM   11  C   UNL     1      42.144 -11.733   5.572  1.00  0.00     0.261 C 
HETATM   12  N   UNL     1      42.946 -10.643   5.850  1.00  0.00    -0.323 N 
HETATM   13  H   UNL     1      43.251 -10.108   5.045  1.00  0.00     0.169 HD
HETATM   14  O   UNL     1      41.539 -12.405   6.400  1.00  0.00    -0.267 OA
BRANCH  12  15
HETATM   15  C   UNL     1      43.315 -10.155   7.123  1.00  0.00     0.037 A 
HETATM   16  C   UNL     1      44.241 -10.786   7.960  1.00  0.00     0.066 A 
HETATM   17  C   UNL     1      44.552 -10.228   9.200  1.00  0.00     0.067 A 
HETATM   18  C   UNL     1      43.963  -9.045   9.622  1.00  0.00     0.036 A 
HETATM   19  C   UNL     1      43.044  -8.408   8.793  1.00  0.00     0.005 A 
HETATM   20  C   UNL     1      42.720  -8.961   7.550  1.00  0.00     0.029 A 
BRANCH  17  21
HETATM   21  O   UNL     1      45.449 -10.826  10.039  1.00  0.00    -0.361 OA
HETATM   22  H   UNL     1      44.953 -11.336  10.703  1.00  0.00     0.217 HD
ENDBRANCH  17  21
ENDBRANCH  12  15
ENDBRANCH   7  11
BRANCH   1  23
HETATM   23  C   UNL     1      42.568 -16.904   3.317  1.00  0.00    -0.033 A 
HETATM   24  C   UNL     1      42.807 -17.204   4.670  1.00  0.00     0.046 A 
HETATM   25  C   UNL     1      43.573 -18.312   5.042  1.00  0.00     0.068 A 
HETATM   26  C   UNL     1      44.077 -19.160   4.057  1.00  0.00     0.037 A 
HETATM   27  C   UNL     1      43.830 -18.889   2.710  1.00  0.00     0.003 A 
HETATM   28  C   UNL     1      43.087 -17.767   2.340  1.00  0.00     0.009 A 
BRANCH  25  29
HETATM   29  O   UNL     1      43.757 -18.457   6.390  1.00  0.00    -0.356 OA
HETATM   30  C   UNL     1      43.574 -17.289   7.183  1.00  0.00     0.210 C 
ENDBRANCH  25  29
ENDBRANCH   1  23
BRANCH   8  31
HETATM   31  C   UNL     1      40.199 -14.029   0.733  1.00  0.00     0.409 C 
HETATM   32  F   UNL     1      39.793 -13.160  -0.219  1.00  0.00    -0.169 F 
HETATM   33  F   UNL     1      39.872 -15.271   0.322  1.00  0.00    -0.169 F 
HETATM   34  F   UNL     1      39.439 -13.774   1.831  1.00  0.00    -0.169 F 
ENDBRANCH   8  31
TORSDOF 6
ENDMDL
MODEL 10
REMARK VINA RESULT:      -8.7      2.711      5.250
REMARK  6 active torsions:
REMARK  status: ('A' for Active; 'I' for Inactive)
REMARK    1  A    between atoms: O_2  and  C_3 
REMARK    2  A    between atoms: C_5  and  C_6 
REMARK    3  A    between atoms: C_12  and  C_13 
REMARK       I    between atoms: C_13  and  N_14 
REMARK    4  A    between atoms: N_14  and  C_15 
REMARK    5  A    between atoms: C_17  and  O_18 
REMARK    6  A    between atoms: C_23  and  C_24 
ROOT
HETATM    1  C   UNL     1      41.575 -14.707   1.708  1.00  0.00     0.118 C 
HETATM    2  N   UNL     1      42.024 -13.842   2.810  1.00  0.00    -0.365 N 
HETATM    3  C   UNL     1      42.461 -14.399   3.978  1.00  0.00     0.138 A 
HETATM    4  N   UNL     1      42.331 -15.751   4.204  1.00  0.00    -0.240 N 
HETATM    5  N   UNL     1      42.758 -16.155   5.407  1.00  0.00    -0.181 NA
HETATM    6  C   UNL     1      43.248 -15.037   5.943  1.00  0.00     0.160 A 
HETATM    7  C   UNL     1      43.081 -13.899   5.112  1.00  0.00     0.096 A 
HETATM    8  C   UNL     1      41.805 -16.704   3.247  1.00  0.00     0.221 C 
HETATM    9  C   UNL     1      40.895 -15.973   2.256  1.00  0.00     0.066 C 
HETATM   10  H   UNL     1      42.493 -13.005   2.460  1.00  0.00     0.161 HD
ENDROOT
BRANCH   7  11
HETATM   11  C   UNL     1      43.508 -12.552   5.455  1.00  0.00     0.261 C 
HETATM   12  N   UNL     1      44.072 -12.433   6.711  1.00  0.00    -0.323 N 
HETATM   13  H   UNL     1      44.240 -13.306   7.198  1.00  0.00     0.169 HD
HETATM   14  O   UNL     1      43.380 -11.644   4.641  1.00  0.00    -0.267 OA
BRANCH  12  15
HETATM   15  C   UNL     1      44.507 -11.250   7.346  1.00  0.00     0.037 A 
HETATM   16  C   UNL     1      43.677 -10.430   8.117  1.00  0.00     0.066 A 
HETATM   17  C   UNL     1      44.194  -9.281   8.715  1.00  0.00     0.067 A 
HETATM   18  C   UNL     1      45.529  -8.934   8.567  1.00  0.00     0.036 A 
HETATM   19  C   UNL     1      46.364  -9.747   7.805  1.00  0.00     0.005 A 
HETATM   20  C   UNL     1      45.855 -10.899   7.196  1.00  0.00     0.029 A 
BRANCH  17  21
HETATM   21  O   UNL     1      43.404  -8.460   9.469  1.00  0.00    -0.361 OA
HETATM   22  H   UNL     1      42.635  -8.972   9.776  1.00  0.00     0.217 HD
ENDBRANCH  17  21
ENDBRANCH  12  15
ENDBRANCH   7  11
BRANCH   1  23
HETATM   23  C   UNL     1      40.621 -13.958   0.798  1.00  0.00    -0.033 A 
HETATM   24  C   UNL     1      40.015 -12.754   1.198  1.00  0.00     0.046 A 
HETATM   25  C   UNL     1      39.044 -12.133   0.409  1.00  0.00     0.068 A 
HETATM   26  C   UNL     1      38.696 -12.695  -0.819  1.00  0.00     0.037 A 
HETATM   27  C   UNL     1      39.305 -13.878  -1.243  1.00  0.00     0.003 A 
HETATM   28  C   UNL     1      40.255 -14.510  -0.440  1.00  0.00     0.009 A 
BRANCH  25  29
HETATM   29  O   UNL     1      38.512 -10.992   0.943  1.00  0.00    -0.356 OA
HETATM   30  C   UNL     1      37.099 -10.972   1.113  1.00  0.00     0.210 C 
ENDBRANCH  25  29
ENDBRANCH   1  23
BRANCH   8  31
HETATM   31  C   UNL     1      42.944 -17.429   2.563  1.00  0.00     0.409 C 
HETATM   32  F   UNL     1      43.987 -17.673   3.388  1.00  0.00    -0.169 F 
HETATM   33  F   UNL     1      42.572 -18.603   2.012  1.00  0.00    -0.169 F 
HETATM   34  F   UNL     1      43.431 -16.665   1.549  1.00  0.00    -0.169 F 
ENDBRANCH   8  31
TORSDOF 6
ENDMDL
