MODEL 1
REMARK VINA RESULT:      -9.0      0.000      0.000
REMARK  5 active torsions:
REMARK  status: ('A' for Active; 'I' for Inactive)
REMARK    1  A    between atoms: C_4  and  C_5 
REMARK    2  A    between atoms: N_7  and  C_8 
REMARK    3  A    between atoms: C_8  and  C_9 
REMARK    4  A    between atoms: C_9  and  N_10 
REMARK       I    between atoms: N_10  and  C_11 
REMARK    5  A    between atoms: C_11  and  C_12 
ROOT
HETATM    1  N   UNL     1      41.193 -14.898   0.407  1.00  0.00    -0.359 N 
HETATM    2  C   UNL     1      41.369 -15.234   1.733  1.00  0.00     0.230 C 
HETATM    3  O   UNL     1      40.440 -15.616   2.447  1.00  0.00    -0.272 OA
HETATM    4  H   UNL     1      41.962 -14.445  -0.073  1.00  0.00     0.162 HD
ENDROOT
BRANCH   1   5
HETATM    5  C   UNL     1      39.878 -14.812  -0.210  1.00  0.00     0.144 C 
BRANCH   5   6
HETATM    6  C   UNL     1      39.610 -13.521  -0.987  1.00  0.00     0.174 C 
BRANCH   6   7
HETATM    7  N   UNL     1      38.893 -12.545  -0.168  1.00  0.00    -0.233 N 
HETATM    8  N   UNL     1      39.232 -12.512   1.167  1.00  0.00    -0.169 NA
HETATM    9  C   UNL     1      38.660 -11.626   1.924  1.00  0.00     0.087 A 
HETATM   10  C   UNL     1      37.632 -10.677   1.444  1.00  0.00     0.040 A 
HETATM   11  C   UNL     1      37.354 -10.695   0.140  1.00  0.00     0.078 A 
HETATM   12  C   UNL     1      38.037 -11.635  -0.771  1.00  0.00     0.263 A 
HETATM   13  O   UNL     1      37.807 -11.568  -1.976  1.00  0.00    -0.267 OA
BRANCH   9  14
HETATM   14  C   UNL     1      39.027 -11.563   3.370  1.00  0.00    -0.006 A 
HETATM   15  C   UNL     1      39.087 -10.350   4.069  1.00  0.00     0.014 A 
HETATM   16  C   UNL     1      39.447 -10.335   5.419  1.00  0.00     0.001 A 
HETATM   17  C   UNL     1      39.759 -11.525   6.074  1.00  0.00     0.000 A 
HETATM   18  C   UNL     1      39.719 -12.734   5.380  1.00  0.00     0.001 A 
HETATM   19  C   UNL     1      39.360 -12.753   4.031  1.00  0.00     0.014 A 
ENDBRANCH   9  14
ENDBRANCH   6   7
ENDBRANCH   5   6
ENDBRANCH   1   5
BRANCH   2  20
HETATM   20  C   UNL     1      42.786 -15.041   2.306  1.00  0.00     0.149 C 
HETATM   21  C   UNL     1      43.226 -16.286   3.042  1.00  0.00    -0.007 A 
HETATM   22  C   UNL     1      43.450 -16.246   4.419  1.00  0.00     0.083 A 
HETATM   23  C   UNL     1      43.398 -17.502   2.358  1.00  0.00     0.011 A 
HETATM   24  C   UNL     1      43.824 -17.402   5.108  1.00  0.00     0.038 A 
HETATM   25  O   UNL     1      43.321 -15.107   5.175  1.00  0.00    -0.310 OA
HETATM   26  C   UNL     1      43.989 -18.605   4.423  1.00  0.00     0.003 A 
HETATM   27  C   UNL     1      43.777 -18.654   3.046  1.00  0.00     0.001 A 
HETATM   28  C   UNL     1      43.173 -13.906   4.525  1.00  0.00     0.083 A 
HETATM   29  C   UNL     1      42.925 -13.795   3.154  1.00  0.00    -0.007 A 
HETATM   30  C   UNL     1      43.275 -12.762   5.321  1.00  0.00     0.038 A 
HETATM   31  C   UNL     1      42.794 -12.518   2.586  1.00  0.00     0.011 A 
HETATM   32  C   UNL     1      42.901 -11.376   3.382  1.00  0.00     0.001 A 
HETATM   33  C   UNL     1      43.140 -11.498   4.749  1.00  0.00     0.003 A 
ENDBRANCH   2  20
TORSDOF 5
ENDMDL
MODEL 2
REMARK VINA RESULT:      -9.0      1.628      1.873
REMARK  5 active torsions:
REMARK  status: ('A' for Active; 'I' for Inactive)
REMARK    1  A    between atoms: C_4  and  C_5 
REMARK    2  A    between atoms: N_7  and  C_8 
REMARK    3  A    between atoms: C_8  and  C_9 
REMARK    4  A    between atoms: C_9  and  N_10 
REMARK       I    between atoms: N_10  and  C_11 
REMARK    5  A    between atoms: C_11  and  C_12 
ROOT
HETATM    1  N   UNL     1      41.291 -15.667   1.337  1.00  0.00    -0.359 N 
HETATM    2  C   UNL     1      41.450 -15.992   2.668  1.00  0.00     0.230 C 
HETATM    3  O   UNL     1      40.493 -16.198   3.416  1.00  0.00    -0.272 OA
HETATM    4  H   UNL     1      42.109 -15.359   0.824  1.00  0.00     0.162 HD
ENDROOT
BRANCH   1   5
HETATM    5  C   UNL     1      39.990 -15.385   0.751  1.00  0.00     0.144 C 
BRANCH   5   6
HETATM    6  C   UNL     1      39.987 -14.296  -0.325  1.00  0.00     0.174 C 
BRANCH   6   7
HETATM    7  N   UNL     1      40.295 -12.984   0.241  1.00  0.00    -0.233 N 
HETATM    8  N   UNL     1      40.084 -12.848   1.597  1.00  0.00    -0.169 NA
HETATM    9  C   UNL     1      40.392 -11.717   2.155  1.00  0.00     0.087 A 
HETATM   10  C   UNL     1      40.920 -10.552   1.412  1.00  0.00     0.040 A 
HETATM   11  C   UNL     1      41.162 -10.722   0.112  1.00  0.00     0.078 A 
HETATM   12  C   UNL     1      40.896 -12.015  -0.548  1.00  0.00     0.263 A 
HETATM   13  O   UNL     1      41.202 -12.154  -1.730  1.00  0.00    -0.267 OA
BRANCH   9  14
HETATM   14  C   UNL     1      40.188 -11.556   3.625  1.00  0.00    -0.006 A 
HETATM   15  C   UNL     1      40.621 -10.416   4.315  1.00  0.00     0.014 A 
HETATM   16  C   UNL     1      40.420 -10.312   5.694  1.00  0.00     0.001 A 
HETATM   17  C   UNL     1      39.795 -11.345   6.391  1.00  0.00     0.000 A 
HETATM   18  C   UNL     1      39.376 -12.490   5.713  1.00  0.00     0.001 A 
HETATM   19  C   UNL     1      39.576 -12.598   4.336  1.00  0.00     0.014 A 
ENDBRANCH   9  14
ENDBRANCH   6   7
ENDBRANCH   5   6
ENDBRANCH   1   5
BRANCH   2  20
HETATM   20  C   UNL     1      42.896 -16.018   3.199  1.00  0.00     0.149 C 
HETATM   21  C   UNL     1      43.316 -17.438   3.502  1.00  0.00    -0.007 A 
HETATM   22  C   UNL     1      43.599 -17.823   4.814  1.00  0.00     0.083 A 
HETATM   23  C   UNL     1      43.411 -18.394   2.476  1.00  0.00     0.011 A 
HETATM   24  C   UNL     1      43.954 -19.142   5.103  1.00  0.00     0.038 A 
HETATM   25  O   UNL     1      43.546 -16.963   5.883  1.00  0.00    -0.310 OA
HETATM   26  C   UNL     1      44.042 -20.085   4.079  1.00  0.00     0.003 A 
HETATM   27  C   UNL     1      43.772 -19.710   2.765  1.00  0.00     0.001 A 
HETATM   28  C   UNL     1      43.420 -15.618   5.634  1.00  0.00     0.083 A 
HETATM   29  C   UNL     1      43.120 -15.091   4.374  1.00  0.00    -0.007 A 
HETATM   30  C   UNL     1      43.600 -14.772   6.730  1.00  0.00     0.038 A 
HETATM   31  C   UNL     1      43.016 -13.699   4.225  1.00  0.00     0.011 A 
HETATM   32  C   UNL     1      43.202 -12.855   5.321  1.00  0.00     0.001 A 
HETATM   33  C   UNL     1      43.492 -13.391   6.573  1.00  0.00     0.003 A 
ENDBRANCH   2  20
TORSDOF 5
ENDMDL
MODEL 3
REMARK VINA RESULT:      -8.4      4.597      7.164
REMARK  5 active torsions:
REMARK  status: ('A' for Active; 'I' for Inactive)
REMARK    1  A    between atoms: C_4  and  C_5 
REMARK    2  A    between atoms: N_7  and  C_8 
REMARK    3  A    between atoms: C_8  and  C_9 
REMARK    4  A    between atoms: C_9  and  N_10 
REMARK       I    between atoms: N_10  and  C_11 
REMARK    5  A    between atoms: C_11  and  C_12 
ROOT
HETATM    1  N   UNL     1      42.165 -13.400   5.760  1.00  0.00    -0.359 N 
HETATM    2  C   UNL     1      42.435 -13.713   4.444  1.00  0.00     0.230 C 
HETATM    3  O   UNL     1      43.310 -13.139   3.794  1.00  0.00    -0.272 OA
HETATM    4  H   UNL     1      41.334 -13.798   6.181  1.00  0.00     0.162 HD
ENDROOT
BRANCH   1   5
HETATM    5  C   UNL     1      42.777 -12.266   6.434  1.00  0.00     0.144 C 
BRANCH   5   6
HETATM    6  C   UNL     1      44.125 -12.558   7.100  1.00  0.00     0.174 C 
BRANCH   6   7
HETATM    7  N   UNL     1      44.648 -11.377   7.785  1.00  0.00    -0.233 N 
HETATM    8  N   UNL     1      44.004 -11.022   8.952  1.00  0.00    -0.169 NA
HETATM    9  C   UNL     1      44.465 -10.011   9.623  1.00  0.00     0.087 A 
HETATM   10  C   UNL     1      45.617  -9.192   9.187  1.00  0.00     0.040 A 
HETATM   11  C   UNL     1      46.253  -9.582   8.082  1.00  0.00     0.078 A 
HETATM   12  C   UNL     1      45.808 -10.771   7.328  1.00  0.00     0.263 A 
HETATM   13  O   UNL     1      46.466 -11.141   6.358  1.00  0.00    -0.267 OA
BRANCH   9  14
HETATM   14  C   UNL     1      43.793  -9.622  10.898  1.00  0.00    -0.006 A 
HETATM   15  C   UNL     1      43.711  -8.288  11.319  1.00  0.00     0.014 A 
HETATM   16  C   UNL     1      43.083  -7.970  12.526  1.00  0.00     0.001 A 
HETATM   17  C   UNL     1      42.544  -8.979  13.322  1.00  0.00     0.000 A 
HETATM   18  C   UNL     1      42.637 -10.311  12.919  1.00  0.00     0.001 A 
HETATM   19  C   UNL     1      43.264 -10.632  11.714  1.00  0.00     0.014 A 
ENDBRANCH   9  14
ENDBRANCH   6   7
ENDBRANCH   5   6
ENDBRANCH   1   5
BRANCH   2  20
HETATM   20  C   UNL     1      41.531 -14.779   3.795  1.00  0.00     0.149 C 
HETATM   21  C   UNL     1      42.304 -16.061   3.585  1.00  0.00    -0.007 A 
HETATM   22  C   UNL     1      42.552 -16.530   2.294  1.00  0.00     0.083 A 
HETATM   23  C   UNL     1      42.800 -16.789   4.681  1.00  0.00     0.011 A 
HETATM   24  C   UNL     1      43.294 -17.696   2.094  1.00  0.00     0.038 A 
HETATM   25  O   UNL     1      42.101 -15.899   1.160  1.00  0.00    -0.310 OA
HETATM   26  C   UNL     1      43.786 -18.409   3.187  1.00  0.00     0.003 A 
HETATM   27  C   UNL     1      43.537 -17.956   4.481  1.00  0.00     0.001 A 
HETATM   28  C   UNL     1      41.188 -14.882   1.298  1.00  0.00     0.083 A 
HETATM   29  C   UNL     1      40.858 -14.303   2.526  1.00  0.00    -0.007 A 
HETATM   30  C   UNL     1      40.592 -14.429   0.118  1.00  0.00     0.038 A 
HETATM   31  C   UNL     1      39.908 -13.269   2.558  1.00  0.00     0.011 A 
HETATM   32  C   UNL     1      39.309 -12.822   1.380  1.00  0.00     0.001 A 
HETATM   33  C   UNL     1      39.652 -13.401   0.160  1.00  0.00     0.003 A 
ENDBRANCH   2  20
TORSDOF 5
ENDMDL
MODEL 4
REMARK VINA RESULT:      -8.4      4.347      6.834
REMARK  5 active torsions:
REMARK  status: ('A' for Active; 'I' for Inactive)
REMARK    1  A    between atoms: C_4  and  C_5 
REMARK    2  A    between atoms: N_7  and  C_8 
REMARK    3  A    between atoms: C_8  and  C_9 
REMARK    4  A    between atoms: C_9  and  N_10 
REMARK       I    between atoms: N_10  and  C_11 
REMARK    5  A    between atoms: C_11  and  C_12 
ROOT
HETATM    1  N   UNL     1      41.536 -12.749   5.468  1.00  0.00    -0.359 N 
HETATM    2  C   UNL     1      40.606 -13.736   5.718  1.00  0.00     0.230 C 
HETATM    3  O   UNL     1      39.608 -13.543   6.414  1.00  0.00    -0.272 OA
HETATM    4  H   UNL     1      42.405 -13.019   5.023  1.00  0.00     0.162 HD
ENDROOT
BRANCH   1   5
HETATM    5  C   UNL     1      41.501 -11.455   6.133  1.00  0.00     0.144 C 
BRANCH   5   6
HETATM    6  C   UNL     1      42.627 -10.494   5.742  1.00  0.00     0.174 C 
BRANCH   6   7
HETATM    7  N   UNL     1      43.658 -10.433   6.776  1.00  0.00    -0.233 N 
HETATM    8  N   UNL     1      43.228 -10.079   8.037  1.00  0.00    -0.169 NA
HETATM    9  C   UNL     1      44.098 -10.061   8.999  1.00  0.00     0.087 A 
HETATM   10  C   UNL     1      45.535 -10.358   8.813  1.00  0.00     0.040 A 
HETATM   11  C   UNL     1      45.920 -10.744   7.596  1.00  0.00     0.078 A 
HETATM   12  C   UNL     1      44.949 -10.852   6.489  1.00  0.00     0.263 A 
HETATM   13  O   UNL     1      45.329 -11.283   5.403  1.00  0.00    -0.267 OA
BRANCH   9  14
HETATM   14  C   UNL     1      43.649  -9.698  10.376  1.00  0.00    -0.006 A 
HETATM   15  C   UNL     1      43.349 -10.669  11.341  1.00  0.00     0.014 A 
HETATM   16  C   UNL     1      42.919 -10.285  12.614  1.00  0.00     0.001 A 
HETATM   17  C   UNL     1      42.778  -8.934  12.927  1.00  0.00     0.000 A 
HETATM   18  C   UNL     1      43.058  -7.962  11.966  1.00  0.00     0.001 A 
HETATM   19  C   UNL     1      43.487  -8.342  10.694  1.00  0.00     0.014 A 
ENDBRANCH   9  14
ENDBRANCH   6   7
ENDBRANCH   5   6
ENDBRANCH   1   5
BRANCH   2  20
HETATM   20  C   UNL     1      40.913 -15.129   5.136  1.00  0.00     0.149 C 
HETATM   21  C   UNL     1      42.141 -15.713   5.796  1.00  0.00    -0.007 A 
HETATM   22  C   UNL     1      43.297 -15.946   5.049  1.00  0.00     0.083 A 
HETATM   23  C   UNL     1      42.145 -16.011   7.169  1.00  0.00     0.011 A 
HETATM   24  C   UNL     1      44.445 -16.453   5.661  1.00  0.00     0.038 A 
HETATM   25  O   UNL     1      43.390 -15.699   3.701  1.00  0.00    -0.310 OA
HETATM   26  C   UNL     1      44.442 -16.743   7.026  1.00  0.00     0.003 A 
HETATM   27  C   UNL     1      43.290 -16.523   7.779  1.00  0.00     0.001 A 
HETATM   28  C   UNL     1      42.239 -15.411   3.009  1.00  0.00     0.083 A 
HETATM   29  C   UNL     1      41.015 -15.138   3.626  1.00  0.00    -0.007 A 
HETATM   30  C   UNL     1      42.350 -15.394   1.616  1.00  0.00     0.038 A 
HETATM   31  C   UNL     1      39.896 -14.859   2.825  1.00  0.00     0.011 A 
HETATM   32  C   UNL     1      40.007 -14.847   1.434  1.00  0.00     0.001 A 
HETATM   33  C   UNL     1      41.233 -15.113   0.830  1.00  0.00     0.003 A 
ENDBRANCH   2  20
TORSDOF 5
ENDMDL
MODEL 5
REMARK VINA RESULT:      -8.3      2.310      4.866
REMARK  5 active torsions:
REMARK  status: ('A' for Active; 'I' for Inactive)
REMARK    1  A    between atoms: C_4  and  C_5 
REMARK    2  A    between atoms: N_7  and  C_8 
REMARK    3  A    between atoms: C_8  and  C_9 
REMARK    4  A    between atoms: C_9  and  N_10 
REMARK       I    between atoms: N_10  and  C_11 
REMARK    5  A    between atoms: C_11  and  C_12 
ROOT
HETATM    1  N   UNL     1      41.718 -14.304   2.514  1.00  0.00    -0.359 N 
HETATM    2  C   UNL     1      42.648 -15.301   2.722  1.00  0.00     0.230 C 
HETATM    3  O   UNL     1      43.717 -15.345   2.112  1.00  0.00    -0.272 OA
HETATM    4  H   UNL     1      40.801 -14.416   2.931  1.00  0.00     0.162 HD
ENDROOT
BRANCH   1   5
HETATM    5  C   UNL     1      41.852 -13.321   1.450  1.00  0.00     0.144 C 
BRANCH   5   6
HETATM    6  C   UNL     1      41.067 -12.024   1.663  1.00  0.00     0.174 C 
BRANCH   6   7
HETATM    7  N   UNL     1      40.871 -11.747   3.085  1.00  0.00    -0.233 N 
HETATM    8  N   UNL     1      42.017 -11.637   3.842  1.00  0.00    -0.169 NA
HETATM    9  C   UNL     1      41.896 -11.341   5.100  1.00  0.00     0.087 A 
HETATM   10  C   UNL     1      40.595 -11.154   5.778  1.00  0.00     0.040 A 
HETATM   11  C   UNL     1      39.502 -11.217   5.017  1.00  0.00     0.078 A 
HETATM   12  C   UNL     1      39.598 -11.478   3.566  1.00  0.00     0.263 A 
HETATM   13  O   UNL     1      38.574 -11.454   2.888  1.00  0.00    -0.267 OA
BRANCH   9  14
HETATM   14  C   UNL     1      43.127 -11.200   5.933  1.00  0.00    -0.006 A 
HETATM   15  C   UNL     1      44.361 -11.729   5.532  1.00  0.00     0.014 A 
HETATM   16  C   UNL     1      45.486 -11.584   6.349  1.00  0.00     0.001 A 
HETATM   17  C   UNL     1      45.383 -10.920   7.570  1.00  0.00     0.000 A 
HETATM   18  C   UNL     1      44.155 -10.405   7.983  1.00  0.00     0.001 A 
HETATM   19  C   UNL     1      43.029 -10.548   7.171  1.00  0.00     0.014 A 
ENDBRANCH   9  14
ENDBRANCH   6   7
ENDBRANCH   5   6
ENDBRANCH   1   5
BRANCH   2  20
HETATM   20  C   UNL     1      42.252 -16.410   3.716  1.00  0.00     0.149 C 
HETATM   21  C   UNL     1      42.548 -15.973   5.132  1.00  0.00    -0.007 A 
HETATM   22  C   UNL     1      43.510 -16.644   5.888  1.00  0.00     0.083 A 
HETATM   23  C   UNL     1      41.877 -14.877   5.701  1.00  0.00     0.011 A 
HETATM   24  C   UNL     1      43.812 -16.223   7.185  1.00  0.00     0.038 A 
HETATM   25  O   UNL     1      44.212 -17.731   5.428  1.00  0.00    -0.310 OA
HETATM   26  C   UNL     1      43.143 -15.132   7.741  1.00  0.00     0.003 A 
HETATM   27  C   UNL     1      42.174 -14.460   6.999  1.00  0.00     0.001 A 
HETATM   28  C   UNL     1      43.807 -18.321   4.256  1.00  0.00     0.083 A 
HETATM   29  C   UNL     1      42.867 -17.754   3.391  1.00  0.00    -0.007 A 
HETATM   30  C   UNL     1      44.400 -19.548   3.950  1.00  0.00     0.038 A 
HETATM   31  C   UNL     1      42.518 -18.442   2.217  1.00  0.00     0.011 A 
HETATM   32  C   UNL     1      43.108 -19.670   1.916  1.00  0.00     0.001 A 
HETATM   33  C   UNL     1      44.050 -20.222   2.781  1.00  0.00     0.003 A 
ENDBRANCH   2  20
TORSDOF 5
ENDMDL
MODEL 6
REMARK VINA RESULT:      -8.2     16.423     18.322
REMARK  5 active torsions:
REMARK  status: ('A' for Active; 'I' for Inactive)
REMARK    1  A    between atoms: C_4  and  C_5 
REMARK    2  A    between atoms: N_7  and  C_8 
REMARK    3  A    between atoms: C_8  and  C_9 
REMARK    4  A    between atoms: C_9  and  N_10 
REMARK       I    between atoms: N_10  and  C_11 
REMARK    5  A    between atoms: C_11  and  C_12 
ROOT
HETATM    1  N   UNL     1      45.123 -28.780   2.466  1.00  0.00    -0.359 N 
HETATM    2  C   UNL     1      46.218 -29.604   2.303  1.00  0.00     0.230 C 
HETATM    3  O   UNL     1      46.167 -30.818   2.505  1.00  0.00    -0.272 OA
HETATM    4  H   UNL     1      45.276 -27.778   2.436  1.00  0.00     0.162 HD
ENDROOT
BRANCH   1   5
HETATM    5  C   UNL     1      43.872 -29.248   3.041  1.00  0.00     0.144 C 
BRANCH   5   6
HETATM    6  C   UNL     1      42.732 -29.447   2.038  1.00  0.00     0.174 C 
BRANCH   6   7
HETATM    7  N   UNL     1      43.011 -30.554   1.126  1.00  0.00    -0.233 N 
HETATM    8  N   UNL     1      43.510 -30.207  -0.111  1.00  0.00    -0.169 NA
HETATM    9  C   UNL     1      43.822 -31.159  -0.936  1.00  0.00     0.087 A 
HETATM   10  C   UNL     1      43.634 -32.596  -0.641  1.00  0.00     0.040 A 
HETATM   11  C   UNL     1      43.195 -32.911   0.578  1.00  0.00     0.078 A 
HETATM   12  C   UNL     1      42.899 -31.862   1.575  1.00  0.00     0.263 A 
HETATM   13  O   UNL     1      42.569 -32.196   2.710  1.00  0.00    -0.267 OA
BRANCH   9  14
HETATM   14  C   UNL     1      44.381 -30.803  -2.274  1.00  0.00    -0.006 A 
HETATM   15  C   UNL     1      43.906 -29.712  -3.012  1.00  0.00     0.014 A 
HETATM   16  C   UNL     1      44.450 -29.422  -4.267  1.00  0.00     0.001 A 
HETATM   17  C   UNL     1      45.462 -30.223  -4.792  1.00  0.00     0.000 A 
HETATM   18  C   UNL     1      45.928 -31.322  -4.071  1.00  0.00     0.001 A 
HETATM   19  C   UNL     1      45.387 -31.614  -2.818  1.00  0.00     0.014 A 
ENDBRANCH   9  14
ENDBRANCH   6   7
ENDBRANCH   5   6
ENDBRANCH   1   5
BRANCH   2  20
HETATM   20  C   UNL     1      47.541 -28.916   1.919  1.00  0.00     0.149 C 
HETATM   21  C   UNL     1      47.675 -28.841   0.415  1.00  0.00    -0.007 A 
HETATM   22  C   UNL     1      48.691 -29.542  -0.236  1.00  0.00     0.083 A 
HETATM   23  C   UNL     1      46.770 -28.085  -0.350  1.00  0.00     0.011 A 
HETATM   24  C   UNL     1      48.798 -29.503  -1.628  1.00  0.00     0.038 A 
HETATM   25  O   UNL     1      49.631 -30.298   0.421  1.00  0.00    -0.310 OA
HETATM   26  C   UNL     1      47.893 -28.754  -2.380  1.00  0.00     0.003 A 
HETATM   27  C   UNL     1      46.880 -28.043  -1.740  1.00  0.00     0.001 A 
HETATM   28  C   UNL     1      49.710 -30.197   1.788  1.00  0.00     0.083 A 
HETATM   29  C   UNL     1      48.755 -29.543   2.571  1.00  0.00    -0.007 A 
HETATM   30  C   UNL     1      50.819 -30.803   2.384  1.00  0.00     0.038 A 
HETATM   31  C   UNL     1      48.932 -29.492   3.963  1.00  0.00     0.011 A 
HETATM   32  C   UNL     1      50.043 -30.094   4.556  1.00  0.00     0.001 A 
HETATM   33  C   UNL     1      50.985 -30.750   3.767  1.00  0.00     0.003 A 
ENDBRANCH   2  20
TORSDOF 5
ENDMDL
MODEL 7
REMARK VINA RESULT:      -8.0      2.412      6.162
REMARK  5 active torsions:
REMARK  status: ('A' for Active; 'I' for Inactive)
REMARK    1  A    between atoms: C_4  and  C_5 
REMARK    2  A    between atoms: N_7  and  C_8 
REMARK    3  A    between atoms: C_8  and  C_9 
REMARK    4  A    between atoms: C_9  and  N_10 
REMARK       I    between atoms: N_10  and  C_11 
REMARK    5  A    between atoms: C_11  and  C_12 
ROOT
HETATM    1  N   UNL     1      40.317 -11.818   2.460  1.00  0.00    -0.359 N 
HETATM    2  C   UNL     1      41.515 -11.730   1.783  1.00  0.00     0.230 C 
HETATM    3  O   UNL     1      42.258 -10.752   1.878  1.00  0.00    -0.272 OA
HETATM    4  H   UNL     1      39.688 -12.574   2.214  1.00  0.00     0.162 HD
ENDROOT
BRANCH   1   5
HETATM    5  C   UNL     1      39.759 -10.703   3.210  1.00  0.00     0.144 C 
BRANCH   5   6
HETATM    6  C   UNL     1      39.658 -10.925   4.721  1.00  0.00     0.174 C 
BRANCH   6   7
HETATM    7  N   UNL     1      40.956 -11.271   5.298  1.00  0.00    -0.233 N 
HETATM    8  N   UNL     1      41.165 -12.609   5.553  1.00  0.00    -0.169 NA
HETATM    9  C   UNL     1      42.322 -12.972   6.017  1.00  0.00     0.087 A 
HETATM   10  C   UNL     1      43.416 -12.026   6.326  1.00  0.00     0.040 A 
HETATM   11  C   UNL     1      43.209 -10.743   6.026  1.00  0.00     0.078 A 
HETATM   12  C   UNL     1      41.935 -10.297   5.427  1.00  0.00     0.263 A 
HETATM   13  O   UNL     1      41.813  -9.120   5.097  1.00  0.00    -0.267 OA
BRANCH   9  14
HETATM   14  C   UNL     1      42.574 -14.419   6.282  1.00  0.00    -0.006 A 
HETATM   15  C   UNL     1      41.533 -15.354   6.360  1.00  0.00     0.014 A 
HETATM   16  C   UNL     1      41.814 -16.697   6.622  1.00  0.00     0.001 A 
HETATM   17  C   UNL     1      43.130 -17.112   6.818  1.00  0.00     0.000 A 
HETATM   18  C   UNL     1      44.170 -16.185   6.760  1.00  0.00     0.001 A 
HETATM   19  C   UNL     1      43.893 -14.842   6.498  1.00  0.00     0.014 A 
ENDBRANCH   9  14
ENDBRANCH   6   7
ENDBRANCH   5   6
ENDBRANCH   1   5
BRANCH   2  20
HETATM   20  C   UNL     1      41.853 -12.897   0.835  1.00  0.00     0.149 C 
HETATM   21  C   UNL     1      40.835 -12.977  -0.279  1.00  0.00    -0.007 A 
HETATM   22  C   UNL     1      39.996 -14.087  -0.387  1.00  0.00     0.083 A 
HETATM   23  C   UNL     1      40.704 -11.931  -1.209  1.00  0.00     0.011 A 
HETATM   24  C   UNL     1      39.031 -14.150  -1.395  1.00  0.00     0.038 A 
HETATM   25  O   UNL     1      40.052 -15.164   0.463  1.00  0.00    -0.310 OA
HETATM   26  C   UNL     1      38.905 -13.106  -2.311  1.00  0.00     0.003 A 
HETATM   27  C   UNL     1      39.744 -11.997  -2.219  1.00  0.00     0.001 A 
HETATM   28  C   UNL     1      41.115 -15.259   1.327  1.00  0.00     0.083 A 
HETATM   29  C   UNL     1      42.024 -14.220   1.550  1.00  0.00    -0.007 A 
HETATM   30  C   UNL     1      41.249 -16.473   2.004  1.00  0.00     0.038 A 
HETATM   31  C   UNL     1      43.080 -14.420   2.453  1.00  0.00     0.011 A 
HETATM   32  C   UNL     1      43.215 -15.636   3.124  1.00  0.00     0.001 A 
HETATM   33  C   UNL     1      42.299 -16.662   2.901  1.00  0.00     0.003 A 
ENDBRANCH   2  20
TORSDOF 5
ENDMDL
MODEL 8
REMARK VINA RESULT:      -8.0      4.848      7.581
REMARK  5 active torsions:
REMARK  status: ('A' for Active; 'I' for Inactive)
REMARK    1  A    between atoms: C_4  and  C_5 
REMARK    2  A    between atoms: N_7  and  C_8 
REMARK    3  A    between atoms: C_8  and  C_9 
REMARK    4  A    between atoms: C_9  and  N_10 
REMARK       I    between atoms: N_10  and  C_11 
REMARK    5  A    between atoms: C_11  and  C_12 
ROOT
HETATM    1  N   UNL     1      42.209 -11.843   5.621  1.00  0.00    -0.359 N 
HETATM    2  C   UNL     1      41.665 -13.081   5.348  1.00  0.00     0.230 C 
HETATM    3  O   UNL     1      40.608 -13.464   5.849  1.00  0.00    -0.272 OA
HETATM    4  H   UNL     1      43.153 -11.659   5.301  1.00  0.00     0.162 HD
ENDROOT
BRANCH   1   5
HETATM    5  C   UNL     1      41.666 -10.960   6.642  1.00  0.00     0.144 C 
BRANCH   5   6
HETATM    6  C   UNL     1      42.448  -9.662   6.858  1.00  0.00     0.174 C 
BRANCH   6   7
HETATM    7  N   UNL     1      43.367  -9.774   7.989  1.00  0.00    -0.233 N 
HETATM    8  N   UNL     1      42.847  -9.444   9.223  1.00  0.00    -0.169 NA
HETATM    9  C   UNL     1      43.610  -9.578  10.265  1.00  0.00     0.087 A 
HETATM   10  C   UNL     1      45.018 -10.025  10.200  1.00  0.00     0.040 A 
HETATM   11  C   UNL     1      45.484 -10.384   9.004  1.00  0.00     0.078 A 
HETATM   12  C   UNL     1      44.628 -10.319   7.803  1.00  0.00     0.263 A 
HETATM   13  O   UNL     1      45.072 -10.730   6.733  1.00  0.00    -0.267 OA
BRANCH   9  14
HETATM   14  C   UNL     1      43.060  -9.244  11.612  1.00  0.00    -0.006 A 
HETATM   15  C   UNL     1      42.015  -9.976  12.191  1.00  0.00     0.014 A 
HETATM   16  C   UNL     1      41.522  -9.620  13.450  1.00  0.00     0.001 A 
HETATM   17  C   UNL     1      42.062  -8.530  14.131  1.00  0.00     0.000 A 
HETATM   18  C   UNL     1      43.091  -7.787  13.553  1.00  0.00     0.001 A 
HETATM   19  C   UNL     1      43.585  -8.138  12.296  1.00  0.00     0.014 A 
ENDBRANCH   9  14
ENDBRANCH   6   7
ENDBRANCH   5   6
ENDBRANCH   1   5
BRANCH   2  20
HETATM   20  C   UNL     1      42.489 -14.002   4.427  1.00  0.00     0.149 C 
HETATM   21  C   UNL     1      41.715 -14.307   3.165  1.00  0.00    -0.007 A 
HETATM   22  C   UNL     1      41.303 -15.612   2.891  1.00  0.00     0.083 A 
HETATM   23  C   UNL     1      41.383 -13.283   2.261  1.00  0.00     0.011 A 
HETATM   24  C   UNL     1      40.558 -15.892   1.743  1.00  0.00     0.038 A 
HETATM   25  O   UNL     1      41.586 -16.682   3.704  1.00  0.00    -0.310 OA
HETATM   26  C   UNL     1      40.229 -14.870   0.853  1.00  0.00     0.003 A 
HETATM   27  C   UNL     1      40.644 -13.565   1.112  1.00  0.00     0.001 A 
HETATM   28  C   UNL     1      42.493 -16.507   4.720  1.00  0.00     0.083 A 
HETATM   29  C   UNL     1      42.978 -15.258   5.116  1.00  0.00    -0.007 A 
HETATM   30  C   UNL     1      42.917 -17.669   5.370  1.00  0.00     0.038 A 
HETATM   31  C   UNL     1      43.907 -15.188   6.167  1.00  0.00     0.011 A 
HETATM   32  C   UNL     1      44.334 -16.351   6.810  1.00  0.00     0.001 A 
HETATM   33  C   UNL     1      43.838 -17.590   6.413  1.00  0.00     0.003 A 
ENDBRANCH   2  20
TORSDOF 5
ENDMDL
MODEL 9
REMARK VINA RESULT:      -7.9      2.302      5.532
REMARK  5 active torsions:
REMARK  status: ('A' for Active; 'I' for Inactive)
REMARK    1  A    between atoms: C_4  and  C_5 
REMARK    2  A    between atoms: N_7  and  C_8 
REMARK    3  A    between atoms: C_8  and  C_9 
REMARK    4  A    between atoms: C_9  and  N_10 
REMARK       I    between atoms: N_10  and  C_11 
REMARK    5  A    between atoms: C_11  and  C_12 
ROOT
HETATM    1  N   UNL     1      41.664 -10.749   3.472  1.00  0.00    -0.359 N 
HETATM    2  C   UNL     1      42.692 -11.174   4.288  1.00  0.00     0.230 C 
HETATM    3  O   UNL     1      43.864 -11.205   3.911  1.00  0.00    -0.272 OA
HETATM    4  H   UNL     1      40.714 -10.897   3.790  1.00  0.00     0.162 HD
ENDROOT
BRANCH   1   5
HETATM    5  C   UNL     1      41.857 -10.459   2.059  1.00  0.00     0.144 C 
BRANCH   5   6
HETATM    6  C   UNL     1      40.584 -10.501   1.210  1.00  0.00     0.174 C 
BRANCH   6   7
HETATM    7  N   UNL     1      40.362 -11.831   0.646  1.00  0.00    -0.233 N 
HETATM    8  N   UNL     1      41.104 -12.852   1.200  1.00  0.00    -0.169 NA
HETATM    9  C   UNL     1      40.905 -14.060   0.768  1.00  0.00     0.087 A 
HETATM   10  C   UNL     1      39.954 -14.399  -0.314  1.00  0.00     0.040 A 
HETATM   11  C   UNL     1      39.213 -13.403  -0.801  1.00  0.00     0.078 A 
HETATM   12  C   UNL     1      39.354 -12.027  -0.286  1.00  0.00     0.263 A 
HETATM   13  O   UNL     1      38.600 -11.153  -0.709  1.00  0.00    -0.267 OA
BRANCH   9  14
HETATM   14  C   UNL     1      41.686 -15.182   1.368  1.00  0.00    -0.006 A 
HETATM   15  C   UNL     1      43.077 -15.121   1.521  1.00  0.00     0.014 A 
HETATM   16  C   UNL     1      43.771 -16.200   2.076  1.00  0.00     0.001 A 
HETATM   17  C   UNL     1      43.082 -17.345   2.472  1.00  0.00     0.000 A 
HETATM   18  C   UNL     1      41.699 -17.420   2.307  1.00  0.00     0.001 A 
HETATM   19  C   UNL     1      41.004 -16.345   1.752  1.00  0.00     0.014 A 
ENDBRANCH   9  14
ENDBRANCH   6   7
ENDBRANCH   5   6
ENDBRANCH   1   5
BRANCH   2  20
HETATM   20  C   UNL     1      42.291 -11.679   5.687  1.00  0.00     0.149 C 
HETATM   21  C   UNL     1      43.029 -10.904   6.754  1.00  0.00    -0.007 A 
HETATM   22  C   UNL     1      43.950 -11.548   7.581  1.00  0.00     0.083 A 
HETATM   23  C   UNL     1      42.815  -9.524   6.917  1.00  0.00     0.011 A 
HETATM   24  C   UNL     1      44.659 -10.830   8.546  1.00  0.00     0.038 A 
HETATM   25  O   UNL     1      44.221 -12.893   7.510  1.00  0.00    -0.310 OA
HETATM   26  C   UNL     1      44.444  -9.460   8.699  1.00  0.00     0.003 A 
HETATM   27  C   UNL     1      43.519  -8.808   7.884  1.00  0.00     0.001 A 
HETATM   28  C   UNL     1      43.403 -13.684   6.739  1.00  0.00     0.083 A 
HETATM   29  C   UNL     1      42.450 -13.175   5.852  1.00  0.00    -0.007 A 
HETATM   30  C   UNL     1      43.577 -15.063   6.878  1.00  0.00     0.038 A 
HETATM   31  C   UNL     1      41.661 -14.071   5.113  1.00  0.00     0.011 A 
HETATM   32  C   UNL     1      41.832 -15.448   5.257  1.00  0.00     0.001 A 
HETATM   33  C   UNL     1      42.790 -15.944   6.138  1.00  0.00     0.003 A 
ENDBRANCH   2  20
TORSDOF 5
ENDMDL
MODEL 10
REMARK VINA RESULT:      -7.8      2.080      5.291
REMARK  5 active torsions:
REMARK  status: ('A' for Active; 'I' for Inactive)
REMARK    1  A    between atoms: C_4  and  C_5 
REMARK    2  A    between atoms: N_7  and  C_8 
REMARK    3  A    between atoms: C_8  and  C_9 
REMARK    4  A    between atoms: C_9  and  N_10 
REMARK       I    between atoms: N_10  and  C_11 
REMARK    5  A    between atoms: C_11  and  C_12 
ROOT
HETATM    1  N   UNL     1      43.311 -14.917   2.976  1.00  0.00    -0.359 N 
HETATM    2  C   UNL     1      42.452 -15.883   2.495  1.00  0.00     0.230 C 
HETATM    3  O   UNL     1      41.982 -15.842   1.357  1.00  0.00    -0.272 OA
HETATM    4  H   UNL     1      43.532 -14.930   3.965  1.00  0.00     0.162 HD
ENDROOT
BRANCH   1   5
HETATM    5  C   UNL     1      43.600 -13.694   2.243  1.00  0.00     0.144 C 
BRANCH   5   6
HETATM    6  C   UNL     1      43.021 -12.417   2.859  1.00  0.00     0.174 C 
BRANCH   6   7
HETATM    7  N   UNL     1      41.573 -12.344   2.674  1.00  0.00    -0.233 N 
HETATM    8  N   UNL     1      41.106 -12.694   1.425  1.00  0.00    -0.169 NA
HETATM    9  C   UNL     1      39.823 -12.695   1.227  1.00  0.00     0.087 A 
HETATM   10  C   UNL     1      38.834 -12.302   2.255  1.00  0.00     0.040 A 
HETATM   11  C   UNL     1      39.305 -12.014   3.468  1.00  0.00     0.078 A 
HETATM   12  C   UNL     1      40.751 -12.074   3.758  1.00  0.00     0.263 A 
HETATM   13  O   UNL     1      41.137 -11.874   4.907  1.00  0.00    -0.267 OA
BRANCH   9  14
HETATM   14  C   UNL     1      39.297 -13.088  -0.113  1.00  0.00    -0.006 A 
HETATM   15  C   UNL     1      39.722 -14.253  -0.766  1.00  0.00     0.014 A 
HETATM   16  C   UNL     1      39.212 -14.577  -2.026  1.00  0.00     0.001 A 
HETATM   17  C   UNL     1      38.286 -13.738  -2.644  1.00  0.00     0.000 A 
HETATM   18  C   UNL     1      37.872 -12.568  -2.008  1.00  0.00     0.001 A 
HETATM   19  C   UNL     1      38.379 -12.241  -0.749  1.00  0.00     0.014 A 
ENDBRANCH   9  14
ENDBRANCH   6   7
ENDBRANCH   5   6
ENDBRANCH   1   5
BRANCH   2  20
HETATM   20  C   UNL     1      42.051 -16.995   3.483  1.00  0.00     0.149 C 
HETATM   21  C   UNL     1      42.143 -16.490   4.904  1.00  0.00    -0.007 A 
HETATM   22  C   UNL     1      43.072 -17.042   5.788  1.00  0.00     0.083 A 
HETATM   23  C   UNL     1      41.313 -15.448   5.352  1.00  0.00     0.011 A 
HETATM   24  C   UNL     1      43.184 -16.556   7.092  1.00  0.00     0.038 A 
HETATM   25  O   UNL     1      43.919 -18.070   5.452  1.00  0.00    -0.310 OA
HETATM   26  C   UNL     1      42.359 -15.518   7.527  1.00  0.00     0.003 A 
HETATM   27  C   UNL     1      41.422 -14.966   6.656  1.00  0.00     0.001 A 
HETATM   28  C   UNL     1      43.705 -18.731   4.267  1.00  0.00     0.083 A 
HETATM   29  C   UNL     1      42.820 -18.283   3.282  1.00  0.00    -0.007 A 
HETATM   30  C   UNL     1      44.441 -19.903   4.077  1.00  0.00     0.038 A 
HETATM   31  C   UNL     1      42.672 -19.036   2.105  1.00  0.00     0.011 A 
HETATM   32  C   UNL     1      43.403 -20.209   1.921  1.00  0.00     0.001 A 
HETATM   33  C   UNL     1      44.289 -20.642   2.905  1.00  0.00     0.003 A 
ENDBRANCH   2  20
TORSDOF 5
ENDMDL
