MODEL 1
REMARK VINA RESULT:      -8.1      0.000      0.000
REMARK  5 active torsions:
REMARK  status: ('A' for Active; 'I' for Inactive)
REMARK    1  A    between atoms: C_2  and  N_3 
REMARK       I    between atoms: N_3  and  C_4 
REMARK       I    between atoms: C_4  and  N_5 
REMARK    2  A    between atoms: C_7  and  C_8 
REMARK    3  A    between atoms: C_13  and  N_14 
REMARK       I    between atoms: N_14  and  C_15 
REMARK    4  A    between atoms: C_15  and  C_16 
REMARK    5  A    between atoms: C_19  and  O_20 
ROOT
HETATM    1  C   UNL     1      42.417 -11.687   6.019  1.00  0.00     0.088 A 
HETATM    2  N   UNL     1      42.745 -10.698   5.177  1.00  0.00    -0.177 NA
HETATM    3  N   UNL     1      41.791 -10.737   4.241  1.00  0.00    -0.287 N 
HETATM    4  H   UNL     1      41.855 -10.090   3.460  1.00  0.00     0.188 HD
HETATM    5  C   UNL     1      40.833 -11.682   4.475  1.00  0.00     0.141 A 
HETATM    6  C   UNL     1      41.175 -12.300   5.650  1.00  0.00     0.079 A 
ENDROOT
BRANCH   1   7
HETATM    7  C   UNL     1      43.325 -12.075   7.168  1.00  0.00     0.060 C 
HETATM    8  C   UNL     1      43.552 -10.964   8.207  1.00  0.00     0.138 C 
HETATM    9  N   UNL     1      44.535  -9.945   7.804  1.00  0.00    -0.334 N 
HETATM   10  C   UNL     1      44.548  -8.658   8.336  1.00  0.00     0.318 C 
HETATM   11  C   UNL     1      45.797 -10.448   7.276  1.00  0.00     0.127 C 
HETATM   12  N   UNL     1      43.332  -8.240   8.815  1.00  0.00    -0.339 N 
HETATM   13  O   UNL     1      45.558  -7.963   8.377  1.00  0.00    -0.247 OA
HETATM   14  H   UNL     1      42.571  -8.570   8.237  1.00  0.00     0.164 HD
HETATM   15  C   UNL     1      45.593 -11.497   6.189  1.00  0.00     0.021 C 
HETATM   16  C   UNL     1      44.673 -12.618   6.666  1.00  0.00     0.014 C 
BRANCH  12  17
HETATM   17  C   UNL     1      43.110  -6.940   9.435  1.00  0.00     0.078 C 
HETATM   18  C   UNL     1      42.714  -7.067  10.903  1.00  0.00     0.032 C 
HETATM   19  C   UNL     1      42.125  -6.064   8.660  1.00  0.00     0.032 C 
ENDBRANCH  12  17
ENDBRANCH   1   7
BRANCH   6  20
HETATM   20  N   UNL     1      40.542 -13.309   6.352  1.00  0.00    -0.320 N 
HETATM   21  C   UNL     1      40.583 -14.676   6.260  1.00  0.00     0.256 C 
HETATM   22  O   UNL     1      39.960 -15.355   7.076  1.00  0.00    -0.267 OA
HETATM   23  H   UNL     1      39.957 -13.015   7.124  1.00  0.00     0.169 HD
BRANCH  21  24
HETATM   24  C   UNL     1      41.378 -15.381   5.247  1.00  0.00     0.032 A 
HETATM   25  C   UNL     1      40.801 -15.821   4.054  1.00  0.00     0.020 A 
HETATM   26  C   UNL     1      41.578 -16.551   3.150  1.00  0.00     0.038 A 
HETATM   27  C   UNL     1      42.909 -16.874   3.446  1.00  0.00     0.068 A 
HETATM   28  C   UNL     1      43.466 -16.453   4.656  1.00  0.00     0.038 A 
HETATM   29  C   UNL     1      42.699 -15.713   5.559  1.00  0.00     0.020 A 
BRANCH  27  30
HETATM   30  O   UNL     1      43.551 -17.600   2.480  1.00  0.00    -0.356 OA
HETATM   31  C   UNL     1      43.515 -19.016   2.615  1.00  0.00     0.210 C 
ENDBRANCH  27  30
ENDBRANCH  21  24
ENDBRANCH   6  20
TORSDOF 5
ENDMDL
MODEL 2
REMARK VINA RESULT:      -7.8      2.374      3.477
REMARK  5 active torsions:
REMARK  status: ('A' for Active; 'I' for Inactive)
REMARK    1  A    between atoms: C_2  and  N_3 
REMARK       I    between atoms: N_3  and  C_4 
REMARK       I    between atoms: C_4  and  N_5 
REMARK    2  A    between atoms: C_7  and  C_8 
REMARK    3  A    between atoms: C_13  and  N_14 
REMARK       I    between atoms: N_14  and  C_15 
REMARK    4  A    between atoms: C_15  and  C_16 
REMARK    5  A    between atoms: C_19  and  O_20 
ROOT
HETATM    1  C   UNL     1      41.895 -14.274   5.794  1.00  0.00     0.088 A 
HETATM    2  N   UNL     1      40.725 -14.035   5.187  1.00  0.00    -0.177 NA
HETATM    3  N   UNL     1      39.886 -14.921   5.736  1.00  0.00    -0.287 N 
HETATM    4  H   UNL     1      38.930 -14.954   5.396  1.00  0.00     0.188 HD
HETATM    5  C   UNL     1      40.461 -15.689   6.708  1.00  0.00     0.141 A 
HETATM    6  C   UNL     1      41.764 -15.273   6.814  1.00  0.00     0.079 A 
ENDROOT
BRANCH   1   7
HETATM    7  C   UNL     1      43.163 -13.565   5.366  1.00  0.00     0.060 C 
HETATM    8  C   UNL     1      43.556 -12.367   6.247  1.00  0.00     0.138 C 
HETATM    9  N   UNL     1      42.800 -11.135   5.973  1.00  0.00    -0.334 N 
HETATM   10  C   UNL     1      42.647 -10.119   6.913  1.00  0.00     0.318 C 
HETATM   11  C   UNL     1      42.690 -10.752   4.571  1.00  0.00     0.127 C 
HETATM   12  N   UNL     1      42.759 -10.541   8.214  1.00  0.00    -0.339 N 
HETATM   13  O   UNL     1      42.437  -8.951   6.605  1.00  0.00    -0.247 OA
HETATM   14  H   UNL     1      42.348 -11.455   8.345  1.00  0.00     0.164 HD
HETATM   15  C   UNL     1      42.227 -11.906   3.690  1.00  0.00     0.021 C 
HETATM   16  C   UNL     1      43.103 -13.140   3.888  1.00  0.00     0.014 C 
BRANCH  12  17
HETATM   17  C   UNL     1      42.657  -9.653   9.365  1.00  0.00     0.078 C 
HETATM   18  C   UNL     1      43.443 -10.179  10.563  1.00  0.00     0.032 C 
HETATM   19  C   UNL     1      41.213  -9.319   9.741  1.00  0.00     0.032 C 
ENDBRANCH  12  17
ENDBRANCH   1   7
BRANCH   6  20
HETATM   20  N   UNL     1      42.776 -15.696   7.655  1.00  0.00    -0.320 N 
HETATM   21  C   UNL     1      43.679 -16.726   7.581  1.00  0.00     0.256 C 
HETATM   22  O   UNL     1      44.541 -16.836   8.453  1.00  0.00    -0.267 OA
HETATM   23  H   UNL     1      42.939 -15.129   8.477  1.00  0.00     0.169 HD
BRANCH  21  24
HETATM   24  C   UNL     1      43.694 -17.692   6.476  1.00  0.00     0.032 A 
HETATM   25  C   UNL     1      43.445 -19.047   6.698  1.00  0.00     0.020 A 
HETATM   26  C   UNL     1      43.540 -19.942   5.629  1.00  0.00     0.038 A 
HETATM   27  C   UNL     1      43.919 -19.499   4.355  1.00  0.00     0.068 A 
HETATM   28  C   UNL     1      44.196 -18.145   4.152  1.00  0.00     0.038 A 
HETATM   29  C   UNL     1      44.090 -17.242   5.213  1.00  0.00     0.020 A 
BRANCH  27  30
HETATM   30  O   UNL     1      43.984 -20.480   3.403  1.00  0.00    -0.356 OA
HETATM   31  C   UNL     1      43.485 -20.150   2.112  1.00  0.00     0.210 C 
ENDBRANCH  27  30
ENDBRANCH  21  24
ENDBRANCH   6  20
TORSDOF 5
ENDMDL
MODEL 3
REMARK VINA RESULT:      -7.8      3.573      7.012
REMARK  5 active torsions:
REMARK  status: ('A' for Active; 'I' for Inactive)
REMARK    1  A    between atoms: C_2  and  N_3 
REMARK       I    between atoms: N_3  and  C_4 
REMARK       I    between atoms: C_4  and  N_5 
REMARK    2  A    between atoms: C_7  and  C_8 
REMARK    3  A    between atoms: C_13  and  N_14 
REMARK       I    between atoms: N_14  and  C_15 
REMARK    4  A    between atoms: C_15  and  C_16 
REMARK    5  A    between atoms: C_19  and  O_20 
ROOT
HETATM    1  C   UNL     1      41.153 -13.037   4.151  1.00  0.00     0.088 A 
HETATM    2  N   UNL     1      39.844 -13.197   3.916  1.00  0.00    -0.177 NA
HETATM    3  N   UNL     1      39.269 -12.977   5.103  1.00  0.00    -0.287 N 
HETATM    4  H   UNL     1      38.262 -13.083   5.178  1.00  0.00     0.188 HD
HETATM    5  C   UNL     1      40.155 -12.633   6.084  1.00  0.00     0.141 A 
HETATM    6  C   UNL     1      41.396 -12.617   5.500  1.00  0.00     0.079 A 
ENDROOT
BRANCH   1   7
HETATM    7  C   UNL     1      42.186 -13.330   3.083  1.00  0.00     0.060 C 
HETATM    8  C   UNL     1      41.692 -13.123   1.641  1.00  0.00     0.138 C 
HETATM    9  N   UNL     1      40.868 -14.223   1.115  1.00  0.00    -0.334 N 
HETATM   10  C   UNL     1      39.959 -14.053   0.074  1.00  0.00     0.318 C 
HETATM   11  C   UNL     1      41.398 -15.567   1.310  1.00  0.00     0.127 C 
HETATM   12  N   UNL     1      39.495 -12.769  -0.058  1.00  0.00    -0.339 N 
HETATM   13  O   UNL     1      39.610 -14.969  -0.663  1.00  0.00    -0.247 OA
HETATM   14  H   UNL     1      39.364 -12.327   0.842  1.00  0.00     0.164 HD
HETATM   15  C   UNL     1      41.823 -15.819   2.751  1.00  0.00     0.021 C 
HETATM   16  C   UNL     1      42.783 -14.739   3.243  1.00  0.00     0.014 C 
BRANCH  12  17
HETATM   17  C   UNL     1      38.553 -12.350  -1.089  1.00  0.00     0.078 C 
HETATM   18  C   UNL     1      39.265 -11.862  -2.348  1.00  0.00     0.032 C 
HETATM   19  C   UNL     1      37.529 -11.331  -0.590  1.00  0.00     0.032 C 
ENDBRANCH  12  17
ENDBRANCH   1   7
BRANCH   6  20
HETATM   20  N   UNL     1      42.635 -12.313   6.032  1.00  0.00    -0.320 N 
HETATM   21  C   UNL     1      43.652 -13.089   6.526  1.00  0.00     0.256 C 
HETATM   22  O   UNL     1      44.703 -12.553   6.878  1.00  0.00    -0.267 OA
HETATM   23  H   UNL     1      42.892 -11.334   6.032  1.00  0.00     0.169 HD
BRANCH  21  24
HETATM   24  C   UNL     1      43.565 -14.551   6.617  1.00  0.00     0.032 A 
HETATM   25  C   UNL     1      44.603 -15.366   6.163  1.00  0.00     0.020 A 
HETATM   26  C   UNL     1      44.447 -16.755   6.203  1.00  0.00     0.038 A 
HETATM   27  C   UNL     1      43.251 -17.329   6.656  1.00  0.00     0.068 A 
HETATM   28  C   UNL     1      42.208 -16.502   7.079  1.00  0.00     0.038 A 
HETATM   29  C   UNL     1      42.361 -15.113   7.053  1.00  0.00     0.020 A 
BRANCH  27  30
HETATM   30  O   UNL     1      43.227 -18.697   6.633  1.00  0.00    -0.356 OA
HETATM   31  C   UNL     1      43.866 -19.328   5.529  1.00  0.00     0.210 C 
ENDBRANCH  27  30
ENDBRANCH  21  24
ENDBRANCH   6  20
TORSDOF 5
ENDMDL
MODEL 4
REMARK VINA RESULT:      -7.7      3.978      6.872
REMARK  5 active torsions:
REMARK  status: ('A' for Active; 'I' for Inactive)
REMARK    1  A    between atoms: C_2  and  N_3 
REMARK       I    between atoms: N_3  and  C_4 
REMARK       I    between atoms: C_4  and  N_5 
REMARK    2  A    between atoms: C_7  and  C_8 
REMARK    3  A    between atoms: C_13  and  N_14 
REMARK       I    between atoms: N_14  and  C_15 
REMARK    4  A    between atoms: C_15  and  C_16 
REMARK    5  A    between atoms: C_19  and  O_20 
ROOT
HETATM    1  C   UNL     1      41.357 -12.481   3.790  1.00  0.00     0.088 A 
HETATM    2  N   UNL     1      41.852 -11.773   2.766  1.00  0.00    -0.177 NA
HETATM    3  N   UNL     1      43.159 -11.677   3.037  1.00  0.00    -0.287 N 
HETATM    4  H   UNL     1      43.744 -11.138   2.406  1.00  0.00     0.188 HD
HETATM    5  C   UNL     1      43.532 -12.338   4.172  1.00  0.00     0.141 A 
HETATM    6  C   UNL     1      42.395 -12.917   4.677  1.00  0.00     0.079 A 
ENDROOT
BRANCH   1   7
HETATM    7  C   UNL     1      39.867 -12.708   3.941  1.00  0.00     0.060 C 
HETATM    8  C   UNL     1      39.130 -13.015   2.627  1.00  0.00     0.138 C 
HETATM    9  N   UNL     1      38.843 -11.832   1.799  1.00  0.00    -0.334 N 
HETATM   10  C   UNL     1      38.632 -11.907   0.425  1.00  0.00     0.318 C 
HETATM   11  C   UNL     1      38.249 -10.696   2.493  1.00  0.00     0.127 C 
HETATM   12  N   UNL     1      39.217 -12.995  -0.172  1.00  0.00    -0.339 N 
HETATM   13  O   UNL     1      37.976 -11.077  -0.196  1.00  0.00    -0.247 OA
HETATM   14  H   UNL     1      40.114 -13.208   0.243  1.00  0.00     0.164 HD
HETATM   15  C   UNL     1      39.010 -10.327   3.760  1.00  0.00     0.021 C 
HETATM   16  C   UNL     1      39.188 -11.538   4.672  1.00  0.00     0.014 C 
BRANCH  12  17
HETATM   17  C   UNL     1      39.113 -13.293  -1.594  1.00  0.00     0.078 C 
HETATM   18  C   UNL     1      39.057 -14.794  -1.862  1.00  0.00     0.032 C 
HETATM   19  C   UNL     1      40.195 -12.611  -2.432  1.00  0.00     0.032 C 
ENDBRANCH  12  17
ENDBRANCH   1   7
BRANCH   6  20
HETATM   20  N   UNL     1      42.212 -13.713   5.792  1.00  0.00    -0.320 N 
HETATM   21  C   UNL     1      42.284 -15.068   5.992  1.00  0.00     0.256 C 
HETATM   22  O   UNL     1      42.144 -15.518   7.129  1.00  0.00    -0.267 OA
HETATM   23  H   UNL     1      42.031 -13.227   6.661  1.00  0.00     0.169 HD
BRANCH  21  24
HETATM   24  C   UNL     1      42.565 -16.017   4.909  1.00  0.00     0.032 A 
HETATM   25  C   UNL     1      41.723 -16.118   3.800  1.00  0.00     0.020 A 
HETATM   26  C   UNL     1      41.989 -17.085   2.827  1.00  0.00     0.038 A 
HETATM   27  C   UNL     1      43.063 -17.973   2.974  1.00  0.00     0.068 A 
HETATM   28  C   UNL     1      43.880 -17.883   4.103  1.00  0.00     0.038 A 
HETATM   29  C   UNL     1      43.628 -16.910   5.073  1.00  0.00     0.020 A 
BRANCH  27  30
HETATM   30  O   UNL     1      43.203 -18.876   1.955  1.00  0.00    -0.356 OA
HETATM   31  C   UNL     1      43.635 -20.183   2.315  1.00  0.00     0.210 C 
ENDBRANCH  27  30
ENDBRANCH  21  24
ENDBRANCH   6  20
TORSDOF 5
ENDMDL
MODEL 5
REMARK VINA RESULT:      -7.5      2.296      3.938
REMARK  5 active torsions:
REMARK  status: ('A' for Active; 'I' for Inactive)
REMARK    1  A    between atoms: C_2  and  N_3 
REMARK       I    between atoms: N_3  and  C_4 
REMARK       I    between atoms: C_4  and  N_5 
REMARK    2  A    between atoms: C_7  and  C_8 
REMARK    3  A    between atoms: C_13  and  N_14 
REMARK       I    between atoms: N_14  and  C_15 
REMARK    4  A    between atoms: C_15  and  C_16 
REMARK    5  A    between atoms: C_19  and  O_20 
ROOT
HETATM    1  C   UNL     1      41.952 -14.024   5.804  1.00  0.00     0.088 A 
HETATM    2  N   UNL     1      40.968 -13.414   6.477  1.00  0.00    -0.177 NA
HETATM    3  N   UNL     1      40.136 -14.406   6.812  1.00  0.00    -0.287 N 
HETATM    4  H   UNL     1      39.280 -14.172   7.305  1.00  0.00     0.188 HD
HETATM    5  C   UNL     1      40.572 -15.640   6.422  1.00  0.00     0.141 A 
HETATM    6  C   UNL     1      41.778 -15.447   5.796  1.00  0.00     0.079 A 
ENDROOT
BRANCH   1   7
HETATM    7  C   UNL     1      43.050 -13.232   5.126  1.00  0.00     0.060 C 
HETATM    8  C   UNL     1      43.737 -12.191   6.025  1.00  0.00     0.138 C 
HETATM    9  N   UNL     1      42.977 -10.944   6.203  1.00  0.00    -0.334 N 
HETATM   10  C   UNL     1      43.157 -10.101   7.297  1.00  0.00     0.318 C 
HETATM   11  C   UNL     1      42.454 -10.335   4.986  1.00  0.00     0.127 C 
HETATM   12  N   UNL     1      43.649 -10.730   8.412  1.00  0.00    -0.339 N 
HETATM   13  O   UNL     1      42.904  -8.901   7.264  1.00  0.00    -0.247 OA
HETATM   14  H   UNL     1      43.266 -11.660   8.513  1.00  0.00     0.164 HD
HETATM   15  C   UNL     1      41.703 -11.335   4.115  1.00  0.00     0.021 C 
HETATM   16  C   UNL     1      42.553 -12.570   3.829  1.00  0.00     0.014 C 
BRANCH  12  17
HETATM   17  C   UNL     1      43.937 -10.047   9.667  1.00  0.00     0.078 C 
HETATM   18  C   UNL     1      45.380  -9.553   9.730  1.00  0.00     0.032 C 
HETATM   19  C   UNL     1      43.569 -10.873  10.900  1.00  0.00     0.032 C 
ENDBRANCH  12  17
ENDBRANCH   1   7
BRANCH   6  20
HETATM   20  N   UNL     1      42.653 -16.357   5.234  1.00  0.00    -0.320 N 
HETATM   21  C   UNL     1      42.898 -16.737   3.939  1.00  0.00     0.256 C 
HETATM   22  O   UNL     1      43.805 -17.535   3.706  1.00  0.00    -0.267 OA
HETATM   23  H   UNL     1      43.285 -16.822   5.874  1.00  0.00     0.169 HD
BRANCH  21  24
HETATM   24  C   UNL     1      42.148 -16.199   2.798  1.00  0.00     0.032 A 
HETATM   25  C   UNL     1      42.784 -15.460   1.799  1.00  0.00     0.020 A 
HETATM   26  C   UNL     1      42.020 -14.906   0.768  1.00  0.00     0.038 A 
HETATM   27  C   UNL     1      40.626 -15.054   0.751  1.00  0.00     0.068 A 
HETATM   28  C   UNL     1      39.997 -15.770   1.772  1.00  0.00     0.038 A 
HETATM   29  C   UNL     1      40.757 -16.337   2.799  1.00  0.00     0.020 A 
BRANCH  27  30
HETATM   30  O   UNL     1      40.000 -14.454  -0.307  1.00  0.00    -0.356 OA
HETATM   31  C   UNL     1      40.020 -13.031  -0.338  1.00  0.00     0.210 C 
ENDBRANCH  27  30
ENDBRANCH  21  24
ENDBRANCH   6  20
TORSDOF 5
ENDMDL
MODEL 6
REMARK VINA RESULT:      -7.4      2.967      7.389
REMARK  5 active torsions:
REMARK  status: ('A' for Active; 'I' for Inactive)
REMARK    1  A    between atoms: C_2  and  N_3 
REMARK       I    between atoms: N_3  and  C_4 
REMARK       I    between atoms: C_4  and  N_5 
REMARK    2  A    between atoms: C_7  and  C_8 
REMARK    3  A    between atoms: C_13  and  N_14 
REMARK       I    between atoms: N_14  and  C_15 
REMARK    4  A    between atoms: C_15  and  C_16 
REMARK    5  A    between atoms: C_19  and  O_20 
ROOT
HETATM    1  C   UNL     1      41.457 -14.297   4.740  1.00  0.00     0.088 A 
HETATM    2  N   UNL     1      40.930 -15.301   5.453  1.00  0.00    -0.177 NA
HETATM    3  N   UNL     1      40.071 -14.697   6.283  1.00  0.00    -0.287 N 
HETATM    4  H   UNL     1      39.573 -15.268   6.959  1.00  0.00     0.188 HD
HETATM    5  C   UNL     1      39.991 -13.347   6.098  1.00  0.00     0.141 A 
HETATM    6  C   UNL     1      40.846 -13.042   5.070  1.00  0.00     0.079 A 
ENDROOT
BRANCH   1   7
HETATM    7  C   UNL     1      42.587 -14.535   3.761  1.00  0.00     0.060 C 
HETATM    8  C   UNL     1      42.563 -13.623   2.522  1.00  0.00     0.138 C 
HETATM    9  N   UNL     1      41.604 -14.033   1.483  1.00  0.00    -0.334 N 
HETATM   10  C   UNL     1      41.086 -13.145   0.544  1.00  0.00     0.318 C 
HETATM   11  C   UNL     1      41.631 -15.441   1.109  1.00  0.00     0.127 C 
HETATM   12  N   UNL     1      41.085 -11.835   0.953  1.00  0.00    -0.339 N 
HETATM   13  O   UNL     1      40.673 -13.502  -0.555  1.00  0.00    -0.247 OA
HETATM   14  H   UNL     1      40.872 -11.755   1.938  1.00  0.00     0.164 HD
HETATM   15  C   UNL     1      41.578 -16.364   2.320  1.00  0.00     0.021 C 
HETATM   16  C   UNL     1      42.664 -16.011   3.333  1.00  0.00     0.014 C 
BRANCH  12  17
HETATM   17  C   UNL     1      40.611 -10.729   0.131  1.00  0.00     0.078 C 
HETATM   18  C   UNL     1      41.617  -9.583   0.081  1.00  0.00     0.032 C 
HETATM   19  C   UNL     1      39.218 -10.240   0.527  1.00  0.00     0.032 C 
ENDBRANCH  12  17
ENDBRANCH   1   7
BRANCH   6  20
HETATM   20  N   UNL     1      41.132 -11.831   4.469  1.00  0.00    -0.320 N 
HETATM   21  C   UNL     1      42.041 -10.843   4.748  1.00  0.00     0.256 C 
HETATM   22  O   UNL     1      42.136  -9.878   3.989  1.00  0.00    -0.267 OA
HETATM   23  H   UNL     1      40.614 -11.619   3.625  1.00  0.00     0.169 HD
BRANCH  21  24
HETATM   24  C   UNL     1      42.948 -10.900   5.900  1.00  0.00     0.032 A 
HETATM   25  C   UNL     1      42.678 -10.185   7.068  1.00  0.00     0.020 A 
HETATM   26  C   UNL     1      43.606 -10.211   8.114  1.00  0.00     0.038 A 
HETATM   27  C   UNL     1      44.811 -10.914   7.984  1.00  0.00     0.068 A 
HETATM   28  C   UNL     1      45.084 -11.601   6.799  1.00  0.00     0.038 A 
HETATM   29  C   UNL     1      44.156 -11.589   5.755  1.00  0.00     0.020 A 
BRANCH  27  30
HETATM   30  O   UNL     1      45.632 -10.849   9.078  1.00  0.00    -0.356 OA
HETATM   31  C   UNL     1      45.162 -10.088  10.185  1.00  0.00     0.210 C 
ENDBRANCH  27  30
ENDBRANCH  21  24
ENDBRANCH   6  20
TORSDOF 5
ENDMDL
MODEL 7
REMARK VINA RESULT:      -7.4      2.290      3.448
REMARK  5 active torsions:
REMARK  status: ('A' for Active; 'I' for Inactive)
REMARK    1  A    between atoms: C_2  and  N_3 
REMARK       I    between atoms: N_3  and  C_4 
REMARK       I    between atoms: C_4  and  N_5 
REMARK    2  A    between atoms: C_7  and  C_8 
REMARK    3  A    between atoms: C_13  and  N_14 
REMARK       I    between atoms: N_14  and  C_15 
REMARK    4  A    between atoms: C_15  and  C_16 
REMARK    5  A    between atoms: C_19  and  O_20 
ROOT
HETATM    1  C   UNL     1      42.230 -13.279   5.173  1.00  0.00     0.088 A 
HETATM    2  N   UNL     1      41.998 -13.353   6.490  1.00  0.00    -0.177 NA
HETATM    3  N   UNL     1      41.088 -14.328   6.607  1.00  0.00    -0.287 N 
HETATM    4  H   UNL     1      40.725 -14.539   7.531  1.00  0.00     0.188 HD
HETATM    5  C   UNL     1      40.762 -14.916   5.419  1.00  0.00     0.141 A 
HETATM    6  C   UNL     1      41.515 -14.295   4.456  1.00  0.00     0.079 A 
ENDROOT
BRANCH   1   7
HETATM    7  C   UNL     1      43.115 -12.197   4.589  1.00  0.00     0.060 C 
HETATM    8  C   UNL     1      43.724 -11.240   5.628  1.00  0.00     0.138 C 
HETATM    9  N   UNL     1      42.803 -10.198   6.109  1.00  0.00    -0.334 N 
HETATM   10  C   UNL     1      42.966  -9.556   7.334  1.00  0.00     0.318 C 
HETATM   11  C   UNL     1      42.067  -9.472   5.082  1.00  0.00     0.127 C 
HETATM   12  N   UNL     1      43.665 -10.288   8.261  1.00  0.00    -0.339 N 
HETATM   13  O   UNL     1      42.528  -8.433   7.563  1.00  0.00    -0.247 OA
HETATM   14  H   UNL     1      43.442 -11.273   8.199  1.00  0.00     0.164 HD
HETATM   15  C   UNL     1      41.391 -10.405   4.085  1.00  0.00     0.021 C 
HETATM   16  C   UNL     1      42.387 -11.400   3.494  1.00  0.00     0.014 C 
BRANCH  12  17
HETATM   17  C   UNL     1      43.975  -9.813   9.603  1.00  0.00     0.078 C 
HETATM   18  C   UNL     1      45.440  -9.409   9.741  1.00  0.00     0.032 C 
HETATM   19  C   UNL     1      43.554 -10.791  10.700  1.00  0.00     0.032 C 
ENDBRANCH  12  17
ENDBRANCH   1   7
BRANCH   6  20
HETATM   20  N   UNL     1      41.592 -14.515   3.093  1.00  0.00    -0.320 N 
HETATM   21  C   UNL     1      42.154 -15.515   2.341  1.00  0.00     0.256 C 
HETATM   22  O   UNL     1      42.010 -15.504   1.119  1.00  0.00    -0.267 OA
HETATM   23  H   UNL     1      41.108 -13.848   2.506  1.00  0.00     0.169 HD
BRANCH  21  24
HETATM   24  C   UNL     1      42.894 -16.635   2.934  1.00  0.00     0.032 A 
HETATM   25  C   UNL     1      42.834 -17.914   2.379  1.00  0.00     0.020 A 
HETATM   26  C   UNL     1      43.497 -18.966   3.018  1.00  0.00     0.038 A 
HETATM   27  C   UNL     1      44.183 -18.755   4.221  1.00  0.00     0.068 A 
HETATM   28  C   UNL     1      44.210 -17.477   4.783  1.00  0.00     0.038 A 
HETATM   29  C   UNL     1      43.561 -16.418   4.144  1.00  0.00     0.020 A 
BRANCH  27  30
HETATM   30  O   UNL     1      44.778 -19.872   4.745  1.00  0.00    -0.356 OA
HETATM   31  C   UNL     1      43.911 -20.894   5.220  1.00  0.00     0.210 C 
ENDBRANCH  27  30
ENDBRANCH  21  24
ENDBRANCH   6  20
TORSDOF 5
ENDMDL
MODEL 8
REMARK VINA RESULT:      -7.2      2.593      8.348
REMARK  5 active torsions:
REMARK  status: ('A' for Active; 'I' for Inactive)
REMARK    1  A    between atoms: C_2  and  N_3 
REMARK       I    between atoms: N_3  and  C_4 
REMARK       I    between atoms: C_4  and  N_5 
REMARK    2  A    between atoms: C_7  and  C_8 
REMARK    3  A    between atoms: C_13  and  N_14 
REMARK       I    between atoms: N_14  and  C_15 
REMARK    4  A    between atoms: C_15  and  C_16 
REMARK    5  A    between atoms: C_19  and  O_20 
ROOT
HETATM    1  C   UNL     1      42.509 -10.956   6.378  1.00  0.00     0.088 A 
HETATM    2  N   UNL     1      41.231 -11.353   6.319  1.00  0.00    -0.177 NA
HETATM    3  N   UNL     1      40.585 -10.495   7.118  1.00  0.00    -0.287 N 
HETATM    4  H   UNL     1      39.589 -10.628   7.263  1.00  0.00     0.188 HD
HETATM    5  C   UNL     1      41.392  -9.531   7.651  1.00  0.00     0.141 A 
HETATM    6  C   UNL     1      42.653  -9.763   7.161  1.00  0.00     0.079 A 
ENDROOT
BRANCH   1   7
HETATM    7  C   UNL     1      43.611 -11.750   5.708  1.00  0.00     0.060 C 
HETATM    8  C   UNL     1      43.181 -12.489   4.430  1.00  0.00     0.138 C 
HETATM    9  N   UNL     1      42.451 -13.744   4.669  1.00  0.00    -0.334 N 
HETATM   10  C   UNL     1      41.589 -14.305   3.730  1.00  0.00     0.318 C 
HETATM   11  C   UNL     1      43.047 -14.656   5.638  1.00  0.00     0.127 C 
HETATM   12  N   UNL     1      41.058 -13.399   2.848  1.00  0.00    -0.339 N 
HETATM   13  O   UNL     1      41.332 -15.504   3.692  1.00  0.00    -0.247 OA
HETATM   14  H   UNL     1      40.855 -12.517   3.299  1.00  0.00     0.164 HD
HETATM   15  C   UNL     1      43.411 -13.958   6.942  1.00  0.00     0.021 C 
HETATM   16  C   UNL     1      44.280 -12.728   6.690  1.00  0.00     0.014 C 
BRANCH  12  17
HETATM   17  C   UNL     1      40.148 -13.757   1.767  1.00  0.00     0.078 C 
HETATM   18  C   UNL     1      40.892 -14.318   0.558  1.00  0.00     0.032 C 
HETATM   19  C   UNL     1      39.205 -12.621   1.372  1.00  0.00     0.032 C 
ENDBRANCH  12  17
ENDBRANCH   1   7
BRANCH   6  20
HETATM   20  N   UNL     1      43.835  -9.076   7.362  1.00  0.00    -0.320 N 
HETATM   21  C   UNL     1      44.507  -8.689   8.493  1.00  0.00     0.256 C 
HETATM   22  O   UNL     1      45.602  -8.139   8.386  1.00  0.00    -0.267 OA
HETATM   23  H   UNL     1      44.357  -8.834   6.530  1.00  0.00     0.169 HD
BRANCH  21  24
HETATM   24  C   UNL     1      43.995  -8.938   9.846  1.00  0.00     0.032 A 
HETATM   25  C   UNL     1      44.100 -10.198  10.437  1.00  0.00     0.020 A 
HETATM   26  C   UNL     1      43.536 -10.410  11.698  1.00  0.00     0.038 A 
HETATM   27  C   UNL     1      42.837  -9.385  12.351  1.00  0.00     0.068 A 
HETATM   28  C   UNL     1      42.713  -8.137  11.737  1.00  0.00     0.038 A 
HETATM   29  C   UNL     1      43.286  -7.915  10.482  1.00  0.00     0.020 A 
BRANCH  27  30
HETATM   30  O   UNL     1      42.327  -9.729  13.574  1.00  0.00    -0.356 OA
HETATM   31  C   UNL     1      42.045  -8.661  14.471  1.00  0.00     0.210 C 
ENDBRANCH  27  30
ENDBRANCH  21  24
ENDBRANCH   6  20
TORSDOF 5
ENDMDL
MODEL 9
REMARK VINA RESULT:      -7.2      3.433      9.434
REMARK  5 active torsions:
REMARK  status: ('A' for Active; 'I' for Inactive)
REMARK    1  A    between atoms: C_2  and  N_3 
REMARK       I    between atoms: N_3  and  C_4 
REMARK       I    between atoms: C_4  and  N_5 
REMARK    2  A    between atoms: C_7  and  C_8 
REMARK    3  A    between atoms: C_13  and  N_14 
REMARK       I    between atoms: N_14  and  C_15 
REMARK    4  A    between atoms: C_15  and  C_16 
REMARK    5  A    between atoms: C_19  and  O_20 
ROOT
HETATM    1  C   UNL     1      43.490 -10.022   9.958  1.00  0.00     0.088 A 
HETATM    2  N   UNL     1      44.244 -10.996  10.485  1.00  0.00    -0.177 NA
HETATM    3  N   UNL     1      43.707 -11.208  11.692  1.00  0.00    -0.287 N 
HETATM    4  H   UNL     1      44.146 -11.890  12.302  1.00  0.00     0.188 HD
HETATM    5  C   UNL     1      42.605 -10.440  11.943  1.00  0.00     0.141 A 
HETATM    6  C   UNL     1      42.397  -9.679  10.821  1.00  0.00     0.079 A 
ENDROOT
BRANCH   1   7
HETATM    7  C   UNL     1      43.843  -9.384   8.631  1.00  0.00     0.060 C 
HETATM    8  C   UNL     1      43.124  -9.996   7.416  1.00  0.00     0.138 C 
HETATM    9  N   UNL     1      43.704 -11.261   6.938  1.00  0.00    -0.334 N 
HETATM   10  C   UNL     1      42.976 -12.194   6.204  1.00  0.00     0.318 C 
HETATM   11  C   UNL     1      45.151 -11.275   6.764  1.00  0.00     0.127 C 
HETATM   12  N   UNL     1      41.621 -12.133   6.410  1.00  0.00    -0.339 N 
HETATM   13  O   UNL     1      43.500 -12.994   5.436  1.00  0.00    -0.247 OA
HETATM   14  H   UNL     1      41.402 -11.925   7.375  1.00  0.00     0.164 HD
HETATM   15  C   UNL     1      45.887 -10.744   7.988  1.00  0.00     0.021 C 
HETATM   16  C   UNL     1      45.364  -9.370   8.397  1.00  0.00     0.014 C 
BRANCH  12  17
HETATM   17  C   UNL     1      40.659 -12.995   5.736  1.00  0.00     0.078 C 
HETATM   18  C   UNL     1      39.309 -12.308   5.548  1.00  0.00     0.032 C 
HETATM   19  C   UNL     1      40.508 -14.364   6.400  1.00  0.00     0.032 C 
ENDBRANCH  12  17
ENDBRANCH   1   7
BRANCH   6  20
HETATM   20  N   UNL     1      41.412  -8.753  10.534  1.00  0.00    -0.320 N 
HETATM   21  C   UNL     1      40.866  -7.721  11.252  1.00  0.00     0.256 C 
HETATM   22  O   UNL     1      40.033  -6.988  10.718  1.00  0.00    -0.267 OA
HETATM   23  H   UNL     1      41.025  -8.789   9.599  1.00  0.00     0.169 HD
BRANCH  21  24
HETATM   24  C   UNL     1      41.262  -7.415  12.632  1.00  0.00     0.032 A 
HETATM   25  C   UNL     1      42.508  -6.854  12.918  1.00  0.00     0.020 A 
HETATM   26  C   UNL     1      42.872  -6.647  14.252  1.00  0.00     0.038 A 
HETATM   27  C   UNL     1      42.019  -7.031  15.295  1.00  0.00     0.068 A 
HETATM   28  C   UNL     1      40.788  -7.619  14.997  1.00  0.00     0.038 A 
HETATM   29  C   UNL     1      40.412  -7.818  13.666  1.00  0.00     0.020 A 
BRANCH  27  30
HETATM   30  O   UNL     1      42.502  -6.780  16.552  1.00  0.00    -0.356 OA
HETATM   31  C   UNL     1      41.737  -5.899  17.366  1.00  0.00     0.210 C 
ENDBRANCH  27  30
ENDBRANCH  21  24
ENDBRANCH   6  20
TORSDOF 5
ENDMDL
MODEL 10
REMARK VINA RESULT:      -7.2     18.483     19.852
REMARK  5 active torsions:
REMARK  status: ('A' for Active; 'I' for Inactive)
REMARK    1  A    between atoms: C_2  and  N_3 
REMARK       I    between atoms: N_3  and  C_4 
REMARK       I    between atoms: C_4  and  N_5 
REMARK    2  A    between atoms: C_7  and  C_8 
REMARK    3  A    between atoms: C_13  and  N_14 
REMARK       I    between atoms: N_14  and  C_15 
REMARK    4  A    between atoms: C_15  and  C_16 
REMARK    5  A    between atoms: C_19  and  O_20 
ROOT
HETATM    1  C   UNL     1      43.874 -30.701  -0.646  1.00  0.00     0.088 A 
HETATM    2  N   UNL     1      43.792 -31.989  -0.286  1.00  0.00    -0.177 NA
HETATM    3  N   UNL     1      43.870 -32.657  -1.443  1.00  0.00    -0.287 N 
HETATM    4  H   UNL     1      43.788 -33.669  -1.421  1.00  0.00     0.188 HD
HETATM    5  C   UNL     1      44.047 -31.850  -2.529  1.00  0.00     0.141 A 
HETATM    6  C   UNL     1      44.100 -30.564  -2.055  1.00  0.00     0.079 A 
ENDROOT
BRANCH   1   7
HETATM    7  C   UNL     1      43.694 -29.588   0.365  1.00  0.00     0.060 C 
HETATM    8  C   UNL     1      44.855 -29.436   1.363  1.00  0.00     0.138 C 
HETATM    9  N   UNL     1      44.842 -30.411   2.465  1.00  0.00    -0.334 N 
HETATM   10  C   UNL     1      45.988 -30.760   3.175  1.00  0.00     0.318 C 
HETATM   11  C   UNL     1      43.568 -30.583   3.151  1.00  0.00     0.127 C 
HETATM   12  N   UNL     1      47.155 -30.578   2.477  1.00  0.00    -0.339 N 
HETATM   13  O   UNL     1      45.956 -31.186   4.325  1.00  0.00    -0.247 OA
HETATM   14  H   UNL     1      47.042 -30.809   1.500  1.00  0.00     0.164 HD
HETATM   15  C   UNL     1      42.414 -30.812   2.183  1.00  0.00     0.021 C 
HETATM   16  C   UNL     1      42.359 -29.719   1.118  1.00  0.00     0.014 C 
BRANCH  12  17
HETATM   17  C   UNL     1      48.477 -30.855   3.024  1.00  0.00     0.078 C 
HETATM   18  C   UNL     1      49.316 -29.587   3.159  1.00  0.00     0.032 C 
HETATM   19  C   UNL     1      49.227 -31.948   2.261  1.00  0.00     0.032 C 
ENDBRANCH  12  17
ENDBRANCH   1   7
BRANCH   6  20
HETATM   20  N   UNL     1      44.286 -29.368  -2.722  1.00  0.00    -0.320 N 
HETATM   21  C   UNL     1      45.370 -28.539  -2.866  1.00  0.00     0.256 C 
HETATM   22  O   UNL     1      45.280 -27.549  -3.591  1.00  0.00    -0.267 OA
HETATM   23  H   UNL     1      43.497 -29.029  -3.259  1.00  0.00     0.169 HD
BRANCH  21  24
HETATM   24  C   UNL     1      46.661 -28.802  -2.220  1.00  0.00     0.032 A 
HETATM   25  C   UNL     1      47.463 -29.873  -2.618  1.00  0.00     0.020 A 
HETATM   26  C   UNL     1      48.652 -30.128  -1.927  1.00  0.00     0.038 A 
HETATM   27  C   UNL     1      49.021 -29.347  -0.824  1.00  0.00     0.068 A 
HETATM   28  C   UNL     1      48.196 -28.297  -0.417  1.00  0.00     0.038 A 
HETATM   29  C   UNL     1      47.013 -28.028  -1.110  1.00  0.00     0.020 A 
BRANCH  27  30
HETATM   30  O   UNL     1      50.202 -29.711  -0.234  1.00  0.00    -0.356 OA
HETATM   31  C   UNL     1      50.949 -30.736  -0.880  1.00  0.00     0.210 C 
ENDBRANCH  27  30
ENDBRANCH  21  24
ENDBRANCH   6  20
TORSDOF 5
ENDMDL
