MODEL 1
REMARK VINA RESULT:      -9.4      0.000      0.000
REMARK  6 active torsions:
REMARK  status: ('A' for Active; 'I' for Inactive)
REMARK    1  A    between atoms: C_3  and  C_4 
REMARK    2  A    between atoms: C_4  and  C_5 
REMARK    3  A    between atoms: N_8  and  C_10 
REMARK    4  A    between atoms: C_10  and  C_11 
REMARK    5  A    between atoms: N_24  and  C_25 
REMARK    6  A    between atoms: C_25  and  C_26 
ROOT
HETATM    1  C   UNL     1      42.441 -13.161   5.519  1.00  0.00     0.149 C 
HETATM    2  N   UNL     1      43.295 -13.637   4.439  1.00  0.00    -0.220 NA
HETATM    3  C   UNL     1      42.872 -13.178   3.216  1.00  0.00     0.304 C 
HETATM    4  O   UNL     1      43.528 -13.308   2.197  1.00  0.00    -0.253 OA
HETATM    5  N   UNL     1      41.648 -12.615   3.355  1.00  0.00    -0.270 N 
HETATM    6  C   UNL     1      41.338 -12.478   4.679  1.00  0.00     0.257 C 
HETATM    7  O   UNL     1      40.332 -11.953   5.136  1.00  0.00    -0.270 OA
HETATM    8  H   UNL     1      44.303 -13.575   4.568  1.00  0.00     0.134 HD
ENDROOT
BRANCH   1   9
HETATM    9  C   UNL     1      43.255 -12.187   6.367  1.00  0.00     0.067 A 
HETATM   10  C   UNL     1      44.644 -12.220   6.446  1.00  0.00     0.030 A 
HETATM   11  C   UNL     1      45.295 -11.278   7.239  1.00  0.00     0.003 A 
HETATM   12  C   UNL     1      44.553 -10.321   7.922  1.00  0.00     0.019 A 
HETATM   13  C   UNL     1      43.179 -10.336   7.782  1.00  0.00     0.117 A 
HETATM   14  N   UNL     1      42.516 -11.235   7.018  1.00  0.00    -0.263 NA
ENDBRANCH   1   9
BRANCH   1  15
HETATM   15  C   UNL     1      41.848 -14.327   6.388  1.00  0.00     0.028 C 
HETATM   16  C   UNL     1      42.822 -14.920   7.420  1.00  0.00     0.035 C 
HETATM   17  C   UNL     1      43.937 -15.754   6.806  1.00  0.00     0.235 C 
HETATM   18  N   UNL     1      43.404 -16.813   5.866  1.00  0.00    -0.067 N 
HETATM   19  H   UNL     1      43.014 -17.564   6.454  1.00  0.00     0.280 HD
HETATM   20  C   UNL     1      42.310 -16.376   4.916  1.00  0.00     0.235 C 
HETATM   21  C   UNL     1      41.265 -15.521   5.608  1.00  0.00     0.035 C 
BRANCH  18  22
HETATM   22  C   UNL     1      44.521 -17.456   5.042  1.00  0.00     0.278 C 
BRANCH  22  23
HETATM   23  C   UNL     1      44.090 -18.520   4.077  1.00  0.00     0.028 A 
HETATM   24  C   UNL     1      43.701 -18.256   2.755  1.00  0.00     0.045 A 
HETATM   25 CL   UNL     1      43.741 -16.663   2.092  1.00  0.00    -0.084 Cl
HETATM   26  C   UNL     1      43.288 -19.294   1.913  1.00  0.00     0.024 A 
HETATM   27  C   UNL     1      43.259 -20.608   2.380  1.00  0.00     0.005 A 
HETATM   28  C   UNL     1      43.651 -20.886   3.686  1.00  0.00     0.043 A 
HETATM   29  C   UNL     1      44.061 -19.847   4.514  1.00  0.00     0.126 A 
HETATM   30  F   UNL     1      44.466 -20.124   5.762  1.00  0.00    -0.205 F 
ENDBRANCH  22  23
ENDBRANCH  18  22
ENDBRANCH   1  15
BRANCH   5  31
HETATM   31  C   UNL     1      40.817 -12.195   2.240  1.00  0.00     0.168 C 
BRANCH  31  32
HETATM   32  C   UNL     1      39.798 -13.285   1.858  1.00  0.00     0.140 C 
HETATM   33  O   UNL     1      39.517 -13.211   0.436  1.00  0.00    -0.384 OA
HETATM   34  C   UNL     1      39.761 -14.510  -0.126  1.00  0.00     0.168 C 
HETATM   35  C   UNL     1      40.754 -15.181   0.791  1.00  0.00     0.029 C 
HETATM   36  C   UNL     1      40.305 -14.693   2.145  1.00  0.00     0.036 C 
ENDBRANCH  31  32
ENDBRANCH   5  31
TORSDOF 6
ENDMDL
MODEL 2
REMARK VINA RESULT:      -9.3      2.174      2.776
REMARK  6 active torsions:
REMARK  status: ('A' for Active; 'I' for Inactive)
REMARK    1  A    between atoms: C_3  and  C_4 
REMARK    2  A    between atoms: C_4  and  C_5 
REMARK    3  A    between atoms: N_8  and  C_10 
REMARK    4  A    between atoms: C_10  and  C_11 
REMARK    5  A    between atoms: N_24  and  C_25 
REMARK    6  A    between atoms: C_25  and  C_26 
ROOT
HETATM    1  C   UNL     1      41.182 -13.620   4.201  1.00  0.00     0.149 C 
HETATM    2  N   UNL     1      42.500 -13.896   3.645  1.00  0.00    -0.220 NA
HETATM    3  C   UNL     1      42.439 -14.164   2.299  1.00  0.00     0.304 C 
HETATM    4  O   UNL     1      43.430 -14.254   1.597  1.00  0.00    -0.253 OA
HETATM    5  N   UNL     1      41.143 -14.326   1.941  1.00  0.00    -0.270 N 
HETATM    6  C   UNL     1      40.318 -13.947   2.962  1.00  0.00     0.257 C 
HETATM    7  O   UNL     1      39.095 -13.919   2.932  1.00  0.00    -0.270 OA
HETATM    8  H   UNL     1      43.263 -13.271   3.899  1.00  0.00     0.134 HD
ENDROOT
BRANCH   1   9
HETATM    9  C   UNL     1      41.140 -12.148   4.604  1.00  0.00     0.067 A 
HETATM   10  C   UNL     1      40.075 -11.575   5.294  1.00  0.00     0.030 A 
HETATM   11  C   UNL     1      40.139 -10.225   5.626  1.00  0.00     0.003 A 
HETATM   12  C   UNL     1      41.262  -9.481   5.279  1.00  0.00     0.019 A 
HETATM   13  C   UNL     1      42.289 -10.120   4.613  1.00  0.00     0.117 A 
HETATM   14  N   UNL     1      42.260 -11.431   4.278  1.00  0.00    -0.263 NA
ENDBRANCH   1   9
BRANCH   1  15
HETATM   15  C   UNL     1      40.819 -14.559   5.406  1.00  0.00     0.028 C 
HETATM   16  C   UNL     1      41.848 -14.566   6.550  1.00  0.00     0.035 C 
HETATM   17  C   UNL     1      43.148 -15.277   6.203  1.00  0.00     0.235 C 
HETATM   18  N   UNL     1      42.909 -16.667   5.657  1.00  0.00    -0.067 N 
HETATM   19  H   UNL     1      42.666 -17.265   6.460  1.00  0.00     0.280 HD
HETATM   20  C   UNL     1      41.794 -16.806   4.644  1.00  0.00     0.235 C 
HETATM   21  C   UNL     1      40.552 -16.035   5.056  1.00  0.00     0.035 C 
BRANCH  18  22
HETATM   22  C   UNL     1      44.179 -17.266   5.051  1.00  0.00     0.278 C 
BRANCH  22  23
HETATM   23  C   UNL     1      43.989 -18.512   4.237  1.00  0.00     0.028 A 
HETATM   24  C   UNL     1      43.869 -19.793   4.797  1.00  0.00     0.045 A 
HETATM   25 CL   UNL     1      43.871 -20.047   6.504  1.00  0.00    -0.084 Cl
HETATM   26  C   UNL     1      43.716 -20.916   3.978  1.00  0.00     0.024 A 
HETATM   27  C   UNL     1      43.680 -20.775   2.591  1.00  0.00     0.005 A 
HETATM   28  C   UNL     1      43.787 -19.510   2.022  1.00  0.00     0.043 A 
HETATM   29  C   UNL     1      43.938 -18.399   2.846  1.00  0.00     0.126 A 
HETATM   30  F   UNL     1      44.012 -17.179   2.293  1.00  0.00    -0.205 F 
ENDBRANCH  22  23
ENDBRANCH  18  22
ENDBRANCH   1  15
BRANCH   5  31
HETATM   31  C   UNL     1      40.717 -14.806   0.637  1.00  0.00     0.168 C 
BRANCH  31  32
HETATM   32  C   UNL     1      39.984 -13.706  -0.154  1.00  0.00     0.140 C 
HETATM   33  O   UNL     1      40.934 -12.685  -0.557  1.00  0.00    -0.384 OA
HETATM   34  C   UNL     1      40.825 -12.524  -1.980  1.00  0.00     0.168 C 
HETATM   35  C   UNL     1      40.289 -13.833  -2.507  1.00  0.00     0.029 C 
HETATM   36  C   UNL     1      39.323 -14.233  -1.421  1.00  0.00     0.036 C 
ENDBRANCH  31  32
ENDBRANCH   5  31
TORSDOF 6
ENDMDL
MODEL 3
REMARK VINA RESULT:      -9.2      3.249      7.406
REMARK  6 active torsions:
REMARK  status: ('A' for Active; 'I' for Inactive)
REMARK    1  A    between atoms: C_3  and  C_4 
REMARK    2  A    between atoms: C_4  and  C_5 
REMARK    3  A    between atoms: N_8  and  C_10 
REMARK    4  A    between atoms: C_10  and  C_11 
REMARK    5  A    between atoms: N_24  and  C_25 
REMARK    6  A    between atoms: C_25  and  C_26 
ROOT
HETATM    1  C   UNL     1      42.005 -14.631   4.057  1.00  0.00     0.149 C 
HETATM    2  N   UNL     1      42.574 -13.782   3.018  1.00  0.00    -0.220 NA
HETATM    3  C   UNL     1      43.266 -12.722   3.549  1.00  0.00     0.304 C 
HETATM    4  O   UNL     1      43.963 -11.983   2.878  1.00  0.00    -0.253 OA
HETATM    5  N   UNL     1      43.010 -12.649   4.877  1.00  0.00    -0.270 N 
HETATM    6  C   UNL     1      42.348 -13.771   5.294  1.00  0.00     0.257 C 
HETATM    7  O   UNL     1      42.026 -14.035   6.444  1.00  0.00    -0.270 OA
HETATM    8  H   UNL     1      43.060 -14.236   2.247  1.00  0.00     0.134 HD
ENDROOT
BRANCH   1   9
HETATM    9  C   UNL     1      42.736 -15.971   4.022  1.00  0.00     0.067 A 
HETATM   10  C   UNL     1      43.233 -16.539   2.852  1.00  0.00     0.030 A 
HETATM   11  C   UNL     1      43.897 -17.761   2.929  1.00  0.00     0.003 A 
HETATM   12  C   UNL     1      44.062 -18.380   4.163  1.00  0.00     0.019 A 
HETATM   13  C   UNL     1      43.560 -17.748   5.284  1.00  0.00     0.117 A 
HETATM   14  N   UNL     1      42.913 -16.561   5.245  1.00  0.00    -0.263 NA
ENDBRANCH   1   9
BRANCH   1  15
HETATM   15  C   UNL     1      40.453 -14.816   3.911  1.00  0.00     0.028 C 
HETATM   16  C   UNL     1      40.018 -15.722   2.746  1.00  0.00     0.035 C 
HETATM   17  C   UNL     1      40.216 -15.096   1.373  1.00  0.00     0.235 C 
HETATM   18  N   UNL     1      39.588 -13.724   1.278  1.00  0.00    -0.067 N 
HETATM   19  H   UNL     1      38.571 -13.866   1.191  1.00  0.00     0.280 HD
HETATM   20  C   UNL     1      39.809 -12.802   2.458  1.00  0.00     0.235 C 
HETATM   21  C   UNL     1      39.627 -13.521   3.782  1.00  0.00     0.035 C 
BRANCH  18  22
HETATM   22  C   UNL     1      40.024 -12.986   0.011  1.00  0.00     0.278 C 
BRANCH  22  23
HETATM   23  C   UNL     1      38.921 -12.589  -0.926  1.00  0.00     0.028 A 
HETATM   24  C   UNL     1      38.402 -13.438  -1.915  1.00  0.00     0.045 A 
HETATM   25 CL   UNL     1      38.955 -15.061  -2.108  1.00  0.00    -0.084 Cl
HETATM   26  C   UNL     1      37.388 -12.996  -2.771  1.00  0.00     0.024 A 
HETATM   27  C   UNL     1      36.879 -11.704  -2.649  1.00  0.00     0.005 A 
HETATM   28  C   UNL     1      37.377 -10.854  -1.665  1.00  0.00     0.043 A 
HETATM   29  C   UNL     1      38.385 -11.304  -0.819  1.00  0.00     0.126 A 
HETATM   30  F   UNL     1      38.841 -10.491   0.146  1.00  0.00    -0.205 F 
ENDBRANCH  22  23
ENDBRANCH  18  22
ENDBRANCH   1  15
BRANCH   5  31
HETATM   31  C   UNL     1      43.420 -11.541   5.723  1.00  0.00     0.168 C 
BRANCH  31  32
HETATM   32  C   UNL     1      44.503 -11.974   6.729  1.00  0.00     0.140 C 
HETATM   33  O   UNL     1      45.799 -11.497   6.281  1.00  0.00    -0.384 OA
HETATM   34  C   UNL     1      46.381 -10.740   7.354  1.00  0.00     0.168 C 
HETATM   35  C   UNL     1      45.225 -10.242   8.187  1.00  0.00     0.029 C 
HETATM   36  C   UNL     1      44.272 -11.408   8.124  1.00  0.00     0.036 C 
ENDBRANCH  31  32
ENDBRANCH   5  31
TORSDOF 6
ENDMDL
MODEL 4
REMARK VINA RESULT:      -9.2      3.180      7.358
REMARK  6 active torsions:
REMARK  status: ('A' for Active; 'I' for Inactive)
REMARK    1  A    between atoms: C_3  and  C_4 
REMARK    2  A    between atoms: C_4  and  C_5 
REMARK    3  A    between atoms: N_8  and  C_10 
REMARK    4  A    between atoms: C_10  and  C_11 
REMARK    5  A    between atoms: N_24  and  C_25 
REMARK    6  A    between atoms: C_25  and  C_26 
ROOT
HETATM    1  C   UNL     1      41.975 -14.656   3.998  1.00  0.00     0.149 C 
HETATM    2  N   UNL     1      42.564 -13.798   2.978  1.00  0.00    -0.220 NA
HETATM    3  C   UNL     1      43.242 -12.740   3.531  1.00  0.00     0.304 C 
HETATM    4  O   UNL     1      43.951 -11.995   2.879  1.00  0.00    -0.253 OA
HETATM    5  N   UNL     1      42.958 -12.678   4.853  1.00  0.00    -0.270 N 
HETATM    6  C   UNL     1      42.290 -13.803   5.248  1.00  0.00     0.257 C 
HETATM    7  O   UNL     1      41.945 -14.077   6.389  1.00  0.00    -0.270 OA
HETATM    8  H   UNL     1      43.068 -14.246   2.213  1.00  0.00     0.134 HD
ENDROOT
BRANCH   1   9
HETATM    9  C   UNL     1      42.710 -15.994   3.969  1.00  0.00     0.067 A 
HETATM   10  C   UNL     1      43.233 -16.552   2.806  1.00  0.00     0.030 A 
HETATM   11  C   UNL     1      43.898 -17.772   2.888  1.00  0.00     0.003 A 
HETATM   12  C   UNL     1      44.040 -18.401   4.121  1.00  0.00     0.019 A 
HETATM   13  C   UNL     1      43.513 -17.778   5.235  1.00  0.00     0.117 A 
HETATM   14  N   UNL     1      42.863 -16.592   5.192  1.00  0.00    -0.263 NA
ENDBRANCH   1   9
BRANCH   1  15
HETATM   15  C   UNL     1      40.427 -14.843   3.818  1.00  0.00     0.028 C 
HETATM   16  C   UNL     1      40.021 -15.768   2.658  1.00  0.00     0.035 C 
HETATM   17  C   UNL     1      40.251 -15.164   1.280  1.00  0.00     0.235 C 
HETATM   18  N   UNL     1      39.625 -13.794   1.148  1.00  0.00    -0.067 N 
HETATM   19  H   UNL     1      38.611 -13.938   1.039  1.00  0.00     0.280 HD
HETATM   20  C   UNL     1      39.819 -12.854   2.319  1.00  0.00     0.235 C 
HETATM   21  C   UNL     1      39.605 -13.551   3.649  1.00  0.00     0.035 C 
BRANCH  18  22
HETATM   22  C   UNL     1      40.091 -13.076  -0.120  1.00  0.00     0.278 C 
BRANCH  22  23
HETATM   23  C   UNL     1      39.004 -12.604  -1.039  1.00  0.00     0.028 A 
HETATM   24  C   UNL     1      38.581 -11.269  -1.119  1.00  0.00     0.045 A 
HETATM   25 CL   UNL     1      39.326 -10.019  -0.192  1.00  0.00    -0.084 Cl
HETATM   26  C   UNL     1      37.545 -10.900  -1.983  1.00  0.00     0.024 A 
HETATM   27  C   UNL     1      36.919 -11.859  -2.779  1.00  0.00     0.005 A 
HETATM   28  C   UNL     1      37.336 -13.186  -2.718  1.00  0.00     0.043 A 
HETATM   29  C   UNL     1      38.367 -13.541  -1.856  1.00  0.00     0.126 A 
HETATM   30  F   UNL     1      38.784 -14.816  -1.824  1.00  0.00    -0.205 F 
ENDBRANCH  22  23
ENDBRANCH  18  22
ENDBRANCH   1  15
BRANCH   5  31
HETATM   31  C   UNL     1      43.347 -11.575   5.715  1.00  0.00     0.168 C 
BRANCH  31  32
HETATM   32  C   UNL     1      44.435 -12.003   6.719  1.00  0.00     0.140 C 
HETATM   33  O   UNL     1      45.732 -11.547   6.253  1.00  0.00    -0.384 OA
HETATM   34  C   UNL     1      46.331 -10.780   7.309  1.00  0.00     0.168 C 
HETATM   35  C   UNL     1      45.187 -10.257   8.144  1.00  0.00     0.029 C 
HETATM   36  C   UNL     1      44.221 -11.413   8.107  1.00  0.00     0.036 C 
ENDBRANCH  31  32
ENDBRANCH   5  31
TORSDOF 6
ENDMDL
MODEL 5
REMARK VINA RESULT:      -9.0      2.357      5.919
REMARK  6 active torsions:
REMARK  status: ('A' for Active; 'I' for Inactive)
REMARK    1  A    between atoms: C_3  and  C_4 
REMARK    2  A    between atoms: C_4  and  C_5 
REMARK    3  A    between atoms: N_8  and  C_10 
REMARK    4  A    between atoms: C_10  and  C_11 
REMARK    5  A    between atoms: N_24  and  C_25 
REMARK    6  A    between atoms: C_25  and  C_26 
ROOT
HETATM    1  C   UNL     1      40.381 -12.292   1.857  1.00  0.00     0.149 C 
HETATM    2  N   UNL     1      39.862 -12.766   3.134  1.00  0.00    -0.220 NA
HETATM    3  C   UNL     1      40.451 -12.123   4.194  1.00  0.00     0.304 C 
HETATM    4  O   UNL     1      40.054 -12.235   5.340  1.00  0.00    -0.253 OA
HETATM    5  N   UNL     1      41.511 -11.410   3.743  1.00  0.00    -0.270 N 
HETATM    6  C   UNL     1      41.510 -11.373   2.377  1.00  0.00     0.257 C 
HETATM    7  O   UNL     1      42.299 -10.763   1.669  1.00  0.00    -0.270 OA
HETATM    8  H   UNL     1      38.852 -12.862   3.230  1.00  0.00     0.134 HD
ENDROOT
BRANCH   1   9
HETATM    9  C   UNL     1      39.261 -11.540   1.144  1.00  0.00     0.067 A 
HETATM   10  C   UNL     1      39.419 -10.935  -0.100  1.00  0.00     0.030 A 
HETATM   11  C   UNL     1      38.330 -10.283  -0.673  1.00  0.00     0.003 A 
HETATM   12  C   UNL     1      37.110 -10.259  -0.005  1.00  0.00     0.019 A 
HETATM   13  C   UNL     1      37.022 -10.897   1.217  1.00  0.00     0.117 A 
HETATM   14  N   UNL     1      38.058 -11.542   1.800  1.00  0.00    -0.263 NA
ENDBRANCH   1   9
BRANCH   1  15
HETATM   15  C   UNL     1      40.959 -13.449   0.967  1.00  0.00     0.028 C 
HETATM   16  C   UNL     1      40.025 -14.659   0.797  1.00  0.00     0.035 C 
HETATM   17  C   UNL     1      39.882 -15.506   2.053  1.00  0.00     0.235 C 
HETATM   18  N   UNL     1      41.223 -15.910   2.623  1.00  0.00    -0.067 N 
HETATM   19  H   UNL     1      41.588 -16.663   2.021  1.00  0.00     0.280 HD
HETATM   20  C   UNL     1      42.281 -14.829   2.676  1.00  0.00     0.235 C 
HETATM   21  C   UNL     1      42.326 -14.014   1.397  1.00  0.00     0.035 C 
BRANCH  18  22
HETATM   22  C   UNL     1      41.088 -16.513   4.023  1.00  0.00     0.278 C 
BRANCH  22  23
HETATM   23  C   UNL     1      42.339 -16.528   4.850  1.00  0.00     0.028 A 
HETATM   24  C   UNL     1      43.452 -17.330   4.558  1.00  0.00     0.045 A 
HETATM   25 CL   UNL     1      43.505 -18.346   3.164  1.00  0.00    -0.084 Cl
HETATM   26  C   UNL     1      44.580 -17.312   5.386  1.00  0.00     0.024 A 
HETATM   27  C   UNL     1      44.611 -16.493   6.514  1.00  0.00     0.005 A 
HETATM   28  C   UNL     1      43.518 -15.683   6.810  1.00  0.00     0.043 A 
HETATM   29  C   UNL     1      42.402 -15.708   5.980  1.00  0.00     0.126 A 
HETATM   30  F   UNL     1      41.364 -14.905   6.254  1.00  0.00    -0.205 F 
ENDBRANCH  22  23
ENDBRANCH  18  22
ENDBRANCH   1  15
BRANCH   5  31
HETATM   31  C   UNL     1      42.479 -10.760   4.610  1.00  0.00     0.168 C 
BRANCH  31  32
HETATM   32  C   UNL     1      43.514 -11.765   5.150  1.00  0.00     0.140 C 
HETATM   33  O   UNL     1      44.852 -11.241   4.945  1.00  0.00    -0.384 OA
HETATM   34  C   UNL     1      45.522 -11.243   6.215  1.00  0.00     0.168 C 
HETATM   35  C   UNL     1      44.435 -11.174   7.259  1.00  0.00     0.029 C 
HETATM   36  C   UNL     1      43.357 -12.027   6.643  1.00  0.00     0.036 C 
ENDBRANCH  31  32
ENDBRANCH   5  31
TORSDOF 6
ENDMDL
MODEL 6
REMARK VINA RESULT:      -8.6      3.323      7.377
REMARK  6 active torsions:
REMARK  status: ('A' for Active; 'I' for Inactive)
REMARK    1  A    between atoms: C_3  and  C_4 
REMARK    2  A    between atoms: C_4  and  C_5 
REMARK    3  A    between atoms: N_8  and  C_10 
REMARK    4  A    between atoms: C_10  and  C_11 
REMARK    5  A    between atoms: N_24  and  C_25 
REMARK    6  A    between atoms: C_25  and  C_26 
ROOT
HETATM    1  C   UNL     1      42.348 -13.235   4.204  1.00  0.00     0.149 C 
HETATM    2  N   UNL     1      43.224 -12.252   3.579  1.00  0.00    -0.220 NA
HETATM    3  C   UNL     1      44.257 -11.890   4.408  1.00  0.00     0.304 C 
HETATM    4  O   UNL     1      45.200 -11.216   4.035  1.00  0.00    -0.253 OA
HETATM    5  N   UNL     1      44.017 -12.376   5.649  1.00  0.00    -0.270 N 
HETATM    6  C   UNL     1      42.966 -13.250   5.621  1.00  0.00     0.257 C 
HETATM    7  O   UNL     1      42.540 -13.900   6.565  1.00  0.00    -0.270 OA
HETATM    8  H   UNL     1      43.517 -12.420   2.618  1.00  0.00     0.134 HD
ENDROOT
BRANCH   1   9
HETATM    9  C   UNL     1      42.510 -14.554   3.453  1.00  0.00     0.067 A 
HETATM   10  C   UNL     1      43.139 -14.655   2.215  1.00  0.00     0.030 A 
HETATM   11  C   UNL     1      43.247 -15.908   1.618  1.00  0.00     0.003 A 
HETATM   12  C   UNL     1      42.741 -17.029   2.267  1.00  0.00     0.019 A 
HETATM   13  C   UNL     1      42.148 -16.856   3.502  1.00  0.00     0.117 A 
HETATM   14  N   UNL     1      42.029 -15.654   4.112  1.00  0.00    -0.263 NA
ENDBRANCH   1   9
BRANCH   1  15
HETATM   15  C   UNL     1      40.848 -12.775   4.247  1.00  0.00     0.028 C 
HETATM   16  C   UNL     1      39.873 -13.683   3.479  1.00  0.00     0.035 C 
HETATM   17  C   UNL     1      40.006 -13.589   1.966  1.00  0.00     0.235 C 
HETATM   18  N   UNL     1      39.941 -12.159   1.478  1.00  0.00    -0.067 N 
HETATM   19  H   UNL     1      38.952 -11.873   1.521  1.00  0.00     0.280 HD
HETATM   20  C   UNL     1      40.733 -11.143   2.272  1.00  0.00     0.235 C 
HETATM   21  C   UNL     1      40.568 -11.337   3.768  1.00  0.00     0.035 C 
BRANCH  18  22
HETATM   22  C   UNL     1      40.354 -12.039   0.009  1.00  0.00     0.278 C 
BRANCH  22  23
HETATM   23  C   UNL     1      39.356 -12.542  -0.992  1.00  0.00     0.028 A 
HETATM   24  C   UNL     1      38.247 -11.798  -1.421  1.00  0.00     0.045 A 
HETATM   25 CL   UNL     1      37.958 -10.189  -0.869  1.00  0.00    -0.084 Cl
HETATM   26  C   UNL     1      37.342 -12.336  -2.341  1.00  0.00     0.024 A 
HETATM   27  C   UNL     1      37.533 -13.622  -2.846  1.00  0.00     0.005 A 
HETATM   28  C   UNL     1      38.635 -14.368  -2.437  1.00  0.00     0.043 A 
HETATM   29  C   UNL     1      39.529 -13.823  -1.522  1.00  0.00     0.126 A 
HETATM   30  F   UNL     1      40.605 -14.534  -1.154  1.00  0.00    -0.205 F 
ENDBRANCH  22  23
ENDBRANCH  18  22
ENDBRANCH   1  15
BRANCH   5  31
HETATM   31  C   UNL     1      44.801 -12.027   6.822  1.00  0.00     0.168 C 
BRANCH  31  32
HETATM   32  C   UNL     1      44.500 -10.592   7.292  1.00  0.00     0.140 C 
HETATM   33  O   UNL     1      43.406 -10.612   8.246  1.00  0.00    -0.384 OA
HETATM   34  C   UNL     1      43.853  -9.946   9.438  1.00  0.00     0.168 C 
HETATM   35  C   UNL     1      45.357 -10.074   9.447  1.00  0.00     0.029 C 
HETATM   36  C   UNL     1      45.690  -9.937   7.984  1.00  0.00     0.036 C 
ENDBRANCH  31  32
ENDBRANCH   5  31
TORSDOF 6
ENDMDL
MODEL 7
REMARK VINA RESULT:      -8.5      3.186      7.410
REMARK  6 active torsions:
REMARK  status: ('A' for Active; 'I' for Inactive)
REMARK    1  A    between atoms: C_3  and  C_4 
REMARK    2  A    between atoms: C_4  and  C_5 
REMARK    3  A    between atoms: N_8  and  C_10 
REMARK    4  A    between atoms: C_10  and  C_11 
REMARK    5  A    between atoms: N_24  and  C_25 
REMARK    6  A    between atoms: C_25  and  C_26 
ROOT
HETATM    1  C   UNL     1      40.522 -13.824   1.166  1.00  0.00     0.149 C 
HETATM    2  N   UNL     1      41.869 -13.355   1.467  1.00  0.00    -0.220 NA
HETATM    3  C   UNL     1      42.703 -14.389   1.812  1.00  0.00     0.304 C 
HETATM    4  O   UNL     1      43.907 -14.255   1.937  1.00  0.00    -0.253 OA
HETATM    5  N   UNL     1      41.963 -15.507   2.002  1.00  0.00    -0.270 N 
HETATM    6  C   UNL     1      40.682 -15.307   1.569  1.00  0.00     0.257 C 
HETATM    7  O   UNL     1      39.787 -16.140   1.549  1.00  0.00    -0.270 OA
HETATM    8  H   UNL     1      42.295 -12.689   0.824  1.00  0.00     0.134 HD
ENDROOT
BRANCH   1   9
HETATM    9  C   UNL     1      40.275 -13.619  -0.326  1.00  0.00     0.067 A 
HETATM   10  C   UNL     1      39.389 -14.396  -1.067  1.00  0.00     0.030 A 
HETATM   11  C   UNL     1      39.225 -14.120  -2.422  1.00  0.00     0.003 A 
HETATM   12  C   UNL     1      39.933 -13.074  -3.004  1.00  0.00     0.019 A 
HETATM   13  C   UNL     1      40.780 -12.333  -2.203  1.00  0.00     0.117 A 
HETATM   14  N   UNL     1      40.960 -12.572  -0.884  1.00  0.00    -0.263 NA
ENDBRANCH   1   9
BRANCH   1  15
HETATM   15  C   UNL     1      39.422 -13.118   2.036  1.00  0.00     0.028 C 
HETATM   16  C   UNL     1      39.147 -11.652   1.662  1.00  0.00     0.035 C 
HETATM   17  C   UNL     1      40.267 -10.697   2.049  1.00  0.00     0.235 C 
HETATM   18  N   UNL     1      40.658 -10.840   3.503  1.00  0.00    -0.067 N 
HETATM   19  H   UNL     1      39.921 -10.378   4.057  1.00  0.00     0.280 HD
HETATM   20  C   UNL     1      40.788 -12.253   4.027  1.00  0.00     0.235 C 
HETATM   21  C   UNL     1      39.649 -13.140   3.560  1.00  0.00     0.035 C 
BRANCH  18  22
HETATM   22  C   UNL     1      41.956 -10.094   3.819  1.00  0.00     0.278 C 
BRANCH  22  23
HETATM   23  C   UNL     1      42.699 -10.563   5.034  1.00  0.00     0.028 A 
HETATM   24  C   UNL     1      42.312 -10.255   6.347  1.00  0.00     0.045 A 
HETATM   25 CL   UNL     1      40.889  -9.341   6.688  1.00  0.00    -0.084 Cl
HETATM   26  C   UNL     1      43.065 -10.707   7.436  1.00  0.00     0.024 A 
HETATM   27  C   UNL     1      44.212 -11.472   7.228  1.00  0.00     0.005 A 
HETATM   28  C   UNL     1      44.602 -11.795   5.932  1.00  0.00     0.043 A 
HETATM   29  C   UNL     1      43.846 -11.342   4.856  1.00  0.00     0.126 A 
HETATM   30  F   UNL     1      44.210 -11.680   3.611  1.00  0.00    -0.205 F 
ENDBRANCH  22  23
ENDBRANCH  18  22
ENDBRANCH   1  15
BRANCH   5  31
HETATM   31  C   UNL     1      42.489 -16.743   2.559  1.00  0.00     0.168 C 
BRANCH  31  32
HETATM   32  C   UNL     1      42.180 -16.856   4.064  1.00  0.00     0.140 C 
HETATM   33  O   UNL     1      43.181 -17.692   4.702  1.00  0.00    -0.384 OA
HETATM   34  C   UNL     1      43.744 -16.944   5.792  1.00  0.00     0.168 C 
HETATM   35  C   UNL     1      43.550 -15.489   5.443  1.00  0.00     0.029 C 
HETATM   36  C   UNL     1      42.200 -15.507   4.772  1.00  0.00     0.036 C 
ENDBRANCH  31  32
ENDBRANCH   5  31
TORSDOF 6
ENDMDL
MODEL 8
REMARK VINA RESULT:      -8.5      3.043      5.972
REMARK  6 active torsions:
REMARK  status: ('A' for Active; 'I' for Inactive)
REMARK    1  A    between atoms: C_3  and  C_4 
REMARK    2  A    between atoms: C_4  and  C_5 
REMARK    3  A    between atoms: N_8  and  C_10 
REMARK    4  A    between atoms: C_10  and  C_11 
REMARK    5  A    between atoms: N_24  and  C_25 
REMARK    6  A    between atoms: C_25  and  C_26 
ROOT
HETATM    1  C   UNL     1      42.397 -12.300   5.622  1.00  0.00     0.149 C 
HETATM    2  N   UNL     1      41.032 -12.793   5.480  1.00  0.00    -0.220 NA
HETATM    3  C   UNL     1      40.837 -13.960   6.175  1.00  0.00     0.304 C 
HETATM    4  O   UNL     1      39.738 -14.458   6.338  1.00  0.00    -0.253 OA
HETATM    5  N   UNL     1      42.037 -14.431   6.590  1.00  0.00    -0.270 N 
HETATM    6  C   UNL     1      43.010 -13.492   6.391  1.00  0.00     0.257 C 
HETATM    7  O   UNL     1      44.186 -13.588   6.714  1.00  0.00    -0.270 OA
HETATM    8  H   UNL     1      40.272 -12.124   5.590  1.00  0.00     0.134 HD
ENDROOT
BRANCH   1   9
HETATM    9  C   UNL     1      42.348 -11.008   6.434  1.00  0.00     0.067 A 
HETATM   10  C   UNL     1      41.172 -10.302   6.674  1.00  0.00     0.030 A 
HETATM   11  C   UNL     1      41.232  -9.140   7.439  1.00  0.00     0.003 A 
HETATM   12  C   UNL     1      42.451  -8.716   7.957  1.00  0.00     0.019 A 
HETATM   13  C   UNL     1      43.573  -9.478   7.694  1.00  0.00     0.117 A 
HETATM   14  N   UNL     1      43.549 -10.613   6.958  1.00  0.00    -0.263 NA
ENDBRANCH   1   9
BRANCH   1  15
HETATM   15  C   UNL     1      43.115 -12.088   4.242  1.00  0.00     0.028 C 
HETATM   16  C   UNL     1      42.558 -10.930   3.397  1.00  0.00     0.035 C 
HETATM   17  C   UNL     1      41.187 -11.209   2.800  1.00  0.00     0.235 C 
HETATM   18  N   UNL     1      41.150 -12.520   2.046  1.00  0.00    -0.067 N 
HETATM   19  H   UNL     1      41.632 -12.363   1.150  1.00  0.00     0.280 HD
HETATM   20  C   UNL     1      41.827 -13.697   2.716  1.00  0.00     0.235 C 
HETATM   21  C   UNL     1      43.169 -13.316   3.313  1.00  0.00     0.035 C 
BRANCH  18  22
HETATM   22  C   UNL     1      39.720 -12.933   1.693  1.00  0.00     0.278 C 
BRANCH  22  23
HETATM   23  C   UNL     1      39.407 -13.012   0.228  1.00  0.00     0.028 A 
HETATM   24  C   UNL     1      38.802 -11.971  -0.492  1.00  0.00     0.045 A 
HETATM   25 CL   UNL     1      38.412 -10.459   0.243  1.00  0.00    -0.084 Cl
HETATM   26  C   UNL     1      38.517 -12.118  -1.854  1.00  0.00     0.024 A 
HETATM   27  C   UNL     1      38.832 -13.306  -2.513  1.00  0.00     0.005 A 
HETATM   28  C   UNL     1      39.442 -14.344  -1.813  1.00  0.00     0.043 A 
HETATM   29  C   UNL     1      39.722 -14.186  -0.460  1.00  0.00     0.126 A 
HETATM   30  F   UNL     1      40.336 -15.178   0.202  1.00  0.00    -0.205 F 
ENDBRANCH  22  23
ENDBRANCH  18  22
ENDBRANCH   1  15
BRANCH   5  31
HETATM   31  C   UNL     1      42.231 -15.741   7.190  1.00  0.00     0.168 C 
BRANCH  31  32
HETATM   32  C   UNL     1      42.217 -16.853   6.125  1.00  0.00     0.140 C 
HETATM   33  O   UNL     1      42.414 -16.269   4.811  1.00  0.00    -0.384 OA
HETATM   34  C   UNL     1      43.528 -16.938   4.198  1.00  0.00     0.168 C 
HETATM   35  C   UNL     1      44.371 -17.467   5.332  1.00  0.00     0.029 C 
HETATM   36  C   UNL     1      43.323 -17.881   6.332  1.00  0.00     0.036 C 
ENDBRANCH  31  32
ENDBRANCH   5  31
TORSDOF 6
ENDMDL
MODEL 9
REMARK VINA RESULT:      -8.4      3.422      7.396
REMARK  6 active torsions:
REMARK  status: ('A' for Active; 'I' for Inactive)
REMARK    1  A    between atoms: C_3  and  C_4 
REMARK    2  A    between atoms: C_4  and  C_5 
REMARK    3  A    between atoms: N_8  and  C_10 
REMARK    4  A    between atoms: C_10  and  C_11 
REMARK    5  A    between atoms: N_24  and  C_25 
REMARK    6  A    between atoms: C_25  and  C_26 
ROOT
HETATM    1  C   UNL     1      41.847 -15.400   3.411  1.00  0.00     0.149 C 
HETATM    2  N   UNL     1      42.580 -14.402   2.641  1.00  0.00    -0.220 NA
HETATM    3  C   UNL     1      42.949 -13.331   3.417  1.00  0.00     0.304 C 
HETATM    4  O   UNL     1      43.711 -12.464   3.029  1.00  0.00    -0.253 OA
HETATM    5  N   UNL     1      42.315 -13.413   4.611  1.00  0.00    -0.270 N 
HETATM    6  C   UNL     1      41.708 -14.630   4.743  1.00  0.00     0.257 C 
HETATM    7  O   UNL     1      41.105 -15.035   5.728  1.00  0.00    -0.270 OA
HETATM    8  H   UNL     1      43.321 -14.728   2.023  1.00  0.00     0.134 HD
ENDROOT
BRANCH   1   9
HETATM    9  C   UNL     1      42.721 -16.648   3.513  1.00  0.00     0.067 A 
HETATM   10  C   UNL     1      42.768 -17.629   2.527  1.00  0.00     0.030 A 
HETATM   11  C   UNL     1      43.608 -18.725   2.711  1.00  0.00     0.003 A 
HETATM   12  C   UNL     1      44.387 -18.813   3.859  1.00  0.00     0.019 A 
HETATM   13  C   UNL     1      44.303 -17.792   4.785  1.00  0.00     0.117 A 
HETATM   14  N   UNL     1      43.500 -16.713   4.637  1.00  0.00    -0.263 NA
ENDBRANCH   1   9
BRANCH   1  15
HETATM   15  C   UNL     1      40.439 -15.729   2.799  1.00  0.00     0.028 C 
HETATM   16  C   UNL     1      40.418 -15.863   1.267  1.00  0.00     0.035 C 
HETATM   17  C   UNL     1      40.586 -14.541   0.531  1.00  0.00     0.235 C 
HETATM   18  N   UNL     1      39.609 -13.493   1.015  1.00  0.00    -0.067 N 
HETATM   19  H   UNL     1      38.692 -13.730   0.610  1.00  0.00     0.280 HD
HETATM   20  C   UNL     1      39.422 -13.392   2.513  1.00  0.00     0.235 C 
HETATM   21  C   UNL     1      39.300 -14.758   3.164  1.00  0.00     0.035 C 
BRANCH  18  22
HETATM   22  C   UNL     1      39.959 -12.101   0.485  1.00  0.00     0.278 C 
BRANCH  22  23
HETATM   23  C   UNL     1      39.121 -11.607  -0.656  1.00  0.00     0.028 A 
HETATM   24  C   UNL     1      37.786 -11.199  -0.518  1.00  0.00     0.045 A 
HETATM   25 CL   UNL     1      36.993 -11.174   1.015  1.00  0.00    -0.084 Cl
HETATM   26  C   UNL     1      37.054 -10.770  -1.630  1.00  0.00     0.024 A 
HETATM   27  C   UNL     1      37.645 -10.741  -2.892  1.00  0.00     0.005 A 
HETATM   28  C   UNL     1      38.973 -11.133  -3.043  1.00  0.00     0.043 A 
HETATM   29  C   UNL     1      39.692 -11.557  -1.931  1.00  0.00     0.126 A 
HETATM   30  F   UNL     1      40.978 -11.906  -2.077  1.00  0.00    -0.205 F 
ENDBRANCH  22  23
ENDBRANCH  18  22
ENDBRANCH   1  15
BRANCH   5  31
HETATM   31  C   UNL     1      42.321 -12.354   5.606  1.00  0.00     0.168 C 
BRANCH  31  32
HETATM   32  C   UNL     1      41.210 -11.322   5.334  1.00  0.00     0.140 C 
HETATM   33  O   UNL     1      39.968 -11.776   5.934  1.00  0.00    -0.384 OA
HETATM   34  C   UNL     1      39.487 -10.729   6.791  1.00  0.00     0.168 C 
HETATM   35  C   UNL     1      40.702  -9.927   7.191  1.00  0.00     0.029 C 
HETATM   36  C   UNL     1      41.521  -9.952   5.925  1.00  0.00     0.036 C 
ENDBRANCH  31  32
ENDBRANCH   5  31
TORSDOF 6
ENDMDL
MODEL 10
REMARK VINA RESULT:      -8.4      3.272      6.921
REMARK  6 active torsions:
REMARK  status: ('A' for Active; 'I' for Inactive)
REMARK    1  A    between atoms: C_3  and  C_4 
REMARK    2  A    between atoms: C_4  and  C_5 
REMARK    3  A    between atoms: N_8  and  C_10 
REMARK    4  A    between atoms: C_10  and  C_11 
REMARK    5  A    between atoms: N_24  and  C_25 
REMARK    6  A    between atoms: C_25  and  C_26 
ROOT
HETATM    1  C   UNL     1      42.447 -15.696   3.709  1.00  0.00     0.149 C 
HETATM    2  N   UNL     1      40.999 -15.859   3.760  1.00  0.00    -0.220 NA
HETATM    3  C   UNL     1      40.416 -15.611   2.542  1.00  0.00     0.304 C 
HETATM    4  O   UNL     1      39.245 -15.850   2.308  1.00  0.00    -0.253 OA
HETATM    5  N   UNL     1      41.337 -15.057   1.718  1.00  0.00    -0.270 N 
HETATM    6  C   UNL     1      42.582 -15.138   2.275  1.00  0.00     0.257 C 
HETATM    7  O   UNL     1      43.631 -14.781   1.757  1.00  0.00    -0.270 OA
HETATM    8  H   UNL     1      40.630 -16.687   4.224  1.00  0.00     0.134 HD
ENDROOT
BRANCH   1   9
HETATM    9  C   UNL     1      43.081 -17.073   3.892  1.00  0.00     0.067 A 
HETATM   10  C   UNL     1      43.382 -17.921   2.830  1.00  0.00     0.030 A 
HETATM   11  C   UNL     1      43.973 -19.153   3.102  1.00  0.00     0.003 A 
HETATM   12  C   UNL     1      44.261 -19.506   4.416  1.00  0.00     0.019 A 
HETATM   13  C   UNL     1      43.952 -18.605   5.417  1.00  0.00     0.117 A 
HETATM   14  N   UNL     1      43.381 -17.400   5.188  1.00  0.00    -0.263 NA
ENDBRANCH   1   9
BRANCH   1  15
HETATM   15  C   UNL     1      42.982 -14.668   4.768  1.00  0.00     0.028 C 
HETATM   16  C   UNL     1      42.277 -14.723   6.134  1.00  0.00     0.035 C 
HETATM   17  C   UNL     1      40.856 -14.179   6.115  1.00  0.00     0.235 C 
HETATM   18  N   UNL     1      40.785 -12.797   5.503  1.00  0.00    -0.067 N 
HETATM   19  H   UNL     1      41.147 -12.140   6.209  1.00  0.00     0.280 HD
HETATM   20  C   UNL     1      41.588 -12.581   4.239  1.00  0.00     0.235 C 
HETATM   21  C   UNL     1      42.976 -13.189   4.337  1.00  0.00     0.035 C 
BRANCH  18  22
HETATM   22  C   UNL     1      39.341 -12.371   5.227  1.00  0.00     0.278 C 
BRANCH  22  23
HETATM   23  C   UNL     1      39.088 -10.893   5.217  1.00  0.00     0.028 A 
HETATM   24  C   UNL     1      38.690 -10.182   4.075  1.00  0.00     0.045 A 
HETATM   25 CL   UNL     1      38.396 -10.968   2.567  1.00  0.00    -0.084 Cl
HETATM   26  C   UNL     1      38.492  -8.799   4.130  1.00  0.00     0.024 A 
HETATM   27  C   UNL     1      38.687  -8.108   5.326  1.00  0.00     0.005 A 
HETATM   28  C   UNL     1      39.071  -8.802   6.470  1.00  0.00     0.043 A 
HETATM   29  C   UNL     1      39.265 -10.177   6.404  1.00  0.00     0.126 A 
HETATM   30  F   UNL     1      39.607 -10.845   7.516  1.00  0.00    -0.205 F 
ENDBRANCH  22  23
ENDBRANCH  18  22
ENDBRANCH   1  15
BRANCH   5  31
HETATM   31  C   UNL     1      41.024 -14.492   0.416  1.00  0.00     0.168 C 
BRANCH  31  32
HETATM   32  C   UNL     1      40.310 -13.133   0.550  1.00  0.00     0.140 C 
HETATM   33  O   UNL     1      41.299 -12.077   0.669  1.00  0.00    -0.384 OA
HETATM   34  C   UNL     1      41.023 -11.103  -0.351  1.00  0.00     0.168 C 
HETATM   35  C   UNL     1      40.293 -11.843  -1.445  1.00  0.00     0.029 C 
HETATM   36  C   UNL     1      39.440 -12.803  -0.657  1.00  0.00     0.036 C 
ENDBRANCH  31  32
ENDBRANCH   5  31
TORSDOF 6
ENDMDL
