MODEL 1
REMARK VINA RESULT:      -8.5      0.000      0.000
REMARK  7 active torsions:
REMARK  status: ('A' for Active; 'I' for Inactive)
REMARK    1  A    between atoms: C_2  and  N_3 
REMARK    2  A    between atoms: C_2  and  C_17 
REMARK       I    between atoms: N_3  and  C_4 
REMARK    3  A    between atoms: C_4  and  C_5 
REMARK    4  A    between atoms: C_7  and  N_8 
REMARK    5  A    between atoms: C_17  and  O_18 
REMARK    6  A    between atoms: C_17  and  C_19 
REMARK    7  A    between atoms: C_22  and  O_23 
ROOT
HETATM    1  N   UNL     1      43.888 -14.234   6.969  1.00  0.00    -0.349 N 
HETATM    2  C   UNL     1      43.950 -13.032   6.301  1.00  0.00     0.270 C 
HETATM    3  O   UNL     1      43.488 -12.845   5.181  1.00  0.00    -0.266 OA
HETATM    4  H   UNL     1      44.283 -14.245   7.905  1.00  0.00     0.163 HD
ENDROOT
BRANCH   1   5
HETATM    5  C   UNL     1      43.285 -15.453   6.433  1.00  0.00     0.114 C 
HETATM    6  C   UNL     1      41.800 -15.515   6.804  1.00  0.00     0.035 C 
BRANCH   5   7
HETATM    7  C   UNL     1      44.032 -16.765   6.821  1.00  0.00     0.173 C 
BRANCH   7   8
HETATM    8  O   UNL     1      43.462 -17.326   8.012  1.00  0.00    -0.389 OA
HETATM    9  H   UNL     1      43.596 -16.667   8.715  1.00  0.00     0.210 HD
ENDBRANCH   7   8
BRANCH   7  10
HETATM   10  C   UNL     1      43.963 -17.818   5.729  1.00  0.00    -0.028 A 
HETATM   11  C   UNL     1      43.856 -19.174   6.068  1.00  0.00     0.012 A 
HETATM   12  C   UNL     1      43.800 -20.153   5.073  1.00  0.00     0.037 A 
HETATM   13  C   UNL     1      43.839 -19.800   3.723  1.00  0.00     0.068 A 
HETATM   14  C   UNL     1      43.955 -18.455   3.375  1.00  0.00     0.037 A 
HETATM   15  C   UNL     1      44.020 -17.474   4.370  1.00  0.00     0.012 A 
BRANCH  13  16
HETATM   16  O   UNL     1      43.761 -20.853   2.853  1.00  0.00    -0.356 OA
HETATM   17  C   UNL     1      43.518 -20.534   1.488  1.00  0.00     0.210 C 
ENDBRANCH  13  16
ENDBRANCH   7  10
ENDBRANCH   5   7
ENDBRANCH   1   5
BRANCH   2  18
HETATM   18  C   UNL     1      44.622 -11.931   7.065  1.00  0.00     0.126 A 
HETATM   19  N   UNL     1      44.056 -11.593   8.258  1.00  0.00    -0.224 NA
HETATM   20  C   UNL     1      44.664 -10.597   8.959  1.00  0.00     0.151 A 
HETATM   21  C   UNL     1      45.801  -9.930   8.497  1.00  0.00     0.052 A 
HETATM   22  C   UNL     1      46.348 -10.300   7.271  1.00  0.00     0.006 A 
HETATM   23  C   UNL     1      45.754 -11.323   6.540  1.00  0.00     0.037 A 
BRANCH  20  24
HETATM   24  N   UNL     1      44.118 -10.233  10.228  1.00  0.00    -0.227 N 
HETATM   25  N   UNL     1      43.742 -11.157  11.155  1.00  0.00    -0.179 NA
HETATM   26  C   UNL     1      43.279 -10.433  12.176  1.00  0.00     0.141 A 
HETATM   27  C   UNL     1      43.345  -9.053  11.935  1.00  0.00     0.040 A 
HETATM   28  C   UNL     1      43.889  -8.949  10.678  1.00  0.00     0.122 A 
ENDBRANCH  20  24
ENDBRANCH   2  18
TORSDOF 7
ENDMDL
MODEL 2
REMARK VINA RESULT:      -8.4      1.485      1.991
REMARK  7 active torsions:
REMARK  status: ('A' for Active; 'I' for Inactive)
REMARK    1  A    between atoms: C_2  and  N_3 
REMARK    2  A    between atoms: C_2  and  C_17 
REMARK       I    between atoms: N_3  and  C_4 
REMARK    3  A    between atoms: C_4  and  C_5 
REMARK    4  A    between atoms: C_7  and  N_8 
REMARK    5  A    between atoms: C_17  and  O_18 
REMARK    6  A    between atoms: C_17  and  C_19 
REMARK    7  A    between atoms: C_22  and  O_23 
ROOT
HETATM    1  N   UNL     1      42.272 -13.115   6.531  1.00  0.00    -0.349 N 
HETATM    2  C   UNL     1      43.327 -12.515   5.880  1.00  0.00     0.270 C 
HETATM    3  O   UNL     1      43.511 -12.580   4.670  1.00  0.00    -0.266 OA
HETATM    4  H   UNL     1      42.220 -12.957   7.534  1.00  0.00     0.163 HD
ENDROOT
BRANCH   1   5
HETATM    5  C   UNL     1      41.245 -13.925   5.880  1.00  0.00     0.114 C 
HETATM    6  C   UNL     1      39.883 -13.228   5.977  1.00  0.00     0.035 C 
BRANCH   5   7
HETATM    7  C   UNL     1      41.175 -15.400   6.379  1.00  0.00     0.173 C 
BRANCH   7   8
HETATM    8  O   UNL     1      39.824 -15.880   6.323  1.00  0.00    -0.389 OA
HETATM    9  H   UNL     1      39.522 -15.736   5.409  1.00  0.00     0.210 HD
ENDBRANCH   7   8
BRANCH   7  10
HETATM   10  C   UNL     1      42.038 -16.336   5.551  1.00  0.00    -0.028 A 
HETATM   11  C   UNL     1      41.973 -16.296   4.151  1.00  0.00     0.012 A 
HETATM   12  C   UNL     1      42.755 -17.158   3.378  1.00  0.00     0.037 A 
HETATM   13  C   UNL     1      43.624 -18.066   3.983  1.00  0.00     0.068 A 
HETATM   14  C   UNL     1      43.691 -18.121   5.375  1.00  0.00     0.037 A 
HETATM   15  C   UNL     1      42.901 -17.265   6.151  1.00  0.00     0.012 A 
BRANCH  13  16
HETATM   16  O   UNL     1      44.343 -18.840   3.112  1.00  0.00    -0.356 OA
HETATM   17  C   UNL     1      43.613 -19.811   2.373  1.00  0.00     0.210 C 
ENDBRANCH  13  16
ENDBRANCH   7  10
ENDBRANCH   5   7
ENDBRANCH   1   5
BRANCH   2  18
HETATM   18  C   UNL     1      44.247 -11.739   6.773  1.00  0.00     0.126 A 
HETATM   19  N   UNL     1      43.734 -11.346   7.972  1.00  0.00    -0.224 NA
HETATM   20  C   UNL     1      44.567 -10.645   8.789  1.00  0.00     0.151 A 
HETATM   21  C   UNL     1      45.877 -10.318   8.437  1.00  0.00     0.052 A 
HETATM   22  C   UNL     1      46.365 -10.733   7.200  1.00  0.00     0.006 A 
HETATM   23  C   UNL     1      45.541 -11.462   6.350  1.00  0.00     0.037 A 
BRANCH  20  24
HETATM   24  N   UNL     1      44.075 -10.240  10.069  1.00  0.00    -0.227 N 
HETATM   25  N   UNL     1      43.722 -11.134  11.034  1.00  0.00    -0.179 NA
HETATM   26  C   UNL     1      43.309 -10.378  12.052  1.00  0.00     0.141 A 
HETATM   27  C   UNL     1      43.386  -9.005  11.773  1.00  0.00     0.040 A 
HETATM   28  C   UNL     1      43.882  -8.942  10.494  1.00  0.00     0.122 A 
ENDBRANCH  20  24
ENDBRANCH   2  18
TORSDOF 7
ENDMDL
MODEL 3
REMARK VINA RESULT:      -7.9      6.445      8.705
REMARK  7 active torsions:
REMARK  status: ('A' for Active; 'I' for Inactive)
REMARK    1  A    between atoms: C_2  and  N_3 
REMARK    2  A    between atoms: C_2  and  C_17 
REMARK       I    between atoms: N_3  and  C_4 
REMARK    3  A    between atoms: C_4  and  C_5 
REMARK    4  A    between atoms: C_7  and  N_8 
REMARK    5  A    between atoms: C_17  and  O_18 
REMARK    6  A    between atoms: C_17  and  C_19 
REMARK    7  A    between atoms: C_22  and  O_23 
ROOT
HETATM    1  N   UNL     1      40.808 -14.145   1.670  1.00  0.00    -0.349 N 
HETATM    2  C   UNL     1      40.126 -14.892   0.735  1.00  0.00     0.270 C 
HETATM    3  O   UNL     1      39.692 -16.019   0.942  1.00  0.00    -0.266 OA
HETATM    4  H   UNL     1      41.087 -13.212   1.379  1.00  0.00     0.163 HD
ENDROOT
BRANCH   1   5
HETATM    5  C   UNL     1      41.127 -14.598   3.023  1.00  0.00     0.114 C 
HETATM    6  C   UNL     1      40.487 -13.664   4.056  1.00  0.00     0.035 C 
BRANCH   5   7
HETATM    7  C   UNL     1      42.649 -14.800   3.292  1.00  0.00     0.173 C 
BRANCH   7   8
HETATM    8  O   UNL     1      43.024 -14.164   4.523  1.00  0.00    -0.389 OA
HETATM    9  H   UNL     1      43.899 -13.770   4.369  1.00  0.00     0.210 HD
ENDBRANCH   7   8
BRANCH   7  10
HETATM   10  C   UNL     1      43.032 -16.266   3.388  1.00  0.00    -0.028 A 
HETATM   11  C   UNL     1      43.554 -16.778   4.584  1.00  0.00     0.012 A 
HETATM   12  C   UNL     1      43.919 -18.123   4.683  1.00  0.00     0.037 A 
HETATM   13  C   UNL     1      43.761 -18.985   3.597  1.00  0.00     0.068 A 
HETATM   14  C   UNL     1      43.252 -18.485   2.399  1.00  0.00     0.037 A 
HETATM   15  C   UNL     1      42.894 -17.136   2.296  1.00  0.00     0.012 A 
BRANCH  13  16
HETATM   16  O   UNL     1      44.142 -20.278   3.831  1.00  0.00    -0.356 OA
HETATM   17  C   UNL     1      44.246 -20.675   5.192  1.00  0.00     0.210 C 
ENDBRANCH  13  16
ENDBRANCH   7  10
ENDBRANCH   5   7
ENDBRANCH   1   5
BRANCH   2  18
HETATM   18  C   UNL     1      39.926 -14.205  -0.582  1.00  0.00     0.126 A 
HETATM   19  N   UNL     1      40.427 -12.941  -0.685  1.00  0.00    -0.224 NA
HETATM   20  C   UNL     1      40.254 -12.314  -1.880  1.00  0.00     0.151 A 
HETATM   21  C   UNL     1      39.588 -12.904  -2.957  1.00  0.00     0.052 A 
HETATM   22  C   UNL     1      39.085 -14.195  -2.812  1.00  0.00     0.006 A 
HETATM   23  C   UNL     1      39.260 -14.864  -1.606  1.00  0.00     0.037 A 
BRANCH  20  24
HETATM   24  N   UNL     1      40.790 -10.999  -2.037  1.00  0.00    -0.227 N 
HETATM   25  N   UNL     1      41.494 -10.373  -1.054  1.00  0.00    -0.179 NA
HETATM   26  C   UNL     1      41.803  -9.183  -1.573  1.00  0.00     0.141 A 
HETATM   27  C   UNL     1      41.316  -9.018  -2.878  1.00  0.00     0.040 A 
HETATM   28  C   UNL     1      40.671 -10.199  -3.155  1.00  0.00     0.122 A 
ENDBRANCH  20  24
ENDBRANCH   2  18
TORSDOF 7
ENDMDL
MODEL 4
REMARK VINA RESULT:      -7.7      3.256      8.986
REMARK  7 active torsions:
REMARK  status: ('A' for Active; 'I' for Inactive)
REMARK    1  A    between atoms: C_2  and  N_3 
REMARK    2  A    between atoms: C_2  and  C_17 
REMARK       I    between atoms: N_3  and  C_4 
REMARK    3  A    between atoms: C_4  and  C_5 
REMARK    4  A    between atoms: C_7  and  N_8 
REMARK    5  A    between atoms: C_17  and  O_18 
REMARK    6  A    between atoms: C_17  and  C_19 
REMARK    7  A    between atoms: C_22  and  O_23 
ROOT
HETATM    1  N   UNL     1      41.862 -13.140   4.010  1.00  0.00    -0.349 N 
HETATM    2  C   UNL     1      42.423 -14.242   4.615  1.00  0.00     0.270 C 
HETATM    3  O   UNL     1      42.587 -14.351   5.824  1.00  0.00    -0.266 OA
HETATM    4  H   UNL     1      41.755 -13.191   3.000  1.00  0.00     0.163 HD
ENDROOT
BRANCH   1   5
HETATM    5  C   UNL     1      41.406 -11.945   4.718  1.00  0.00     0.114 C 
HETATM    6  C   UNL     1      40.045 -11.497   4.177  1.00  0.00     0.035 C 
BRANCH   5   7
HETATM    7  C   UNL     1      42.435 -10.774   4.732  1.00  0.00     0.173 C 
BRANCH   7   8
HETATM    8  O   UNL     1      41.753  -9.513   4.674  1.00  0.00    -0.389 OA
HETATM    9  H   UNL     1      40.851  -9.677   4.998  1.00  0.00     0.210 HD
ENDBRANCH   7   8
BRANCH   7  10
HETATM   10  C   UNL     1      43.305 -10.778   5.977  1.00  0.00    -0.028 A 
HETATM   11  C   UNL     1      42.868 -10.129   7.140  1.00  0.00     0.012 A 
HETATM   12  C   UNL     1      43.662 -10.118   8.289  1.00  0.00     0.037 A 
HETATM   13  C   UNL     1      44.899 -10.763   8.306  1.00  0.00     0.068 A 
HETATM   14  C   UNL     1      45.348 -11.403   7.152  1.00  0.00     0.037 A 
HETATM   15  C   UNL     1      44.558 -11.408   5.997  1.00  0.00     0.012 A 
BRANCH  13  16
HETATM   16  O   UNL     1      45.568 -10.689   9.497  1.00  0.00    -0.356 OA
HETATM   17  C   UNL     1      44.923  -9.979  10.547  1.00  0.00     0.210 C 
ENDBRANCH  13  16
ENDBRANCH   7  10
ENDBRANCH   5   7
ENDBRANCH   1   5
BRANCH   2  18
HETATM   18  C   UNL     1      42.811 -15.339   3.669  1.00  0.00     0.126 A 
HETATM   19  N   UNL     1      43.078 -16.552   4.230  1.00  0.00    -0.224 NA
HETATM   20  C   UNL     1      43.426 -17.553   3.375  1.00  0.00     0.151 A 
HETATM   21  C   UNL     1      43.526 -17.371   1.995  1.00  0.00     0.052 A 
HETATM   22  C   UNL     1      43.250 -16.115   1.459  1.00  0.00     0.006 A 
HETATM   23  C   UNL     1      42.879 -15.078   2.307  1.00  0.00     0.037 A 
BRANCH  20  24
HETATM   24  N   UNL     1      43.686 -18.847   3.921  1.00  0.00    -0.227 N 
HETATM   25  N   UNL     1      43.703 -19.974   3.157  1.00  0.00    -0.179 NA
HETATM   26  C   UNL     1      43.962 -20.958   4.021  1.00  0.00     0.141 A 
HETATM   27  C   UNL     1      44.115 -20.496   5.337  1.00  0.00     0.040 A 
HETATM   28  C   UNL     1      43.936 -19.137   5.248  1.00  0.00     0.122 A 
ENDBRANCH  20  24
ENDBRANCH   2  18
TORSDOF 7
ENDMDL
MODEL 5
REMARK VINA RESULT:      -7.5      2.299      3.660
REMARK  7 active torsions:
REMARK  status: ('A' for Active; 'I' for Inactive)
REMARK    1  A    between atoms: C_2  and  N_3 
REMARK    2  A    between atoms: C_2  and  C_17 
REMARK       I    between atoms: N_3  and  C_4 
REMARK    3  A    between atoms: C_4  and  C_5 
REMARK    4  A    between atoms: C_7  and  N_8 
REMARK    5  A    between atoms: C_17  and  O_18 
REMARK    6  A    between atoms: C_17  and  C_19 
REMARK    7  A    between atoms: C_22  and  O_23 
ROOT
HETATM    1  N   UNL     1      41.922 -11.671   5.281  1.00  0.00    -0.349 N 
HETATM    2  C   UNL     1      43.222 -11.324   4.988  1.00  0.00     0.270 C 
HETATM    3  O   UNL     1      43.654 -11.185   3.849  1.00  0.00    -0.266 OA
HETATM    4  H   UNL     1      41.686 -11.722   6.269  1.00  0.00     0.163 HD
ENDROOT
BRANCH   1   5
HETATM    5  C   UNL     1      40.889 -11.942   4.284  1.00  0.00     0.114 C 
HETATM    6  C   UNL     1      40.082 -10.670   4.000  1.00  0.00     0.035 C 
BRANCH   5   7
HETATM    7  C   UNL     1      39.963 -13.148   4.628  1.00  0.00     0.173 C 
BRANCH   7   8
HETATM    8  O   UNL     1      39.168 -13.504   3.487  1.00  0.00    -0.389 OA
HETATM    9  H   UNL     1      39.001 -14.459   3.559  1.00  0.00     0.210 HD
ENDBRANCH   7   8
BRANCH   7  10
HETATM   10  C   UNL     1      40.745 -14.378   5.054  1.00  0.00    -0.028 A 
HETATM   11  C   UNL     1      41.520 -15.076   4.118  1.00  0.00     0.012 A 
HETATM   12  C   UNL     1      42.237 -16.214   4.496  1.00  0.00     0.037 A 
HETATM   13  C   UNL     1      42.204 -16.671   5.814  1.00  0.00     0.068 A 
HETATM   14  C   UNL     1      41.428 -15.991   6.751  1.00  0.00     0.037 A 
HETATM   15  C   UNL     1      40.702 -14.856   6.372  1.00  0.00     0.012 A 
BRANCH  13  16
HETATM   16  O   UNL     1      42.961 -17.786   6.053  1.00  0.00    -0.356 OA
HETATM   17  C   UNL     1      43.990 -18.070   5.114  1.00  0.00     0.210 C 
ENDBRANCH  13  16
ENDBRANCH   7  10
ENDBRANCH   5   7
ENDBRANCH   1   5
BRANCH   2  18
HETATM   18  C   UNL     1      44.091 -11.100   6.189  1.00  0.00     0.126 A 
HETATM   19  N   UNL     1      43.446 -10.812   7.354  1.00  0.00    -0.224 NA
HETATM   20  C   UNL     1      44.229 -10.613   8.449  1.00  0.00     0.151 A 
HETATM   21  C   UNL     1      45.623 -10.679   8.407  1.00  0.00     0.052 A 
HETATM   22  C   UNL     1      46.247 -10.971   7.196  1.00  0.00     0.006 A 
HETATM   23  C   UNL     1      45.471 -11.192   6.064  1.00  0.00     0.037 A 
BRANCH  20  24
HETATM   24  N   UNL     1      43.589 -10.338   9.697  1.00  0.00    -0.227 N 
HETATM   25  N   UNL     1      43.978 -10.922  10.864  1.00  0.00    -0.179 NA
HETATM   26  C   UNL     1      43.142 -10.426  11.778  1.00  0.00     0.141 A 
HETATM   27  C   UNL     1      42.213  -9.528  11.232  1.00  0.00     0.040 A 
HETATM   28  C   UNL     1      42.522  -9.485   9.894  1.00  0.00     0.122 A 
ENDBRANCH  20  24
ENDBRANCH   2  18
TORSDOF 7
ENDMDL
MODEL 6
REMARK VINA RESULT:      -7.5      6.793      8.461
REMARK  7 active torsions:
REMARK  status: ('A' for Active; 'I' for Inactive)
REMARK    1  A    between atoms: C_2  and  N_3 
REMARK    2  A    between atoms: C_2  and  C_17 
REMARK       I    between atoms: N_3  and  C_4 
REMARK    3  A    between atoms: C_4  and  C_5 
REMARK    4  A    between atoms: C_7  and  N_8 
REMARK    5  A    between atoms: C_17  and  O_18 
REMARK    6  A    between atoms: C_17  and  C_19 
REMARK    7  A    between atoms: C_22  and  O_23 
ROOT
HETATM    1  N   UNL     1      41.254 -14.240   0.388  1.00  0.00    -0.349 N 
HETATM    2  C   UNL     1      41.124 -12.879   0.550  1.00  0.00     0.270 C 
HETATM    3  O   UNL     1      41.096 -12.318   1.639  1.00  0.00    -0.266 OA
HETATM    4  H   UNL     1      41.294 -14.573  -0.572  1.00  0.00     0.163 HD
ENDROOT
BRANCH   1   5
HETATM    5  C   UNL     1      41.353 -15.202   1.484  1.00  0.00     0.114 C 
HETATM    6  C   UNL     1      40.035 -15.249   2.266  1.00  0.00     0.035 C 
BRANCH   5   7
HETATM    7  C   UNL     1      42.575 -14.981   2.425  1.00  0.00     0.173 C 
BRANCH   7   8
HETATM    8  O   UNL     1      42.219 -14.103   3.503  1.00  0.00    -0.389 OA
HETATM    9  H   UNL     1      41.760 -13.347   3.098  1.00  0.00     0.210 HD
ENDBRANCH   7   8
BRANCH   7  10
HETATM   10  C   UNL     1      43.086 -16.278   3.029  1.00  0.00    -0.028 A 
HETATM   11  C   UNL     1      43.126 -17.445   2.254  1.00  0.00     0.012 A 
HETATM   12  C   UNL     1      43.586 -18.646   2.800  1.00  0.00     0.037 A 
HETATM   13  C   UNL     1      44.024 -18.704   4.124  1.00  0.00     0.068 A 
HETATM   14  C   UNL     1      43.980 -17.552   4.907  1.00  0.00     0.037 A 
HETATM   15  C   UNL     1      43.511 -16.350   4.364  1.00  0.00     0.012 A 
BRANCH  13  16
HETATM   16  O   UNL     1      44.462 -19.936   4.529  1.00  0.00    -0.356 OA
HETATM   17  C   UNL     1      43.891 -21.062   3.875  1.00  0.00     0.210 C 
ENDBRANCH  13  16
ENDBRANCH   7  10
ENDBRANCH   5   7
ENDBRANCH   1   5
BRANCH   2  18
HETATM   18  C   UNL     1      41.039 -12.106  -0.732  1.00  0.00     0.126 A 
HETATM   19  N   UNL     1      41.490 -10.821  -0.691  1.00  0.00    -0.224 NA
HETATM   20  C   UNL     1      41.420 -10.116  -1.854  1.00  0.00     0.151 A 
HETATM   21  C   UNL     1      40.904 -10.651  -3.036  1.00  0.00     0.052 A 
HETATM   22  C   UNL     1      40.449 -11.967  -3.037  1.00  0.00     0.006 A 
HETATM   23  C   UNL     1      40.520 -12.715  -1.867  1.00  0.00     0.037 A 
BRANCH  20  24
HETATM   24  N   UNL     1      41.909  -8.773  -1.860  1.00  0.00    -0.227 N 
HETATM   25  N   UNL     1      42.946  -8.368  -1.075  1.00  0.00    -0.179 NA
HETATM   26  C   UNL     1      43.088  -7.071  -1.356  1.00  0.00     0.141 A 
HETATM   27  C   UNL     1      42.163  -6.619  -2.310  1.00  0.00     0.040 A 
HETATM   28  C   UNL     1      41.419  -7.731  -2.620  1.00  0.00     0.122 A 
ENDBRANCH  20  24
ENDBRANCH   2  18
TORSDOF 7
ENDMDL
MODEL 7
REMARK VINA RESULT:      -7.3      1.803      2.612
REMARK  7 active torsions:
REMARK  status: ('A' for Active; 'I' for Inactive)
REMARK    1  A    between atoms: C_2  and  N_3 
REMARK    2  A    between atoms: C_2  and  C_17 
REMARK       I    between atoms: N_3  and  C_4 
REMARK    3  A    between atoms: C_4  and  C_5 
REMARK    4  A    between atoms: C_7  and  N_8 
REMARK    5  A    between atoms: C_17  and  O_18 
REMARK    6  A    between atoms: C_17  and  C_19 
REMARK    7  A    between atoms: C_22  and  O_23 
ROOT
HETATM    1  N   UNL     1      42.696 -13.317   4.953  1.00  0.00    -0.349 N 
HETATM    2  C   UNL     1      42.469 -12.053   5.451  1.00  0.00     0.270 C 
HETATM    3  O   UNL     1      41.456 -11.401   5.229  1.00  0.00    -0.266 OA
HETATM    4  H   UNL     1      43.565 -13.759   5.240  1.00  0.00     0.163 HD
ENDROOT
BRANCH   1   5
HETATM    5  C   UNL     1      41.778 -14.043   4.078  1.00  0.00     0.114 C 
HETATM    6  C   UNL     1      40.981 -15.072   4.887  1.00  0.00     0.035 C 
BRANCH   5   7
HETATM    7  C   UNL     1      42.453 -14.687   2.829  1.00  0.00     0.173 C 
BRANCH   7   8
HETATM    8  O   UNL     1      43.599 -13.919   2.433  1.00  0.00    -0.389 OA
HETATM    9  H   UNL     1      43.737 -13.256   3.131  1.00  0.00     0.210 HD
ENDBRANCH   7   8
BRANCH   7  10
HETATM   10  C   UNL     1      42.912 -16.112   3.086  1.00  0.00    -0.028 A 
HETATM   11  C   UNL     1      43.617 -16.421   4.257  1.00  0.00     0.012 A 
HETATM   12  C   UNL     1      44.052 -17.727   4.502  1.00  0.00     0.037 A 
HETATM   13  C   UNL     1      43.783 -18.748   3.590  1.00  0.00     0.068 A 
HETATM   14  C   UNL     1      43.091 -18.450   2.418  1.00  0.00     0.037 A 
HETATM   15  C   UNL     1      42.662 -17.142   2.167  1.00  0.00     0.012 A 
BRANCH  13  16
HETATM   16  O   UNL     1      44.251 -19.981   3.957  1.00  0.00    -0.356 OA
HETATM   17  C   UNL     1      44.124 -20.328   5.330  1.00  0.00     0.210 C 
ENDBRANCH  13  16
ENDBRANCH   7  10
ENDBRANCH   5   7
ENDBRANCH   1   5
BRANCH   2  18
HETATM   18  C   UNL     1      43.566 -11.524   6.325  1.00  0.00     0.126 A 
HETATM   19  N   UNL     1      43.173 -10.851   7.444  1.00  0.00    -0.224 NA
HETATM   20  C   UNL     1      44.165 -10.373   8.244  1.00  0.00     0.151 A 
HETATM   21  C   UNL     1      45.521 -10.534   7.951  1.00  0.00     0.052 A 
HETATM   22  C   UNL     1      45.883 -11.223   6.796  1.00  0.00     0.006 A 
HETATM   23  C   UNL     1      44.890 -11.734   5.967  1.00  0.00     0.037 A 
BRANCH  20  24
HETATM   24  N   UNL     1      43.795  -9.688   9.442  1.00  0.00    -0.227 N 
HETATM   25  N   UNL     1      42.744  -8.823   9.496  1.00  0.00    -0.179 NA
HETATM   26  C   UNL     1      42.736  -8.389  10.758  1.00  0.00     0.141 A 
HETATM   27  C   UNL     1      43.761  -8.954  11.532  1.00  0.00     0.040 A 
HETATM   28  C   UNL     1      44.427  -9.785  10.665  1.00  0.00     0.122 A 
ENDBRANCH  20  24
ENDBRANCH   2  18
TORSDOF 7
ENDMDL
MODEL 8
REMARK VINA RESULT:      -7.3      3.908      4.445
REMARK  7 active torsions:
REMARK  status: ('A' for Active; 'I' for Inactive)
REMARK    1  A    between atoms: C_2  and  N_3 
REMARK    2  A    between atoms: C_2  and  C_17 
REMARK       I    between atoms: N_3  and  C_4 
REMARK    3  A    between atoms: C_4  and  C_5 
REMARK    4  A    between atoms: C_7  and  N_8 
REMARK    5  A    between atoms: C_17  and  O_18 
REMARK    6  A    between atoms: C_17  and  C_19 
REMARK    7  A    between atoms: C_22  and  O_23 
ROOT
HETATM    1  N   UNL     1      41.957 -12.318   5.649  1.00  0.00    -0.349 N 
HETATM    2  C   UNL     1      42.981 -11.484   5.260  1.00  0.00     0.270 C 
HETATM    3  O   UNL     1      43.084 -11.000   4.139  1.00  0.00    -0.266 OA
HETATM    4  H   UNL     1      41.975 -12.625   6.618  1.00  0.00     0.163 HD
ENDROOT
BRANCH   1   5
HETATM    5  C   UNL     1      40.868 -12.758   4.779  1.00  0.00     0.114 C 
HETATM    6  C   UNL     1      39.524 -12.605   5.498  1.00  0.00     0.035 C 
BRANCH   5   7
HETATM    7  C   UNL     1      41.050 -14.192   4.196  1.00  0.00     0.173 C 
BRANCH   7   8
HETATM    8  O   UNL     1      40.252 -15.132   4.931  1.00  0.00    -0.389 OA
HETATM    9  H   UNL     1      40.239 -15.949   4.404  1.00  0.00     0.210 HD
ENDBRANCH   7   8
BRANCH   7  10
HETATM   10  C   UNL     1      40.648 -14.281   2.734  1.00  0.00    -0.028 A 
HETATM   11  C   UNL     1      40.257 -15.511   2.187  1.00  0.00     0.012 A 
HETATM   12  C   UNL     1      39.893 -15.607   0.842  1.00  0.00     0.037 A 
HETATM   13  C   UNL     1      39.901 -14.480   0.020  1.00  0.00     0.068 A 
HETATM   14  C   UNL     1      40.297 -13.253   0.551  1.00  0.00     0.037 A 
HETATM   15  C   UNL     1      40.671 -13.156   1.896  1.00  0.00     0.012 A 
BRANCH  13  16
HETATM   16  O   UNL     1      39.509 -14.709  -1.271  1.00  0.00    -0.356 OA
HETATM   17  C   UNL     1      40.156 -13.941  -2.279  1.00  0.00     0.210 C 
ENDBRANCH  13  16
ENDBRANCH   7  10
ENDBRANCH   5   7
ENDBRANCH   1   5
BRANCH   2  18
HETATM   18  C   UNL     1      43.979 -11.182   6.338  1.00  0.00     0.126 A 
HETATM   19  N   UNL     1      43.468 -10.859   7.559  1.00  0.00    -0.224 NA
HETATM   20  C   UNL     1      44.369 -10.589   8.543  1.00  0.00     0.151 A 
HETATM   21  C   UNL     1      45.749 -10.619   8.336  1.00  0.00     0.052 A 
HETATM   22  C   UNL     1      46.234 -10.948   7.073  1.00  0.00     0.006 A 
HETATM   23  C   UNL     1      45.336 -11.242   6.052  1.00  0.00     0.037 A 
BRANCH  20  24
HETATM   24  N   UNL     1      43.873 -10.274   9.845  1.00  0.00    -0.227 N 
HETATM   25  N   UNL     1      43.897 -11.168  10.873  1.00  0.00    -0.179 NA
HETATM   26  C   UNL     1      43.344 -10.512  11.896  1.00  0.00     0.141 A 
HETATM   27  C   UNL     1      42.958  -9.206  11.557  1.00  0.00     0.040 A 
HETATM   28  C   UNL     1      43.310  -9.076  10.236  1.00  0.00     0.122 A 
ENDBRANCH  20  24
ENDBRANCH   2  18
TORSDOF 7
ENDMDL
MODEL 9
REMARK VINA RESULT:      -7.2      2.697      3.704
REMARK  7 active torsions:
REMARK  status: ('A' for Active; 'I' for Inactive)
REMARK    1  A    between atoms: C_2  and  N_3 
REMARK    2  A    between atoms: C_2  and  C_17 
REMARK       I    between atoms: N_3  and  C_4 
REMARK    3  A    between atoms: C_4  and  C_5 
REMARK    4  A    between atoms: C_7  and  N_8 
REMARK    5  A    between atoms: C_17  and  O_18 
REMARK    6  A    between atoms: C_17  and  C_19 
REMARK    7  A    between atoms: C_22  and  O_23 
ROOT
HETATM    1  N   UNL     1      41.990 -14.224   3.867  1.00  0.00    -0.349 N 
HETATM    2  C   UNL     1      42.136 -12.856   3.926  1.00  0.00     0.270 C 
HETATM    3  O   UNL     1      41.787 -12.090   3.035  1.00  0.00    -0.266 OA
HETATM    4  H   UNL     1      42.293 -14.740   4.688  1.00  0.00     0.163 HD
ENDROOT
BRANCH   1   5
HETATM    5  C   UNL     1      41.421 -14.951   2.734  1.00  0.00     0.114 C 
HETATM    6  C   UNL     1      40.283 -15.861   3.208  1.00  0.00     0.035 C 
BRANCH   5   7
HETATM    7  C   UNL     1      42.466 -15.732   1.881  1.00  0.00     0.173 C 
BRANCH   7   8
HETATM    8  O   UNL     1      43.549 -14.866   1.508  1.00  0.00    -0.389 OA
HETATM    9  H   UNL     1      44.255 -15.017   2.160  1.00  0.00     0.210 HD
ENDBRANCH   7   8
BRANCH   7  10
HETATM   10  C   UNL     1      43.053 -16.920   2.623  1.00  0.00    -0.028 A 
HETATM   11  C   UNL     1      43.625 -16.742   3.890  1.00  0.00     0.012 A 
HETATM   12  C   UNL     1      44.176 -17.826   4.580  1.00  0.00     0.037 A 
HETATM   13  C   UNL     1      44.156 -19.106   4.026  1.00  0.00     0.068 A 
HETATM   14  C   UNL     1      43.597 -19.293   2.762  1.00  0.00     0.037 A 
HETATM   15  C   UNL     1      43.054 -18.207   2.066  1.00  0.00     0.012 A 
BRANCH  13  16
HETATM   16  O   UNL     1      44.714 -20.079   4.810  1.00  0.00    -0.356 OA
HETATM   17  C   UNL     1      43.815 -20.879   5.568  1.00  0.00     0.210 C 
ENDBRANCH  13  16
ENDBRANCH   7  10
ENDBRANCH   5   7
ENDBRANCH   1   5
BRANCH   2  18
HETATM   18  C   UNL     1      42.750 -12.351   5.197  1.00  0.00     0.126 A 
HETATM   19  N   UNL     1      42.458 -11.064   5.537  1.00  0.00    -0.224 NA
HETATM   20  C   UNL     1      43.009 -10.602   6.693  1.00  0.00     0.151 A 
HETATM   21  C   UNL     1      43.844 -11.378   7.499  1.00  0.00     0.052 A 
HETATM   22  C   UNL     1      44.123 -12.688   7.116  1.00  0.00     0.006 A 
HETATM   23  C   UNL     1      43.563 -13.190   5.946  1.00  0.00     0.037 A 
BRANCH  20  24
HETATM   24  N   UNL     1      42.704  -9.266   7.100  1.00  0.00    -0.227 N 
HETATM   25  N   UNL     1      41.751  -8.513   6.483  1.00  0.00    -0.179 NA
HETATM   26  C   UNL     1      41.778  -7.347   7.134  1.00  0.00     0.141 A 
HETATM   27  C   UNL     1      42.729  -7.324   8.165  1.00  0.00     0.040 A 
HETATM   28  C   UNL     1      43.310  -8.568   8.125  1.00  0.00     0.122 A 
ENDBRANCH  20  24
ENDBRANCH   2  18
TORSDOF 7
ENDMDL
MODEL 10
REMARK VINA RESULT:      -7.2      3.279      9.927
REMARK  7 active torsions:
REMARK  status: ('A' for Active; 'I' for Inactive)
REMARK    1  A    between atoms: C_2  and  N_3 
REMARK    2  A    between atoms: C_2  and  C_17 
REMARK       I    between atoms: N_3  and  C_4 
REMARK    3  A    between atoms: C_4  and  C_5 
REMARK    4  A    between atoms: C_7  and  N_8 
REMARK    5  A    between atoms: C_17  and  O_18 
REMARK    6  A    between atoms: C_17  and  C_19 
REMARK    7  A    between atoms: C_22  and  O_23 
ROOT
HETATM    1  N   UNL     1      42.962 -10.476   8.090  1.00  0.00    -0.349 N 
HETATM    2  C   UNL     1      43.783 -11.429   7.531  1.00  0.00     0.270 C 
HETATM    3  O   UNL     1      44.915 -11.677   7.929  1.00  0.00    -0.266 OA
HETATM    4  H   UNL     1      42.034 -10.392   7.683  1.00  0.00     0.163 HD
ENDROOT
BRANCH   1   5
HETATM    5  C   UNL     1      43.330  -9.617   9.214  1.00  0.00     0.114 C 
HETATM    6  C   UNL     1      44.502  -8.710   8.823  1.00  0.00     0.035 C 
BRANCH   5   7
HETATM    7  C   UNL     1      43.611 -10.382  10.543  1.00  0.00     0.173 C 
BRANCH   7   8
HETATM    8  O   UNL     1      45.025 -10.501  10.758  1.00  0.00    -0.389 OA
HETATM    9  H   UNL     1      45.448 -10.292   9.908  1.00  0.00     0.210 HD
ENDBRANCH   7   8
BRANCH   7  10
HETATM   10  C   UNL     1      43.012  -9.685  11.752  1.00  0.00    -0.028 A 
HETATM   11  C   UNL     1      43.595  -8.510  12.245  1.00  0.00     0.012 A 
HETATM   12  C   UNL     1      43.059  -7.864  13.362  1.00  0.00     0.037 A 
HETATM   13  C   UNL     1      41.927  -8.370  14.001  1.00  0.00     0.068 A 
HETATM   14  C   UNL     1      41.344  -9.543  13.526  1.00  0.00     0.037 A 
HETATM   15  C   UNL     1      41.885 -10.197  12.413  1.00  0.00     0.012 A 
BRANCH  13  16
HETATM   16  O   UNL     1      41.496  -7.634  15.072  1.00  0.00    -0.356 OA
HETATM   17  C   UNL     1      42.460  -6.797  15.699  1.00  0.00     0.210 C 
ENDBRANCH  13  16
ENDBRANCH   7  10
ENDBRANCH   5   7
ENDBRANCH   1   5
BRANCH   2  18
HETATM   18  C   UNL     1      43.173 -12.178   6.385  1.00  0.00     0.126 A 
HETATM   19  N   UNL     1      43.560 -13.477   6.239  1.00  0.00    -0.224 NA
HETATM   20  C   UNL     1      43.006 -14.164   5.203  1.00  0.00     0.151 A 
HETATM   21  C   UNL     1      42.098 -13.589   4.311  1.00  0.00     0.052 A 
HETATM   22  C   UNL     1      41.730 -12.258   4.489  1.00  0.00     0.006 A 
HETATM   23  C   UNL     1      42.271 -11.536   5.547  1.00  0.00     0.037 A 
BRANCH  20  24
HETATM   24  N   UNL     1      43.364 -15.537   5.034  1.00  0.00    -0.227 N 
HETATM   25  N   UNL     1      43.123 -16.220   3.881  1.00  0.00    -0.179 NA
HETATM   26  C   UNL     1      43.581 -17.450   4.121  1.00  0.00     0.141 A 
HETATM   27  C   UNL     1      44.118 -17.585   5.410  1.00  0.00     0.040 A 
HETATM   28  C   UNL     1      43.969 -16.343   5.977  1.00  0.00     0.122 A 
ENDBRANCH  20  24
ENDBRANCH   2  18
TORSDOF 7
ENDMDL
