MODEL 1
REMARK VINA RESULT:      -7.9      0.000      0.000
REMARK  10 active torsions:
REMARK  status: ('A' for Active; 'I' for Inactive)
REMARK    1  A    between atoms: C_2  and  O_3 
REMARK    2  A    between atoms: O_3  and  C_4 
REMARK    3  A    between atoms: C_7  and  C_8 
REMARK    4  A    between atoms: C_8  and  C_9 
REMARK    5  A    between atoms: C_10  and  C_11 
REMARK    6  A    between atoms: C_14  and  N_15 
REMARK    7  A    between atoms: N_20  and  C_21 
REMARK    8  A    between atoms: C_21  and  C_22 
REMARK    9  A    between atoms: C_22  and  N_23 
REMARK   10  A    between atoms: C_34  and  O_35 
ROOT
HETATM    1  C   UNL     1      41.003 -11.797   2.643  1.00  0.00     0.059 C 
HETATM    2  C   UNL     1      40.277 -11.977   3.939  1.00  0.00     0.161 C 
HETATM    3  N   UNL     1      40.347 -10.619   4.478  1.00  0.00    -0.332 N 
HETATM    4  C   UNL     1      41.273  -9.861   3.784  1.00  0.00     0.278 C 
HETATM    5  O   UNL     1      41.698  -8.778   4.146  1.00  0.00    -0.265 OA
HETATM    6  C   UNL     1      41.606 -10.601   2.551  1.00  0.00     0.146 C 
ENDROOT
BRANCH   1   7
HETATM    7  C   UNL     1      41.163 -12.793   1.568  1.00  0.00     0.193 C 
HETATM    8  O   UNL     1      40.997 -12.457   0.398  1.00  0.00    -0.287 OA
BRANCH   7   9
HETATM    9  C   UNL     1      41.567 -14.173   1.894  1.00  0.00     0.015 A 
HETATM   10  C   UNL     1      42.905 -14.517   2.112  1.00  0.00     0.018 A 
HETATM   11  C   UNL     1      43.248 -15.843   2.406  1.00  0.00     0.038 A 
HETATM   12  C   UNL     1      42.256 -16.819   2.504  1.00  0.00     0.069 A 
HETATM   13  C   UNL     1      40.919 -16.455   2.325  1.00  0.00     0.038 A 
HETATM   14  C   UNL     1      40.568 -15.138   2.024  1.00  0.00     0.018 A 
BRANCH  12  15
HETATM   15  O   UNL     1      42.437 -18.139   2.797  1.00  0.00    -0.347 OA
BRANCH  15  16
HETATM   16  C   UNL     1      43.727 -18.742   2.646  1.00  0.00     0.120 C 
HETATM   17  C   UNL     1      43.574 -20.127   2.024  1.00  0.00     0.040 C 
HETATM   18  C   UNL     1      44.326 -18.859   4.045  1.00  0.00     0.040 C 
ENDBRANCH  15  16
ENDBRANCH  12  15
ENDBRANCH   7   9
ENDBRANCH   1   7
BRANCH   2  19
HETATM   19  C   UNL     1      40.930 -12.998   4.858  1.00  0.00    -0.030 A 
HETATM   20  C   UNL     1      40.184 -14.020   5.481  1.00  0.00     0.012 A 
HETATM   21  C   UNL     1      40.796 -14.930   6.347  1.00  0.00     0.037 A 
HETATM   22  C   UNL     1      42.166 -14.823   6.607  1.00  0.00     0.102 A 
HETATM   23  C   UNL     1      42.924 -13.812   6.007  1.00  0.00     0.037 A 
HETATM   24  C   UNL     1      42.306 -12.909   5.134  1.00  0.00     0.012 A 
BRANCH  22  25
HETATM   25  N   UNL     1      42.812 -15.787   7.505  1.00  0.00    -0.116 N 
HETATM   26  O   UNL     1      42.954 -16.945   7.085  1.00  0.00    -0.532 OA
HETATM   27  O   UNL     1      43.199 -15.377   8.605  1.00  0.00    -0.532 OA
ENDBRANCH  22  25
ENDBRANCH   2  19
BRANCH   6  28
HETATM   28  O   UNL     1      42.397 -10.105   1.557  1.00  0.00    -0.355 OA
HETATM   29  H   UNL     1      42.506  -9.137   1.718  1.00  0.00     0.218 HD
ENDBRANCH   6  28
BRANCH   3  30
HETATM   30  C   UNL     1      39.798 -10.227   5.772  1.00  0.00     0.155 C 
BRANCH  30  31
HETATM   31  C   UNL     1      40.767 -10.526   6.951  1.00  0.00     0.254 C 
BRANCH  31  32
HETATM   32  N   UNL     1      41.771  -9.407   7.262  1.00  0.00    -0.066 N 
HETATM   33  H   UNL     1      41.640  -8.725   6.496  1.00  0.00     0.280 HD
HETATM   34  C   UNL     1      43.223  -9.903   7.139  1.00  0.00     0.262 C 
HETATM   35  C   UNL     1      43.696 -10.661   8.407  1.00  0.00     0.260 C 
HETATM   36  N   UNL     1      43.509  -9.819   9.640  1.00  0.00    -0.072 N 
HETATM   37  H   UNL     1      44.181  -9.035   9.670  1.00  0.00     0.277 HD
HETATM   38  H   UNL     1      43.755 -10.391  10.468  1.00  0.00     0.277 HD
HETATM   39  C   UNL     1      42.097  -9.330   9.831  1.00  0.00     0.260 C 
HETATM   40  C   UNL     1      41.558  -8.620   8.565  1.00  0.00     0.262 C 
ENDBRANCH  31  32
ENDBRANCH  30  31
ENDBRANCH   3  30
TORSDOF 10
ENDMDL
MODEL 2
REMARK VINA RESULT:      -7.9      1.716      2.563
REMARK  10 active torsions:
REMARK  status: ('A' for Active; 'I' for Inactive)
REMARK    1  A    between atoms: C_2  and  O_3 
REMARK    2  A    between atoms: O_3  and  C_4 
REMARK    3  A    between atoms: C_7  and  C_8 
REMARK    4  A    between atoms: C_8  and  C_9 
REMARK    5  A    between atoms: C_10  and  C_11 
REMARK    6  A    between atoms: C_14  and  N_15 
REMARK    7  A    between atoms: N_20  and  C_21 
REMARK    8  A    between atoms: C_21  and  C_22 
REMARK    9  A    between atoms: C_22  and  N_23 
REMARK   10  A    between atoms: C_34  and  O_35 
ROOT
HETATM    1  C   UNL     1      40.289 -13.254   1.231  1.00  0.00     0.059 C 
HETATM    2  C   UNL     1      39.805 -12.620   2.498  1.00  0.00     0.161 C 
HETATM    3  N   UNL     1      39.800 -11.210   2.109  1.00  0.00    -0.332 N 
HETATM    4  C   UNL     1      40.509 -11.021   0.936  1.00  0.00     0.278 C 
HETATM    5  O   UNL     1      40.855  -9.937   0.500  1.00  0.00    -0.265 OA
HETATM    6  C   UNL     1      40.725 -12.353   0.337  1.00  0.00     0.146 C 
ENDROOT
BRANCH   1   7
HETATM    7  C   UNL     1      40.391 -14.696   0.942  1.00  0.00     0.193 C 
HETATM    8  O   UNL     1      39.725 -15.181   0.031  1.00  0.00    -0.287 OA
BRANCH   7   9
HETATM    9  C   UNL     1      41.324 -15.540   1.710  1.00  0.00     0.015 A 
HETATM   10  C   UNL     1      42.671 -15.662   1.353  1.00  0.00     0.018 A 
HETATM   11  C   UNL     1      43.521 -16.486   2.103  1.00  0.00     0.038 A 
HETATM   12  C   UNL     1      43.035 -17.167   3.219  1.00  0.00     0.069 A 
HETATM   13  C   UNL     1      41.697 -17.002   3.590  1.00  0.00     0.038 A 
HETATM   14  C   UNL     1      40.840 -16.192   2.845  1.00  0.00     0.018 A 
BRANCH  12  15
HETATM   15  O   UNL     1      43.744 -17.986   4.047  1.00  0.00    -0.347 OA
BRANCH  15  16
HETATM   16  C   UNL     1      44.262 -19.230   3.564  1.00  0.00     0.120 C 
HETATM   17  C   UNL     1      43.398 -19.729   2.409  1.00  0.00     0.040 C 
HETATM   18  C   UNL     1      44.203 -20.216   4.728  1.00  0.00     0.040 C 
ENDBRANCH  15  16
ENDBRANCH  12  15
ENDBRANCH   7   9
ENDBRANCH   1   7
BRANCH   2  19
HETATM   19  C   UNL     1      40.712 -12.889   3.689  1.00  0.00    -0.030 A 
HETATM   20  C   UNL     1      42.112 -12.752   3.602  1.00  0.00     0.012 A 
HETATM   21  C   UNL     1      42.932 -13.034   4.698  1.00  0.00     0.037 A 
HETATM   22  C   UNL     1      42.358 -13.466   5.898  1.00  0.00     0.102 A 
HETATM   23  C   UNL     1      40.970 -13.617   6.005  1.00  0.00     0.037 A 
HETATM   24  C   UNL     1      40.155 -13.325   4.905  1.00  0.00     0.012 A 
BRANCH  22  25
HETATM   25  N   UNL     1      43.216 -13.748   7.054  1.00  0.00    -0.116 N 
HETATM   26  O   UNL     1      43.968 -12.840   7.436  1.00  0.00    -0.532 OA
HETATM   27  O   UNL     1      43.111 -14.858   7.589  1.00  0.00    -0.532 OA
ENDBRANCH  22  25
ENDBRANCH   2  19
BRANCH   6  28
HETATM   28  O   UNL     1      41.283 -12.552  -0.891  1.00  0.00    -0.355 OA
HETATM   29  H   UNL     1      41.981 -11.865  -1.016  1.00  0.00     0.218 HD
ENDBRANCH   6  28
BRANCH   3  30
HETATM   30  C   UNL     1      39.423 -10.121   3.003  1.00  0.00     0.155 C 
BRANCH  30  31
HETATM   31  C   UNL     1      40.633  -9.544   3.792  1.00  0.00     0.254 C 
BRANCH  31  32
HETATM   32  N   UNL     1      40.264  -8.771   5.065  1.00  0.00    -0.066 N 
HETATM   33  H   UNL     1      40.105  -7.802   4.740  1.00  0.00     0.280 HD
HETATM   34  C   UNL     1      41.451  -8.695   6.043  1.00  0.00     0.262 C 
HETATM   35  C   UNL     1      41.602  -9.988   6.887  1.00  0.00     0.260 C 
HETATM   36  N   UNL     1      40.322 -10.314   7.607  1.00  0.00    -0.072 N 
HETATM   37  H   UNL     1      40.139  -9.649   8.376  1.00  0.00     0.277 HD
HETATM   38  H   UNL     1      40.438 -11.225   8.087  1.00  0.00     0.277 HD
HETATM   39  C   UNL     1      39.128 -10.432   6.697  1.00  0.00     0.260 C 
HETATM   40  C   UNL     1      38.972  -9.189   5.787  1.00  0.00     0.262 C 
ENDBRANCH  31  32
ENDBRANCH  30  31
ENDBRANCH   3  30
TORSDOF 10
ENDMDL
MODEL 3
REMARK VINA RESULT:      -7.9      1.029      1.886
REMARK  10 active torsions:
REMARK  status: ('A' for Active; 'I' for Inactive)
REMARK    1  A    between atoms: C_2  and  O_3 
REMARK    2  A    between atoms: O_3  and  C_4 
REMARK    3  A    between atoms: C_7  and  C_8 
REMARK    4  A    between atoms: C_8  and  C_9 
REMARK    5  A    between atoms: C_10  and  C_11 
REMARK    6  A    between atoms: C_14  and  N_15 
REMARK    7  A    between atoms: N_20  and  C_21 
REMARK    8  A    between atoms: C_21  and  C_22 
REMARK    9  A    between atoms: C_22  and  N_23 
REMARK   10  A    between atoms: C_34  and  O_35 
ROOT
HETATM    1  C   UNL     1      41.001 -12.119   3.172  1.00  0.00     0.059 C 
HETATM    2  C   UNL     1      40.566 -12.265   4.596  1.00  0.00     0.161 C 
HETATM    3  N   UNL     1      40.934 -10.952   5.126  1.00  0.00    -0.332 N 
HETATM    4  C   UNL     1      41.773 -10.286   4.250  1.00  0.00     0.278 C 
HETATM    5  O   UNL     1      42.408  -9.281   4.524  1.00  0.00    -0.265 OA
HETATM    6  C   UNL     1      41.721 -11.006   2.963  1.00  0.00     0.146 C 
ENDROOT
BRANCH   1   7
HETATM    7  C   UNL     1      40.784 -13.079   2.074  1.00  0.00     0.193 C 
HETATM    8  O   UNL     1      40.056 -12.772   1.134  1.00  0.00    -0.287 OA
BRANCH   7   9
HETATM    9  C   UNL     1      41.477 -14.380   2.082  1.00  0.00     0.015 A 
HETATM   10  C   UNL     1      40.808 -15.569   2.390  1.00  0.00     0.018 A 
HETATM   11  C   UNL     1      41.508 -16.783   2.400  1.00  0.00     0.038 A 
HETATM   12  C   UNL     1      42.865 -16.814   2.080  1.00  0.00     0.069 A 
HETATM   13  C   UNL     1      43.512 -15.624   1.732  1.00  0.00     0.038 A 
HETATM   14  C   UNL     1      42.826 -14.409   1.728  1.00  0.00     0.018 A 
BRANCH  12  15
HETATM   15  O   UNL     1      43.668 -17.916   2.033  1.00  0.00    -0.347 OA
BRANCH  15  16
HETATM   16  C   UNL     1      43.401 -19.040   2.878  1.00  0.00     0.120 C 
HETATM   17  C   UNL     1      44.409 -19.069   4.024  1.00  0.00     0.040 C 
HETATM   18  C   UNL     1      43.553 -20.289   2.014  1.00  0.00     0.040 C 
ENDBRANCH  15  16
ENDBRANCH  12  15
ENDBRANCH   7   9
ENDBRANCH   1   7
BRANCH   2  19
HETATM   19  C   UNL     1      41.267 -13.400   5.327  1.00  0.00    -0.030 A 
HETATM   20  C   UNL     1      42.672 -13.506   5.359  1.00  0.00     0.012 A 
HETATM   21  C   UNL     1      43.298 -14.574   6.008  1.00  0.00     0.037 A 
HETATM   22  C   UNL     1      42.521 -15.556   6.629  1.00  0.00     0.102 A 
HETATM   23  C   UNL     1      41.124 -15.475   6.603  1.00  0.00     0.037 A 
HETATM   24  C   UNL     1      40.505 -14.399   5.958  1.00  0.00     0.012 A 
BRANCH  22  25
HETATM   25  N   UNL     1      43.177 -16.670   7.324  1.00  0.00    -0.116 N 
HETATM   26  O   UNL     1      43.842 -16.394   8.333  1.00  0.00    -0.532 OA
HETATM   27  O   UNL     1      42.999 -17.809   6.878  1.00  0.00    -0.532 OA
ENDBRANCH  22  25
ENDBRANCH   2  19
BRANCH   6  28
HETATM   28  O   UNL     1      42.329 -10.569   1.824  1.00  0.00    -0.355 OA
HETATM   29  H   UNL     1      43.053  -9.953   2.089  1.00  0.00     0.218 HD
ENDBRANCH   6  28
BRANCH   3  30
HETATM   30  C   UNL     1      40.744 -10.552   6.516  1.00  0.00     0.155 C 
BRANCH  30  31
HETATM   31  C   UNL     1      42.088 -10.383   7.281  1.00  0.00     0.254 C 
BRANCH  31  32
HETATM   32  N   UNL     1      41.977  -9.655   8.627  1.00  0.00    -0.066 N 
HETATM   33  H   UNL     1      41.250 -10.178   9.143  1.00  0.00     0.280 HD
HETATM   34  C   UNL     1      41.424  -8.229   8.453  1.00  0.00     0.262 C 
HETATM   35  C   UNL     1      42.519  -7.221   8.013  1.00  0.00     0.260 C 
HETATM   36  N   UNL     1      43.684  -7.242   8.965  1.00  0.00    -0.072 N 
HETATM   37  H   UNL     1      43.439  -6.816   9.874  1.00  0.00     0.277 HD
HETATM   38  H   UNL     1      44.425  -6.623   8.590  1.00  0.00     0.277 HD
HETATM   39  C   UNL     1      44.289  -8.609   9.152  1.00  0.00     0.260 C 
HETATM   40  C   UNL     1      43.221  -9.664   9.531  1.00  0.00     0.262 C 
ENDBRANCH  31  32
ENDBRANCH  30  31
ENDBRANCH   3  30
TORSDOF 10
ENDMDL
MODEL 4
REMARK VINA RESULT:      -7.8      2.307      3.204
REMARK  10 active torsions:
REMARK  status: ('A' for Active; 'I' for Inactive)
REMARK    1  A    between atoms: C_2  and  O_3 
REMARK    2  A    between atoms: O_3  and  C_4 
REMARK    3  A    between atoms: C_7  and  C_8 
REMARK    4  A    between atoms: C_8  and  C_9 
REMARK    5  A    between atoms: C_10  and  C_11 
REMARK    6  A    between atoms: C_14  and  N_15 
REMARK    7  A    between atoms: N_20  and  C_21 
REMARK    8  A    between atoms: C_21  and  C_22 
REMARK    9  A    between atoms: C_22  and  N_23 
REMARK   10  A    between atoms: C_34  and  O_35 
ROOT
HETATM    1  C   UNL     1      40.502 -12.918   0.457  1.00  0.00     0.059 C 
HETATM    2  C   UNL     1      40.219 -12.040   1.636  1.00  0.00     0.161 C 
HETATM    3  N   UNL     1      40.355 -10.718   1.025  1.00  0.00    -0.332 N 
HETATM    4  C   UNL     1      40.971 -10.808  -0.211  1.00  0.00     0.278 C 
HETATM    5  O   UNL     1      41.409  -9.860  -0.840  1.00  0.00    -0.265 OA
HETATM    6  C   UNL     1      40.964 -12.231  -0.599  1.00  0.00     0.146 C 
ENDROOT
BRANCH   1   7
HETATM    7  C   UNL     1      40.397 -14.388   0.398  1.00  0.00     0.193 C 
HETATM    8  O   UNL     1      39.649 -14.911  -0.423  1.00  0.00    -0.287 OA
BRANCH   7   9
HETATM    9  C   UNL     1      41.223 -15.224   1.289  1.00  0.00     0.015 A 
HETATM   10  C   UNL     1      42.608 -15.330   1.124  1.00  0.00     0.018 A 
HETATM   11  C   UNL     1      43.354 -16.147   1.984  1.00  0.00     0.038 A 
HETATM   12  C   UNL     1      42.724 -16.837   3.019  1.00  0.00     0.069 A 
HETATM   13  C   UNL     1      41.346 -16.689   3.199  1.00  0.00     0.038 A 
HETATM   14  C   UNL     1      40.592 -15.885   2.343  1.00  0.00     0.018 A 
BRANCH  12  15
HETATM   15  O   UNL     1      43.319 -17.652   3.937  1.00  0.00    -0.347 OA
BRANCH  15  16
HETATM   16  C   UNL     1      44.125 -18.755   3.510  1.00  0.00     0.120 C 
HETATM   17  C   UNL     1      43.396 -19.526   2.414  1.00  0.00     0.040 C 
HETATM   18  C   UNL     1      44.336 -19.648   4.730  1.00  0.00     0.040 C 
ENDBRANCH  15  16
ENDBRANCH  12  15
ENDBRANCH   7   9
ENDBRANCH   1   7
BRANCH   2  19
HETATM   19  C   UNL     1      41.191 -12.248   2.788  1.00  0.00    -0.030 A 
HETATM   20  C   UNL     1      40.755 -12.680   4.057  1.00  0.00     0.012 A 
HETATM   21  C   UNL     1      41.658 -12.834   5.113  1.00  0.00     0.037 A 
HETATM   22  C   UNL     1      43.012 -12.549   4.912  1.00  0.00     0.102 A 
HETATM   23  C   UNL     1      43.465 -12.109   3.663  1.00  0.00     0.037 A 
HETATM   24  C   UNL     1      42.557 -11.965   2.608  1.00  0.00     0.012 A 
BRANCH  22  25
HETATM   25  N   UNL     1      43.963 -12.724   6.015  1.00  0.00    -0.116 N 
HETATM   26  O   UNL     1      44.836 -11.855   6.153  1.00  0.00    -0.532 OA
HETATM   27  O   UNL     1      43.814 -13.706   6.751  1.00  0.00    -0.532 OA
ENDBRANCH  22  25
ENDBRANCH   2  19
BRANCH   6  28
HETATM   28  O   UNL     1      41.378 -12.689  -1.815  1.00  0.00    -0.355 OA
HETATM   29  H   UNL     1      40.585 -12.745  -2.400  1.00  0.00     0.218 HD
ENDBRANCH   6  28
BRANCH   3  30
HETATM   30  C   UNL     1      40.200  -9.464   1.755  1.00  0.00     0.155 C 
BRANCH  30  31
HETATM   31  C   UNL     1      39.029  -9.505   2.778  1.00  0.00     0.254 C 
BRANCH  31  32
HETATM   32  N   UNL     1      39.149  -8.505   3.935  1.00  0.00    -0.066 N 
HETATM   33  H   UNL     1      38.660  -7.660   3.596  1.00  0.00     0.280 HD
HETATM   34  C   UNL     1      40.611  -8.079   4.164  1.00  0.00     0.262 C 
HETATM   35  C   UNL     1      41.403  -9.120   4.999  1.00  0.00     0.260 C 
HETATM   36  N   UNL     1      40.708  -9.407   6.302  1.00  0.00    -0.072 N 
HETATM   37  H   UNL     1      40.773  -8.607   6.952  1.00  0.00     0.277 HD
HETATM   38  H   UNL     1      41.221 -10.165   6.787  1.00  0.00     0.277 HD
HETATM   39  C   UNL     1      39.281  -9.860   6.140  1.00  0.00     0.260 C 
HETATM   40  C   UNL     1      38.464  -8.882   5.259  1.00  0.00     0.262 C 
ENDBRANCH  31  32
ENDBRANCH  30  31
ENDBRANCH   3  30
TORSDOF 10
ENDMDL
MODEL 5
REMARK VINA RESULT:      -7.8      2.797      6.782
REMARK  10 active torsions:
REMARK  status: ('A' for Active; 'I' for Inactive)
REMARK    1  A    between atoms: C_2  and  O_3 
REMARK    2  A    between atoms: O_3  and  C_4 
REMARK    3  A    between atoms: C_7  and  C_8 
REMARK    4  A    between atoms: C_8  and  C_9 
REMARK    5  A    between atoms: C_10  and  C_11 
REMARK    6  A    between atoms: C_14  and  N_15 
REMARK    7  A    between atoms: N_20  and  C_21 
REMARK    8  A    between atoms: C_21  and  C_22 
REMARK    9  A    between atoms: C_22  and  N_23 
REMARK   10  A    between atoms: C_34  and  O_35 
ROOT
HETATM    1  C   UNL     1      41.701 -13.370   5.279  1.00  0.00     0.059 C 
HETATM    2  C   UNL     1      43.164 -13.619   5.476  1.00  0.00     0.161 C 
HETATM    3  N   UNL     1      43.126 -14.899   6.183  1.00  0.00    -0.332 N 
HETATM    4  C   UNL     1      41.849 -15.169   6.643  1.00  0.00     0.278 C 
HETATM    5  O   UNL     1      41.569 -16.044   7.446  1.00  0.00    -0.265 OA
HETATM    6  C   UNL     1      40.934 -14.230   5.966  1.00  0.00     0.146 C 
ENDROOT
BRANCH   1   7
HETATM    7  C   UNL     1      41.082 -12.278   4.506  1.00  0.00     0.193 C 
HETATM    8  O   UNL     1      40.925 -11.177   5.028  1.00  0.00    -0.287 OA
BRANCH   7   9
HETATM    9  C   UNL     1      40.699 -12.493   3.098  1.00  0.00     0.015 A 
HETATM   10  C   UNL     1      41.561 -13.113   2.187  1.00  0.00     0.018 A 
HETATM   11  C   UNL     1      41.163 -13.285   0.855  1.00  0.00     0.038 A 
HETATM   12  C   UNL     1      39.901 -12.861   0.438  1.00  0.00     0.069 A 
HETATM   13  C   UNL     1      39.034 -12.282   1.369  1.00  0.00     0.038 A 
HETATM   14  C   UNL     1      39.424 -12.098   2.696  1.00  0.00     0.018 A 
BRANCH  12  15
HETATM   15  O   UNL     1      39.375 -12.977  -0.815  1.00  0.00    -0.347 OA
BRANCH  15  16
HETATM   16  C   UNL     1      40.065 -13.723  -1.823  1.00  0.00     0.120 C 
HETATM   17  C   UNL     1      40.651 -12.766  -2.857  1.00  0.00     0.040 C 
HETATM   18  C   UNL     1      39.034 -14.638  -2.478  1.00  0.00     0.040 C 
ENDBRANCH  15  16
ENDBRANCH  12  15
ENDBRANCH   7   9
ENDBRANCH   1   7
BRANCH   2  19
HETATM   19  C   UNL     1      43.856 -12.532   6.283  1.00  0.00    -0.030 A 
HETATM   20  C   UNL     1      43.347 -12.089   7.521  1.00  0.00     0.012 A 
HETATM   21  C   UNL     1      43.979 -11.066   8.234  1.00  0.00     0.037 A 
HETATM   22  C   UNL     1      45.129 -10.468   7.710  1.00  0.00     0.102 A 
HETATM   23  C   UNL     1      45.647 -10.885   6.479  1.00  0.00     0.037 A 
HETATM   24  C   UNL     1      45.013 -11.915   5.775  1.00  0.00     0.012 A 
BRANCH  22  25
HETATM   25  N   UNL     1      45.802  -9.404   8.464  1.00  0.00    -0.116 N 
HETATM   26  O   UNL     1      46.407  -8.542   7.810  1.00  0.00    -0.532 OA
HETATM   27  O   UNL     1      45.697  -9.419   9.696  1.00  0.00    -0.532 OA
ENDBRANCH  22  25
ENDBRANCH   2  19
BRANCH   6  28
HETATM   28  O   UNL     1      39.576 -14.280   6.079  1.00  0.00    -0.355 OA
HETATM   29  H   UNL     1      39.194 -13.800   5.305  1.00  0.00     0.218 HD
ENDBRANCH   6  28
BRANCH   3  30
HETATM   30  C   UNL     1      44.313 -15.606   6.650  1.00  0.00     0.155 C 
BRANCH  30  31
HETATM   31  C   UNL     1      44.639 -16.864   5.795  1.00  0.00     0.254 C 
BRANCH  31  32
HETATM   32  N   UNL     1      43.414 -17.658   5.321  1.00  0.00    -0.066 N 
HETATM   33  H   UNL     1      42.616 -17.212   5.804  1.00  0.00     0.280 HD
HETATM   34  C   UNL     1      43.453 -19.110   5.831  1.00  0.00     0.262 C 
HETATM   35  C   UNL     1      44.361 -20.017   4.959  1.00  0.00     0.260 C 
HETATM   36  N   UNL     1      43.953 -19.957   3.512  1.00  0.00    -0.072 N 
HETATM   37  H   UNL     1      43.055 -20.439   3.350  1.00  0.00     0.277 HD
HETATM   38  H   UNL     1      44.634 -20.504   2.956  1.00  0.00     0.277 HD
HETATM   39  C   UNL     1      43.928 -18.560   2.948  1.00  0.00     0.260 C 
HETATM   40  C   UNL     1      43.082 -17.602   3.821  1.00  0.00     0.262 C 
ENDBRANCH  31  32
ENDBRANCH  30  31
ENDBRANCH   3  30
TORSDOF 10
ENDMDL
MODEL 6
REMARK VINA RESULT:      -7.8      1.992      5.256
REMARK  10 active torsions:
REMARK  status: ('A' for Active; 'I' for Inactive)
REMARK    1  A    between atoms: C_2  and  O_3 
REMARK    2  A    between atoms: O_3  and  C_4 
REMARK    3  A    between atoms: C_7  and  C_8 
REMARK    4  A    between atoms: C_8  and  C_9 
REMARK    5  A    between atoms: C_10  and  C_11 
REMARK    6  A    between atoms: C_14  and  N_15 
REMARK    7  A    between atoms: N_20  and  C_21 
REMARK    8  A    between atoms: C_21  and  C_22 
REMARK    9  A    between atoms: C_22  and  N_23 
REMARK   10  A    between atoms: C_34  and  O_35 
ROOT
HETATM    1  C   UNL     1      43.179 -15.600   5.128  1.00  0.00     0.059 C 
HETATM    2  C   UNL     1      43.345 -14.119   5.262  1.00  0.00     0.161 C 
HETATM    3  N   UNL     1      43.555 -14.001   6.705  1.00  0.00    -0.332 N 
HETATM    4  C   UNL     1      43.205 -15.175   7.350  1.00  0.00     0.278 C 
HETATM    5  O   UNL     1      43.067 -15.291   8.556  1.00  0.00    -0.265 OA
HETATM    6  C   UNL     1      43.066 -16.217   6.315  1.00  0.00     0.146 C 
ENDROOT
BRANCH   1   7
HETATM    7  C   UNL     1      43.057 -16.371   3.877  1.00  0.00     0.193 C 
HETATM    8  O   UNL     1      43.721 -17.392   3.725  1.00  0.00    -0.287 OA
BRANCH   7   9
HETATM    9  C   UNL     1      42.105 -15.943   2.835  1.00  0.00     0.015 A 
HETATM   10  C   UNL     1      40.727 -16.142   2.969  1.00  0.00     0.018 A 
HETATM   11  C   UNL     1      39.859 -15.733   1.948  1.00  0.00     0.038 A 
HETATM   12  C   UNL     1      40.362 -15.105   0.808  1.00  0.00     0.069 A 
HETATM   13  C   UNL     1      41.736 -14.873   0.706  1.00  0.00     0.038 A 
HETATM   14  C   UNL     1      42.610 -15.285   1.713  1.00  0.00     0.018 A 
BRANCH  12  15
HETATM   15  O   UNL     1      39.640 -14.641  -0.253  1.00  0.00    -0.347 OA
BRANCH  15  16
HETATM   16  C   UNL     1      40.168 -13.606  -1.088  1.00  0.00     0.120 C 
HETATM   17  C   UNL     1      39.396 -12.311  -0.848  1.00  0.00     0.040 C 
HETATM   18  C   UNL     1      39.985 -14.066  -2.532  1.00  0.00     0.040 C 
ENDBRANCH  15  16
ENDBRANCH  12  15
ENDBRANCH   7   9
ENDBRANCH   1   7
BRANCH   2  19
HETATM   19  C   UNL     1      42.133 -13.332   4.787  1.00  0.00    -0.030 A 
HETATM   20  C   UNL     1      40.851 -13.539   5.337  1.00  0.00     0.012 A 
HETATM   21  C   UNL     1      39.744 -12.829   4.866  1.00  0.00     0.037 A 
HETATM   22  C   UNL     1      39.905 -11.904   3.830  1.00  0.00     0.102 A 
HETATM   23  C   UNL     1      41.167 -11.688   3.263  1.00  0.00     0.037 A 
HETATM   24  C   UNL     1      42.273 -12.397   3.746  1.00  0.00     0.012 A 
BRANCH  22  25
HETATM   25  N   UNL     1      38.746 -11.148   3.344  1.00  0.00    -0.116 N 
HETATM   26  O   UNL     1      38.176 -11.575   2.329  1.00  0.00    -0.532 OA
HETATM   27  O   UNL     1      38.396 -10.155   3.992  1.00  0.00    -0.532 OA
ENDBRANCH  22  25
ENDBRANCH   2  19
BRANCH   6  28
HETATM   28  O   UNL     1      42.847 -17.534   6.588  1.00  0.00    -0.355 OA
HETATM   29  H   UNL     1      42.322 -17.583   7.423  1.00  0.00     0.218 HD
ENDBRANCH   6  28
BRANCH   3  30
HETATM   30  C   UNL     1      43.752 -12.733   7.398  1.00  0.00     0.155 C 
BRANCH  30  31
HETATM   31  C   UNL     1      44.964 -11.929   6.847  1.00  0.00     0.254 C 
BRANCH  31  32
HETATM   32  N   UNL     1      44.846 -10.406   6.987  1.00  0.00    -0.066 N 
HETATM   33  H   UNL     1      45.066 -10.044   6.045  1.00  0.00     0.280 HD
HETATM   34  C   UNL     1      45.933  -9.839   7.919  1.00  0.00     0.262 C 
HETATM   35  C   UNL     1      45.564  -9.992   9.418  1.00  0.00     0.260 C 
HETATM   36  N   UNL     1      44.222  -9.377   9.708  1.00  0.00    -0.072 N 
HETATM   37  H   UNL     1      44.259  -8.346   9.663  1.00  0.00     0.277 HD
HETATM   38  H   UNL     1      43.975  -9.575  10.694  1.00  0.00     0.277 HD
HETATM   39  C   UNL     1      43.109  -9.916   8.847  1.00  0.00     0.260 C 
HETATM   40  C   UNL     1      43.460  -9.842   7.340  1.00  0.00     0.262 C 
ENDBRANCH  31  32
ENDBRANCH  30  31
ENDBRANCH   3  30
TORSDOF 10
ENDMDL
MODEL 7
REMARK VINA RESULT:      -7.5      2.939      5.033
REMARK  10 active torsions:
REMARK  status: ('A' for Active; 'I' for Inactive)
REMARK    1  A    between atoms: C_2  and  O_3 
REMARK    2  A    between atoms: O_3  and  C_4 
REMARK    3  A    between atoms: C_7  and  C_8 
REMARK    4  A    between atoms: C_8  and  C_9 
REMARK    5  A    between atoms: C_10  and  C_11 
REMARK    6  A    between atoms: C_14  and  N_15 
REMARK    7  A    between atoms: N_20  and  C_21 
REMARK    8  A    between atoms: C_21  and  C_22 
REMARK    9  A    between atoms: C_22  and  N_23 
REMARK   10  A    between atoms: C_34  and  O_35 
ROOT
HETATM    1  C   UNL     1      40.483 -12.937   0.453  1.00  0.00     0.059 C 
HETATM    2  C   UNL     1      40.181 -12.071   1.636  1.00  0.00     0.161 C 
HETATM    3  N   UNL     1      40.308 -10.743   1.037  1.00  0.00    -0.332 N 
HETATM    4  C   UNL     1      40.935 -10.817  -0.194  1.00  0.00     0.278 C 
HETATM    5  O   UNL     1      41.368  -9.859  -0.813  1.00  0.00    -0.265 OA
HETATM    6  C   UNL     1      40.946 -12.237  -0.594  1.00  0.00     0.146 C 
ENDROOT
BRANCH   1   7
HETATM    7  C   UNL     1      40.394 -14.407   0.382  1.00  0.00     0.193 C 
HETATM    8  O   UNL     1      39.661 -14.932  -0.452  1.00  0.00    -0.287 OA
BRANCH   7   9
HETATM    9  C   UNL     1      41.219 -15.242   1.275  1.00  0.00     0.015 A 
HETATM   10  C   UNL     1      42.603 -15.352   1.110  1.00  0.00     0.018 A 
HETATM   11  C   UNL     1      43.347 -16.167   1.973  1.00  0.00     0.038 A 
HETATM   12  C   UNL     1      42.716 -16.852   3.012  1.00  0.00     0.069 A 
HETATM   13  C   UNL     1      41.338 -16.699   3.192  1.00  0.00     0.038 A 
HETATM   14  C   UNL     1      40.587 -15.897   2.333  1.00  0.00     0.018 A 
BRANCH  12  15
HETATM   15  O   UNL     1      43.310 -17.664   3.933  1.00  0.00    -0.347 OA
BRANCH  15  16
HETATM   16  C   UNL     1      44.128 -18.759   3.510  1.00  0.00     0.120 C 
HETATM   17  C   UNL     1      43.406 -19.544   2.419  1.00  0.00     0.040 C 
HETATM   18  C   UNL     1      44.349 -19.644   4.734  1.00  0.00     0.040 C 
ENDBRANCH  15  16
ENDBRANCH  12  15
ENDBRANCH   7   9
ENDBRANCH   1   7
BRANCH   2  19
HETATM   19  C   UNL     1      41.145 -12.278   2.795  1.00  0.00    -0.030 A 
HETATM   20  C   UNL     1      42.533 -12.076   2.651  1.00  0.00     0.012 A 
HETATM   21  C   UNL     1      43.407 -12.302   3.718  1.00  0.00     0.037 A 
HETATM   22  C   UNL     1      42.900 -12.741   4.945  1.00  0.00     0.102 A 
HETATM   23  C   UNL     1      41.527 -12.957   5.108  1.00  0.00     0.037 A 
HETATM   24  C   UNL     1      40.657 -12.721   4.037  1.00  0.00     0.012 A 
BRANCH  22  25
HETATM   25  N   UNL     1      43.815 -12.964   6.070  1.00  0.00    -0.116 N 
HETATM   26  O   UNL     1      43.754 -14.064   6.640  1.00  0.00    -0.532 OA
HETATM   27  O   UNL     1      44.604 -12.057   6.357  1.00  0.00    -0.532 OA
ENDBRANCH  22  25
ENDBRANCH   2  19
BRANCH   6  28
HETATM   28  O   UNL     1      41.376 -12.680  -1.810  1.00  0.00    -0.355 OA
HETATM   29  H   UNL     1      41.965 -11.986  -2.190  1.00  0.00     0.218 HD
ENDBRANCH   6  28
BRANCH   3  30
HETATM   30  C   UNL     1      40.134  -9.497   1.775  1.00  0.00     0.155 C 
BRANCH  30  31
HETATM   31  C   UNL     1      38.651  -9.230   2.162  1.00  0.00     0.254 C 
BRANCH  31  32
HETATM   32  N   UNL     1      37.951  -8.147   1.330  1.00  0.00    -0.066 N 
HETATM   33  H   UNL     1      38.225  -7.259   1.782  1.00  0.00     0.280 HD
HETATM   34  C   UNL     1      36.420  -8.232   1.469  1.00  0.00     0.262 C 
HETATM   35  C   UNL     1      35.805  -9.319   0.549  1.00  0.00     0.260 C 
HETATM   36  N   UNL     1      36.212  -9.106  -0.884  1.00  0.00    -0.072 N 
HETATM   37  H   UNL     1      35.748  -8.279  -1.292  1.00  0.00     0.277 HD
HETATM   38  H   UNL     1      35.853  -9.897  -1.448  1.00  0.00     0.277 HD
HETATM   39  C   UNL     1      37.703  -9.046  -1.087  1.00  0.00     0.260 C 
HETATM   40  C   UNL     1      38.371  -8.017  -0.143  1.00  0.00     0.262 C 
ENDBRANCH  31  32
ENDBRANCH  30  31
ENDBRANCH   3  30
TORSDOF 10
ENDMDL
MODEL 8
REMARK VINA RESULT:      -7.3      3.386      6.166
REMARK  10 active torsions:
REMARK  status: ('A' for Active; 'I' for Inactive)
REMARK    1  A    between atoms: C_2  and  O_3 
REMARK    2  A    between atoms: O_3  and  C_4 
REMARK    3  A    between atoms: C_7  and  C_8 
REMARK    4  A    between atoms: C_8  and  C_9 
REMARK    5  A    between atoms: C_10  and  C_11 
REMARK    6  A    between atoms: C_14  and  N_15 
REMARK    7  A    between atoms: N_20  and  C_21 
REMARK    8  A    between atoms: C_21  and  C_22 
REMARK    9  A    between atoms: C_22  and  N_23 
REMARK   10  A    between atoms: C_34  and  O_35 
ROOT
HETATM    1  C   UNL     1      42.030 -11.384   3.075  1.00  0.00     0.059 C 
HETATM    2  C   UNL     1      41.563 -10.679   1.839  1.00  0.00     0.161 C 
HETATM    3  N   UNL     1      40.528  -9.811   2.400  1.00  0.00    -0.332 N 
HETATM    4  C   UNL     1      40.196 -10.207   3.684  1.00  0.00     0.278 C 
HETATM    5  O   UNL     1      39.222  -9.813   4.303  1.00  0.00    -0.265 OA
HETATM    6  C   UNL     1      41.239 -11.149   4.133  1.00  0.00     0.146 C 
ENDROOT
BRANCH   1   7
HETATM    7  C   UNL     1      43.166 -12.316   3.189  1.00  0.00     0.193 C 
HETATM    8  O   UNL     1      44.286 -11.881   3.443  1.00  0.00    -0.287 OA
BRANCH   7   9
HETATM    9  C   UNL     1      42.948 -13.768   3.049  1.00  0.00     0.015 A 
HETATM   10  C   UNL     1      42.258 -14.506   4.017  1.00  0.00     0.018 A 
HETATM   11  C   UNL     1      42.085 -15.886   3.851  1.00  0.00     0.038 A 
HETATM   12  C   UNL     1      42.579 -16.525   2.713  1.00  0.00     0.069 A 
HETATM   13  C   UNL     1      43.229 -15.768   1.734  1.00  0.00     0.038 A 
HETATM   14  C   UNL     1      43.414 -14.395   1.894  1.00  0.00     0.018 A 
BRANCH  12  15
HETATM   15  O   UNL     1      42.473 -17.851   2.411  1.00  0.00    -0.347 OA
BRANCH  15  16
HETATM   16  C   UNL     1      43.618 -18.705   2.494  1.00  0.00     0.120 C 
HETATM   17  C   UNL     1      43.240 -20.114   2.046  1.00  0.00     0.040 C 
HETATM   18  C   UNL     1      44.054 -18.718   3.957  1.00  0.00     0.040 C 
ENDBRANCH  15  16
ENDBRANCH  12  15
ENDBRANCH   7   9
ENDBRANCH   1   7
BRANCH   2  19
HETATM   19  C   UNL     1      41.016 -11.621   0.779  1.00  0.00    -0.030 A 
HETATM   20  C   UNL     1      40.253 -12.758   1.117  1.00  0.00     0.012 A 
HETATM   21  C   UNL     1      39.786 -13.631   0.131  1.00  0.00     0.037 A 
HETATM   22  C   UNL     1      40.084 -13.379  -1.212  1.00  0.00     0.102 A 
HETATM   23  C   UNL     1      40.847 -12.262  -1.571  1.00  0.00     0.037 A 
HETATM   24  C   UNL     1      41.304 -11.388  -0.578  1.00  0.00     0.012 A 
BRANCH  22  25
HETATM   25  N   UNL     1      39.581 -14.286  -2.250  1.00  0.00    -0.116 N 
HETATM   26  O   UNL     1      38.929 -15.271  -1.874  1.00  0.00    -0.532 OA
HETATM   27  O   UNL     1      39.813 -13.994  -3.429  1.00  0.00    -0.532 OA
ENDBRANCH  22  25
ENDBRANCH   2  19
BRANCH   6  28
HETATM   28  O   UNL     1      41.311 -11.655   5.397  1.00  0.00    -0.355 OA
HETATM   29  H   UNL     1      40.984 -10.960   6.016  1.00  0.00     0.218 HD
ENDBRANCH   6  28
BRANCH   3  30
HETATM   30  C   UNL     1      39.712  -8.899   1.606  1.00  0.00     0.155 C 
BRANCH  30  31
HETATM   31  C   UNL     1      40.188  -7.422   1.707  1.00  0.00     0.254 C 
BRANCH  31  32
HETATM   32  N   UNL     1      41.410  -7.077   0.845  1.00  0.00    -0.066 N 
HETATM   33  H   UNL     1      42.211  -7.472   1.366  1.00  0.00     0.280 HD
HETATM   34  C   UNL     1      41.652  -5.558   0.793  1.00  0.00     0.262 C 
HETATM   35  C   UNL     1      40.738  -4.851  -0.243  1.00  0.00     0.260 C 
HETATM   36  N   UNL     1      40.884  -5.474  -1.605  1.00  0.00    -0.072 N 
HETATM   37  H   UNL     1      41.799  -5.250  -2.028  1.00  0.00     0.277 HD
HETATM   38  H   UNL     1      40.198  -5.033  -2.243  1.00  0.00     0.277 HD
HETATM   39  C   UNL     1      40.627  -6.958  -1.622  1.00  0.00     0.260 C 
HETATM   40  C   UNL     1      41.473  -7.701  -0.559  1.00  0.00     0.262 C 
ENDBRANCH  31  32
ENDBRANCH  30  31
ENDBRANCH   3  30
TORSDOF 10
ENDMDL
MODEL 9
REMARK VINA RESULT:      -7.3      3.274      7.962
REMARK  10 active torsions:
REMARK  status: ('A' for Active; 'I' for Inactive)
REMARK    1  A    between atoms: C_2  and  O_3 
REMARK    2  A    between atoms: O_3  and  C_4 
REMARK    3  A    between atoms: C_7  and  C_8 
REMARK    4  A    between atoms: C_8  and  C_9 
REMARK    5  A    between atoms: C_10  and  C_11 
REMARK    6  A    between atoms: C_14  and  N_15 
REMARK    7  A    between atoms: N_20  and  C_21 
REMARK    8  A    between atoms: C_21  and  C_22 
REMARK    9  A    between atoms: C_22  and  N_23 
REMARK   10  A    between atoms: C_34  and  O_35 
ROOT
HETATM    1  C   UNL     1      41.664 -14.229   4.415  1.00  0.00     0.059 C 
HETATM    2  C   UNL     1      42.307 -14.606   3.117  1.00  0.00     0.161 C 
HETATM    3  N   UNL     1      41.236 -14.271   2.179  1.00  0.00    -0.332 N 
HETATM    4  C   UNL     1      40.040 -14.075   2.847  1.00  0.00     0.278 C 
HETATM    5  O   UNL     1      38.947 -14.003   2.311  1.00  0.00    -0.265 OA
HETATM    6  C   UNL     1      40.358 -13.952   4.283  1.00  0.00     0.146 C 
ENDROOT
BRANCH   1   7
HETATM    7  C   UNL     1      42.294 -14.217   5.748  1.00  0.00     0.193 C 
HETATM    8  O   UNL     1      42.363 -15.258   6.396  1.00  0.00    -0.287 OA
BRANCH   7   9
HETATM    9  C   UNL     1      42.882 -12.973   6.277  1.00  0.00     0.015 A 
HETATM   10  C   UNL     1      42.148 -11.785   6.353  1.00  0.00     0.018 A 
HETATM   11  C   UNL     1      42.749 -10.622   6.849  1.00  0.00     0.038 A 
HETATM   12  C   UNL     1      44.072 -10.648   7.292  1.00  0.00     0.069 A 
HETATM   13  C   UNL     1      44.781 -11.852   7.251  1.00  0.00     0.038 A 
HETATM   14  C   UNL     1      44.195 -13.014   6.749  1.00  0.00     0.018 A 
BRANCH  12  15
HETATM   15  O   UNL     1      44.780  -9.604   7.811  1.00  0.00    -0.347 OA
BRANCH  15  16
HETATM   16  C   UNL     1      44.421  -9.049   9.081  1.00  0.00     0.120 C 
HETATM   17  C   UNL     1      44.376  -7.527   8.979  1.00  0.00     0.040 C 
HETATM   18  C   UNL     1      45.501  -9.477  10.071  1.00  0.00     0.040 C 
ENDBRANCH  15  16
ENDBRANCH  12  15
ENDBRANCH   7   9
ENDBRANCH   1   7
BRANCH   2  19
HETATM   19  C   UNL     1      42.701 -16.074   3.044  1.00  0.00    -0.030 A 
HETATM   20  C   UNL     1      42.022 -16.984   2.208  1.00  0.00     0.012 A 
HETATM   21  C   UNL     1      42.377 -18.335   2.178  1.00  0.00     0.037 A 
HETATM   22  C   UNL     1      43.415 -18.795   2.995  1.00  0.00     0.102 A 
HETATM   23  C   UNL     1      44.096 -17.911   3.840  1.00  0.00     0.037 A 
HETATM   24  C   UNL     1      43.740 -16.558   3.858  1.00  0.00     0.012 A 
BRANCH  22  25
HETATM   25  N   UNL     1      43.799 -20.210   2.955  1.00  0.00    -0.116 N 
HETATM   26  O   UNL     1      43.769 -20.774   1.851  1.00  0.00    -0.532 OA
HETATM   27  O   UNL     1      44.154 -20.740   4.014  1.00  0.00    -0.532 OA
ENDBRANCH  22  25
ENDBRANCH   2  19
BRANCH   6  28
HETATM   28  O   UNL     1      39.440 -13.630   5.239  1.00  0.00    -0.355 OA
HETATM   29  H   UNL     1      38.616 -13.345   4.777  1.00  0.00     0.218 HD
ENDBRANCH   6  28
BRANCH   3  30
HETATM   30  C   UNL     1      41.325 -14.468   0.736  1.00  0.00     0.155 C 
BRANCH  30  31
HETATM   31  C   UNL     1      40.789 -13.252  -0.071  1.00  0.00     0.254 C 
BRANCH  31  32
HETATM   32  N   UNL     1      40.939 -13.372  -1.594  1.00  0.00    -0.066 N 
HETATM   33  H   UNL     1      41.831 -13.877  -1.725  1.00  0.00     0.280 HD
HETATM   34  C   UNL     1      41.137 -11.994  -2.251  1.00  0.00     0.262 C 
HETATM   35  C   UNL     1      39.796 -11.240  -2.455  1.00  0.00     0.260 C 
HETATM   36  N   UNL     1      38.818 -12.079  -3.232  1.00  0.00    -0.072 N 
HETATM   37  H   UNL     1      39.097 -12.168  -4.222  1.00  0.00     0.277 HD
HETATM   38  H   UNL     1      37.913 -11.578  -3.271  1.00  0.00     0.277 HD
HETATM   39  C   UNL     1      38.560 -13.431  -2.619  1.00  0.00     0.260 C 
HETATM   40  C   UNL     1      39.876 -14.197  -2.338  1.00  0.00     0.262 C 
ENDBRANCH  31  32
ENDBRANCH  30  31
ENDBRANCH   3  30
TORSDOF 10
ENDMDL
MODEL 10
REMARK VINA RESULT:      -7.2      4.586     10.783
REMARK  10 active torsions:
REMARK  status: ('A' for Active; 'I' for Inactive)
REMARK    1  A    between atoms: C_2  and  O_3 
REMARK    2  A    between atoms: O_3  and  C_4 
REMARK    3  A    between atoms: C_7  and  C_8 
REMARK    4  A    between atoms: C_8  and  C_9 
REMARK    5  A    between atoms: C_10  and  C_11 
REMARK    6  A    between atoms: C_14  and  N_15 
REMARK    7  A    between atoms: N_20  and  C_21 
REMARK    8  A    between atoms: C_21  and  C_22 
REMARK    9  A    between atoms: C_22  and  N_23 
REMARK   10  A    between atoms: C_34  and  O_35 
ROOT
HETATM    1  C   UNL     1      43.354 -10.126  10.148  1.00  0.00     0.059 C 
HETATM    2  C   UNL     1      42.263  -9.475   9.356  1.00  0.00     0.161 C 
HETATM    3  N   UNL     1      42.789  -9.624   8.000  1.00  0.00    -0.332 N 
HETATM    4  C   UNL     1      44.127  -9.976   8.027  1.00  0.00     0.278 C 
HETATM    5  O   UNL     1      44.873  -9.951   7.062  1.00  0.00    -0.265 OA
HETATM    6  C   UNL     1      44.441 -10.391   9.408  1.00  0.00     0.146 C 
ENDROOT
BRANCH   1   7
HETATM    7  C   UNL     1      43.355 -10.406  11.595  1.00  0.00     0.193 C 
HETATM    8  O   UNL     1      43.913 -11.415  12.019  1.00  0.00    -0.287 OA
BRANCH   7   9
HETATM    9  C   UNL     1      42.732  -9.454  12.533  1.00  0.00     0.015 A 
HETATM   10  C   UNL     1      41.478  -9.696  13.105  1.00  0.00     0.018 A 
HETATM   11  C   UNL     1      40.916  -8.758  13.981  1.00  0.00     0.038 A 
HETATM   12  C   UNL     1      41.612  -7.593  14.303  1.00  0.00     0.069 A 
HETATM   13  C   UNL     1      42.881  -7.382  13.757  1.00  0.00     0.038 A 
HETATM   14  C   UNL     1      43.446  -8.306  12.877  1.00  0.00     0.018 A 
BRANCH  12  15
HETATM   15  O   UNL     1      41.199  -6.603  15.147  1.00  0.00    -0.347 OA
BRANCH  15  16
HETATM   16  C   UNL     1      40.755  -6.921  16.470  1.00  0.00     0.120 C 
HETATM   17  C   UNL     1      39.640  -5.962  16.878  1.00  0.00     0.040 C 
HETATM   18  C   UNL     1      41.959  -6.750  17.393  1.00  0.00     0.040 C 
ENDBRANCH  15  16
ENDBRANCH  12  15
ENDBRANCH   7   9
ENDBRANCH   1   7
BRANCH   2  19
HETATM   19  C   UNL     1      42.035  -8.019   9.731  1.00  0.00    -0.030 A 
HETATM   20  C   UNL     1      43.066  -7.060   9.649  1.00  0.00     0.012 A 
HETATM   21  C   UNL     1      42.847  -5.733  10.028  1.00  0.00     0.037 A 
HETATM   22  C   UNL     1      41.589  -5.350  10.503  1.00  0.00     0.102 A 
HETATM   23  C   UNL     1      40.553  -6.286  10.602  1.00  0.00     0.037 A 
HETATM   24  C   UNL     1      40.778  -7.611  10.213  1.00  0.00     0.012 A 
BRANCH  22  25
HETATM   25  N   UNL     1      41.353  -3.954  10.888  1.00  0.00    -0.116 N 
HETATM   26  O   UNL     1      40.429  -3.734  11.686  1.00  0.00    -0.532 OA
HETATM   27  O   UNL     1      42.106  -3.093  10.418  1.00  0.00    -0.532 OA
ENDBRANCH  22  25
ENDBRANCH   2  19
BRANCH   6  28
HETATM   28  O   UNL     1      45.638 -10.922   9.787  1.00  0.00    -0.355 OA
HETATM   29  H   UNL     1      46.306 -10.195   9.769  1.00  0.00     0.218 HD
ENDBRANCH   6  28
BRANCH   3  30
HETATM   30  C   UNL     1      42.115  -9.127   6.805  1.00  0.00     0.155 C 
BRANCH  30  31
HETATM   31  C   UNL     1      41.770 -10.258   5.795  1.00  0.00     0.254 C 
BRANCH  31  32
HETATM   32  N   UNL     1      41.233 -11.549   6.429  1.00  0.00    -0.066 N 
HETATM   33  H   UNL     1      41.476 -11.463   7.430  1.00  0.00     0.280 HD
HETATM   34  C   UNL     1      41.994 -12.786   5.918  1.00  0.00     0.262 C 
HETATM   35  C   UNL     1      41.477 -13.266   4.536  1.00  0.00     0.260 C 
HETATM   36  N   UNL     1      39.994 -13.513   4.571  1.00  0.00    -0.072 N 
HETATM   37  H   UNL     1      39.762 -14.355   5.122  1.00  0.00     0.277 HD
HETATM   38  H   UNL     1      39.677 -13.747   3.613  1.00  0.00     0.277 HD
HETATM   39  C   UNL     1      39.192 -12.324   5.034  1.00  0.00     0.260 C 
HETATM   40  C   UNL     1      39.712 -11.770   6.383  1.00  0.00     0.262 C 
ENDBRANCH  31  32
ENDBRANCH  30  31
ENDBRANCH   3  30
TORSDOF 10
ENDMDL
