MODEL 1
REMARK VINA RESULT:      -8.8      0.000      0.000
REMARK  9 active torsions:
REMARK  status: ('A' for Active; 'I' for Inactive)
REMARK    1  A    between atoms: C_5  and  C_6 
REMARK    2  A    between atoms: C_6  and  N_7 
REMARK       I    between atoms: N_7  and  C_8 
REMARK    3  A    between atoms: C_8  and  C_9 
REMARK    4  A    between atoms: C_10  and  S_11 
REMARK    5  A    between atoms: S_11  and  C_12 
REMARK    6  A    between atoms: C_12  and  C_13 
REMARK       I    between atoms: C_13  and  N_14 
REMARK    7  A    between atoms: N_14  and  C_15 
REMARK    8  A    between atoms: C_16  and  O_17 
REMARK    9  A    between atoms: C_20  and  O_21 
ROOT
HETATM    1  C   UNL     1      43.289 -13.459   6.639  1.00  0.00     0.067 A 
HETATM    2  C   UNL     1      42.132 -12.891   6.102  1.00  0.00     0.109 A 
HETATM    3  N   UNL     1      42.102 -11.602   5.652  1.00  0.00    -0.253 NA
HETATM    4  C   UNL     1      43.223 -10.857   5.783  1.00  0.00     0.118 A 
HETATM    5  C   UNL     1      44.402 -11.333   6.321  1.00  0.00     0.020 A 
HETATM    6  C   UNL     1      44.435 -12.654   6.752  1.00  0.00     0.021 A 
ENDROOT
BRANCH   2   7
HETATM    7  S   UNL     1      40.565 -13.718   5.924  1.00  0.00    -0.100 SA
BRANCH   7   8
HETATM    8  C   UNL     1      40.871 -14.626   4.384  1.00  0.00     0.184 C 
BRANCH   8   9
HETATM    9  C   UNL     1      40.273 -14.014   3.121  1.00  0.00     0.231 C 
HETATM   10  N   UNL     1      40.904 -14.347   1.936  1.00  0.00    -0.324 N 
HETATM   11  H   UNL     1      41.544 -15.139   1.999  1.00  0.00     0.169 HD
HETATM   12  O   UNL     1      39.205 -13.405   3.212  1.00  0.00    -0.272 OA
BRANCH  10  13
HETATM   13  C   UNL     1      40.469 -13.988   0.640  1.00  0.00     0.068 A 
HETATM   14  C   UNL     1      40.626 -12.714   0.063  1.00  0.00     0.097 A 
HETATM   15  C   UNL     1      40.050 -12.449  -1.192  1.00  0.00     0.075 A 
HETATM   16  C   UNL     1      39.353 -13.446  -1.880  1.00  0.00     0.070 A 
HETATM   17  C   UNL     1      39.287 -14.730  -1.346  1.00  0.00     0.039 A 
HETATM   18  C   UNL     1      39.848 -15.002  -0.100  1.00  0.00     0.035 A 
BRANCH  14  19
HETATM   19  O   UNL     1      41.453 -11.833   0.712  1.00  0.00    -0.354 OA
HETATM   20  C   UNL     1      40.857 -10.726   1.370  1.00  0.00     0.210 C 
ENDBRANCH  14  19
BRANCH  16  21
HETATM   21  O   UNL     1      38.738 -13.298  -3.094  1.00  0.00    -0.356 OA
HETATM   22  C   UNL     1      38.203 -14.480  -3.677  1.00  0.00     0.210 C 
ENDBRANCH  16  21
ENDBRANCH  10  13
ENDBRANCH   8   9
ENDBRANCH   7   8
ENDBRANCH   2   7
BRANCH   1  23
HETATM   23  C   UNL     1      43.368 -14.861   7.117  1.00  0.00     0.254 C 
HETATM   24  N   UNL     1      43.779 -15.780   6.175  1.00  0.00    -0.353 N 
HETATM   25  H   UNL     1      43.834 -15.523   5.198  1.00  0.00     0.163 HD
HETATM   26  O   UNL     1      43.112 -15.155   8.275  1.00  0.00    -0.268 OA
BRANCH  24  27
HETATM   27  C   UNL     1      43.889 -17.187   6.492  1.00  0.00     0.161 C 
BRANCH  27  28
HETATM   28  C   UNL     1      43.838 -18.024   5.240  1.00  0.00    -0.041 A 
HETATM   29  C   UNL     1      44.035 -19.411   5.311  1.00  0.00     0.009 A 
HETATM   30  C   UNL     1      43.972 -20.200   4.161  1.00  0.00     0.007 A 
HETATM   31  C   UNL     1      43.716 -19.617   2.916  1.00  0.00    -0.062 A 
HETATM   32  C   UNL     1      43.597 -20.463   1.682  1.00  0.00     0.048 C 
HETATM   33  C   UNL     1      43.515 -18.233   2.842  1.00  0.00     0.007 A 
HETATM   34  C   UNL     1      43.580 -17.443   3.992  1.00  0.00     0.009 A 
ENDBRANCH  27  28
ENDBRANCH  24  27
ENDBRANCH   1  23
TORSDOF 9
ENDMDL
MODEL 2
REMARK VINA RESULT:      -8.3      4.487      8.669
REMARK  9 active torsions:
REMARK  status: ('A' for Active; 'I' for Inactive)
REMARK    1  A    between atoms: C_5  and  C_6 
REMARK    2  A    between atoms: C_6  and  N_7 
REMARK       I    between atoms: N_7  and  C_8 
REMARK    3  A    between atoms: C_8  and  C_9 
REMARK    4  A    between atoms: C_10  and  S_11 
REMARK    5  A    between atoms: S_11  and  C_12 
REMARK    6  A    between atoms: C_12  and  C_13 
REMARK       I    between atoms: C_13  and  N_14 
REMARK    7  A    between atoms: N_14  and  C_15 
REMARK    8  A    between atoms: C_16  and  O_17 
REMARK    9  A    between atoms: C_20  and  O_21 
ROOT
HETATM    1  C   UNL     1      42.176 -13.636   6.369  1.00  0.00     0.067 A 
HETATM    2  C   UNL     1      42.816 -12.396   6.343  1.00  0.00     0.109 A 
HETATM    3  N   UNL     1      42.161 -11.252   5.991  1.00  0.00    -0.253 NA
HETATM    4  C   UNL     1      40.865 -11.352   5.615  1.00  0.00     0.118 A 
HETATM    5  C   UNL     1      40.163 -12.540   5.590  1.00  0.00     0.020 A 
HETATM    6  C   UNL     1      40.827 -13.697   5.977  1.00  0.00     0.021 A 
ENDROOT
BRANCH   2   7
HETATM    7  S   UNL     1      44.527 -12.112   6.746  1.00  0.00    -0.100 SA
BRANCH   7   8
HETATM    8  C   UNL     1      44.407 -10.437   7.431  1.00  0.00     0.184 C 
BRANCH   8   9
HETATM    9  C   UNL     1      43.987 -10.344   8.894  1.00  0.00     0.231 C 
HETATM   10  N   UNL     1      43.351  -9.172   9.262  1.00  0.00    -0.324 N 
HETATM   11  H   UNL     1      43.022  -8.600   8.484  1.00  0.00     0.169 HD
HETATM   12  O   UNL     1      44.095 -11.348   9.601  1.00  0.00    -0.272 OA
BRANCH  10  13
HETATM   13  C   UNL     1      42.781  -8.904  10.528  1.00  0.00     0.068 A 
HETATM   14  C   UNL     1      41.401  -8.913  10.806  1.00  0.00     0.097 A 
HETATM   15  C   UNL     1      40.953  -8.519  12.079  1.00  0.00     0.075 A 
HETATM   16  C   UNL     1      41.863  -8.151  13.073  1.00  0.00     0.070 A 
HETATM   17  C   UNL     1      43.229  -8.240  12.819  1.00  0.00     0.039 A 
HETATM   18  C   UNL     1      43.685  -8.622  11.560  1.00  0.00     0.035 A 
BRANCH  14  19
HETATM   19  O   UNL     1      40.575  -9.435   9.846  1.00  0.00    -0.354 OA
HETATM   20  C   UNL     1      39.272  -9.838  10.240  1.00  0.00     0.210 C 
ENDBRANCH  14  19
BRANCH  16  21
HETATM   21  O   UNL     1      41.542  -7.734  14.337  1.00  0.00    -0.356 OA
HETATM   22  C   UNL     1      41.617  -6.334  14.577  1.00  0.00     0.210 C 
ENDBRANCH  16  21
ENDBRANCH  10  13
ENDBRANCH   8   9
ENDBRANCH   7   8
ENDBRANCH   2   7
BRANCH   1  23
HETATM   23  C   UNL     1      42.847 -14.898   6.767  1.00  0.00     0.254 C 
HETATM   24  N   UNL     1      43.524 -15.547   5.755  1.00  0.00    -0.353 N 
HETATM   25  H   UNL     1      43.400 -15.265   4.792  1.00  0.00     0.163 HD
HETATM   26  O   UNL     1      42.816 -15.300   7.920  1.00  0.00    -0.268 OA
BRANCH  24  27
HETATM   27  C   UNL     1      44.214 -16.796   5.991  1.00  0.00     0.161 C 
BRANCH  27  28
HETATM   28  C   UNL     1      44.019 -17.743   4.835  1.00  0.00    -0.041 A 
HETATM   29  C   UNL     1      44.240 -19.117   5.005  1.00  0.00     0.009 A 
HETATM   30  C   UNL     1      44.044 -20.007   3.947  1.00  0.00     0.007 A 
HETATM   31  C   UNL     1      43.629 -19.539   2.696  1.00  0.00    -0.062 A 
HETATM   32  C   UNL     1      43.369 -20.493   1.567  1.00  0.00     0.048 C 
HETATM   33  C   UNL     1      43.404 -18.168   2.525  1.00  0.00     0.007 A 
HETATM   34  C   UNL     1      43.601 -17.277   3.583  1.00  0.00     0.009 A 
ENDBRANCH  27  28
ENDBRANCH  24  27
ENDBRANCH   1  23
TORSDOF 9
ENDMDL
MODEL 3
REMARK VINA RESULT:      -8.2      2.240      5.505
REMARK  9 active torsions:
REMARK  status: ('A' for Active; 'I' for Inactive)
REMARK    1  A    between atoms: C_5  and  C_6 
REMARK    2  A    between atoms: C_6  and  N_7 
REMARK       I    between atoms: N_7  and  C_8 
REMARK    3  A    between atoms: C_8  and  C_9 
REMARK    4  A    between atoms: C_10  and  S_11 
REMARK    5  A    between atoms: S_11  and  C_12 
REMARK    6  A    between atoms: C_12  and  C_13 
REMARK       I    between atoms: C_13  and  N_14 
REMARK    7  A    between atoms: N_14  and  C_15 
REMARK    8  A    between atoms: C_16  and  O_17 
REMARK    9  A    between atoms: C_20  and  O_21 
ROOT
HETATM    1  C   UNL     1      43.737 -18.395   4.436  1.00  0.00     0.067 A 
HETATM    2  C   UNL     1      43.495 -18.287   3.066  1.00  0.00     0.109 A 
HETATM    3  N   UNL     1      43.482 -19.379   2.246  1.00  0.00    -0.253 NA
HETATM    4  C   UNL     1      43.761 -20.585   2.791  1.00  0.00     0.118 A 
HETATM    5  C   UNL     1      44.032 -20.778   4.130  1.00  0.00     0.020 A 
HETATM    6  C   UNL     1      44.015 -19.667   4.965  1.00  0.00     0.021 A 
ENDROOT
BRANCH   2   7
HETATM    7  S   UNL     1      43.178 -16.768   2.192  1.00  0.00    -0.100 SA
BRANCH   7   8
HETATM    8  C   UNL     1      41.374 -16.691   2.356  1.00  0.00     0.184 C 
BRANCH   8   9
HETATM    9  C   UNL     1      40.720 -15.386   1.913  1.00  0.00     0.231 C 
HETATM   10  N   UNL     1      41.246 -14.808   0.771  1.00  0.00    -0.324 N 
HETATM   11  H   UNL     1      41.846 -15.421   0.219  1.00  0.00     0.169 HD
HETATM   12  O   UNL     1      39.696 -15.016   2.491  1.00  0.00    -0.272 OA
BRANCH  10  13
HETATM   13  C   UNL     1      40.739 -13.662   0.117  1.00  0.00     0.068 A 
HETATM   14  C   UNL     1      39.863 -13.688  -0.984  1.00  0.00     0.097 A 
HETATM   15  C   UNL     1      39.519 -12.482  -1.619  1.00  0.00     0.075 A 
HETATM   16  C   UNL     1      40.013 -11.262  -1.149  1.00  0.00     0.070 A 
HETATM   17  C   UNL     1      40.800 -11.239   0.000  1.00  0.00     0.039 A 
HETATM   18  C   UNL     1      41.153 -12.428   0.633  1.00  0.00     0.035 A 
BRANCH  14  19
HETATM   19  O   UNL     1      39.288 -14.892  -1.297  1.00  0.00    -0.354 OA
HETATM   20  C   UNL     1      38.789 -15.068  -2.614  1.00  0.00     0.210 C 
ENDBRANCH  14  19
BRANCH  16  21
HETATM   21  O   UNL     1      39.762 -10.033  -1.695  1.00  0.00    -0.356 OA
HETATM   22  C   UNL     1      40.681  -8.998  -1.369  1.00  0.00     0.210 C 
ENDBRANCH  16  21
ENDBRANCH  10  13
ENDBRANCH   8   9
ENDBRANCH   7   8
ENDBRANCH   2   7
BRANCH   1  23
HETATM   23  C   UNL     1      43.736 -17.237   5.363  1.00  0.00     0.254 C 
HETATM   24  N   UNL     1      42.492 -16.847   5.814  1.00  0.00    -0.353 N 
HETATM   25  H   UNL     1      41.652 -17.217   5.388  1.00  0.00     0.163 HD
HETATM   26  O   UNL     1      44.776 -16.699   5.712  1.00  0.00    -0.268 OA
BRANCH  24  27
HETATM   27  C   UNL     1      42.334 -15.723   6.711  1.00  0.00     0.161 C 
BRANCH  27  28
HETATM   28  C   UNL     1      41.693 -14.558   6.002  1.00  0.00    -0.041 A 
HETATM   29  C   UNL     1      42.406 -13.851   5.023  1.00  0.00     0.009 A 
HETATM   30  C   UNL     1      41.818 -12.781   4.346  1.00  0.00     0.007 A 
HETATM   31  C   UNL     1      40.506 -12.393   4.638  1.00  0.00    -0.062 A 
HETATM   32  C   UNL     1      39.849 -11.277   3.881  1.00  0.00     0.048 C 
HETATM   33  C   UNL     1      39.791 -13.100   5.612  1.00  0.00     0.007 A 
HETATM   34  C   UNL     1      40.380 -14.169   6.292  1.00  0.00     0.009 A 
ENDBRANCH  27  28
ENDBRANCH  24  27
ENDBRANCH   1  23
TORSDOF 9
ENDMDL
MODEL 4
REMARK VINA RESULT:      -8.2      1.710      2.758
REMARK  9 active torsions:
REMARK  status: ('A' for Active; 'I' for Inactive)
REMARK    1  A    between atoms: C_5  and  C_6 
REMARK    2  A    between atoms: C_6  and  N_7 
REMARK       I    between atoms: N_7  and  C_8 
REMARK    3  A    between atoms: C_8  and  C_9 
REMARK    4  A    between atoms: C_10  and  S_11 
REMARK    5  A    between atoms: S_11  and  C_12 
REMARK    6  A    between atoms: C_12  and  C_13 
REMARK       I    between atoms: C_13  and  N_14 
REMARK    7  A    between atoms: N_14  and  C_15 
REMARK    8  A    between atoms: C_16  and  O_17 
REMARK    9  A    between atoms: C_20  and  O_21 
ROOT
HETATM    1  C   UNL     1      42.865 -12.359   5.864  1.00  0.00     0.067 A 
HETATM    2  C   UNL     1      42.256 -11.113   6.028  1.00  0.00     0.109 A 
HETATM    3  N   UNL     1      42.759 -10.169   6.876  1.00  0.00    -0.253 NA
HETATM    4  C   UNL     1      43.853 -10.488   7.605  1.00  0.00     0.118 A 
HETATM    5  C   UNL     1      44.504 -11.702   7.520  1.00  0.00     0.020 A 
HETATM    6  C   UNL     1      44.004 -12.649   6.634  1.00  0.00     0.021 A 
ENDROOT
BRANCH   2   7
HETATM    7  S   UNL     1      40.779 -10.571   5.194  1.00  0.00    -0.100 SA
BRANCH   7   8
HETATM    8  C   UNL     1      41.503  -9.985   3.638  1.00  0.00     0.184 C 
BRANCH   8   9
HETATM    9  C   UNL     1      41.551 -11.000   2.501  1.00  0.00     0.231 C 
HETATM   10  N   UNL     1      40.337 -11.292   1.906  1.00  0.00    -0.324 N 
HETATM   11  H   UNL     1      39.585 -10.637   2.122  1.00  0.00     0.169 HD
HETATM   12  O   UNL     1      42.653 -11.372   2.091  1.00  0.00    -0.272 OA
BRANCH  10  13
HETATM   13  C   UNL     1      40.150 -12.117   0.773  1.00  0.00     0.068 A 
HETATM   14  C   UNL     1      39.927 -13.505   0.818  1.00  0.00     0.097 A 
HETATM   15  C   UNL     1      39.868 -14.233  -0.384  1.00  0.00     0.075 A 
HETATM   16  C   UNL     1      39.998 -13.587  -1.616  1.00  0.00     0.070 A 
HETATM   17  C   UNL     1      40.120 -12.200  -1.653  1.00  0.00     0.039 A 
HETATM   18  C   UNL     1      40.187 -11.469  -0.469  1.00  0.00     0.035 A 
BRANCH  14  19
HETATM   19  O   UNL     1      39.649 -14.053   2.043  1.00  0.00    -0.354 OA
HETATM   20  C   UNL     1      39.705 -15.467   2.166  1.00  0.00     0.210 C 
ENDBRANCH  14  19
BRANCH  16  21
HETATM   21  O   UNL     1      39.976 -14.192  -2.843  1.00  0.00    -0.356 OA
HETATM   22  C   UNL     1      38.809 -14.943  -3.155  1.00  0.00     0.210 C 
ENDBRANCH  16  21
ENDBRANCH  10  13
ENDBRANCH   8   9
ENDBRANCH   7   8
ENDBRANCH   2   7
BRANCH   1  23
HETATM   23  C   UNL     1      42.362 -13.401   4.936  1.00  0.00     0.254 C 
HETATM   24  N   UNL     1      43.283 -13.863   4.018  1.00  0.00    -0.353 N 
HETATM   25  H   UNL     1      44.163 -13.381   3.888  1.00  0.00     0.163 HD
HETATM   26  O   UNL     1      41.220 -13.828   5.015  1.00  0.00    -0.268 OA
BRANCH  24  27
HETATM   27  C   UNL     1      42.932 -14.869   3.040  1.00  0.00     0.161 C 
BRANCH  27  28
HETATM   28  C   UNL     1      43.321 -16.243   3.523  1.00  0.00    -0.041 A 
HETATM   29  C   UNL     1      43.686 -16.442   4.862  1.00  0.00     0.009 A 
HETATM   30  C   UNL     1      44.031 -17.713   5.326  1.00  0.00     0.007 A 
HETATM   31  C   UNL     1      44.023 -18.809   4.457  1.00  0.00    -0.062 A 
HETATM   32  C   UNL     1      44.343 -20.188   4.958  1.00  0.00     0.048 C 
HETATM   33  C   UNL     1      43.654 -18.615   3.121  1.00  0.00     0.007 A 
HETATM   34  C   UNL     1      43.311 -17.343   2.656  1.00  0.00     0.009 A 
ENDBRANCH  27  28
ENDBRANCH  24  27
ENDBRANCH   1  23
TORSDOF 9
ENDMDL
MODEL 5
REMARK VINA RESULT:      -8.2      4.055      8.364
REMARK  9 active torsions:
REMARK  status: ('A' for Active; 'I' for Inactive)
REMARK    1  A    between atoms: C_5  and  C_6 
REMARK    2  A    between atoms: C_6  and  N_7 
REMARK       I    between atoms: N_7  and  C_8 
REMARK    3  A    between atoms: C_8  and  C_9 
REMARK    4  A    between atoms: C_10  and  S_11 
REMARK    5  A    between atoms: S_11  and  C_12 
REMARK    6  A    between atoms: C_12  and  C_13 
REMARK       I    between atoms: C_13  and  N_14 
REMARK    7  A    between atoms: N_14  and  C_15 
REMARK    8  A    between atoms: C_16  and  O_17 
REMARK    9  A    between atoms: C_20  and  O_21 
ROOT
HETATM    1  C   UNL     1      41.563 -12.823   4.411  1.00  0.00     0.067 A 
HETATM    2  C   UNL     1      42.132 -11.925   5.316  1.00  0.00     0.109 A 
HETATM    3  N   UNL     1      41.383 -11.271   6.252  1.00  0.00    -0.253 NA
HETATM    4  C   UNL     1      40.046 -11.478   6.253  1.00  0.00     0.118 A 
HETATM    5  C   UNL     1      39.401 -12.330   5.380  1.00  0.00     0.020 A 
HETATM    6  C   UNL     1      40.172 -13.015   4.449  1.00  0.00     0.021 A 
ENDROOT
BRANCH   2   7
HETATM    7  S   UNL     1      43.859 -11.499   5.397  1.00  0.00    -0.100 SA
BRANCH   7   8
HETATM    8  C   UNL     1      44.243 -12.092   7.067  1.00  0.00     0.184 C 
BRANCH   8   9
HETATM    9  C   UNL     1      44.357 -11.020   8.145  1.00  0.00     0.231 C 
HETATM   10  N   UNL     1      43.184 -10.358   8.460  1.00  0.00    -0.324 N 
HETATM   11  H   UNL     1      42.334 -10.807   8.118  1.00  0.00     0.169 HD
HETATM   12  O   UNL     1      45.420 -10.916   8.761  1.00  0.00    -0.272 OA
BRANCH  10  13
HETATM   13  C   UNL     1      43.024  -9.406   9.493  1.00  0.00     0.068 A 
HETATM   14  C   UNL     1      43.132  -8.013   9.326  1.00  0.00     0.097 A 
HETATM   15  C   UNL     1      43.064  -7.176  10.453  1.00  0.00     0.075 A 
HETATM   16  C   UNL     1      42.859  -7.712  11.727  1.00  0.00     0.070 A 
HETATM   17  C   UNL     1      42.656  -9.083  11.870  1.00  0.00     0.039 A 
HETATM   18  C   UNL     1      42.729  -9.922  10.761  1.00  0.00     0.035 A 
BRANCH  14  19
HETATM   19  O   UNL     1      43.170  -7.540   8.040  1.00  0.00    -0.354 OA
HETATM   20  C   UNL     1      42.168  -6.615   7.644  1.00  0.00     0.210 C 
ENDBRANCH  14  19
BRANCH  16  21
HETATM   21  O   UNL     1      42.795  -7.000  12.894  1.00  0.00    -0.356 OA
HETATM   22  C   UNL     1      42.663  -7.758  14.090  1.00  0.00     0.210 C 
ENDBRANCH  16  21
ENDBRANCH  10  13
ENDBRANCH   8   9
ENDBRANCH   7   8
ENDBRANCH   2   7
BRANCH   1  23
HETATM   23  C   UNL     1      42.346 -13.569   3.396  1.00  0.00     0.254 C 
HETATM   24  N   UNL     1      42.413 -14.933   3.593  1.00  0.00    -0.353 N 
HETATM   25  H   UNL     1      42.104 -15.341   4.466  1.00  0.00     0.163 HD
HETATM   26  O   UNL     1      42.861 -13.002   2.444  1.00  0.00    -0.268 OA
BRANCH  24  27
HETATM   27  C   UNL     1      43.154 -15.789   2.692  1.00  0.00     0.161 C 
BRANCH  27  28
HETATM   28  C   UNL     1      43.465 -17.111   3.344  1.00  0.00    -0.041 A 
HETATM   29  C   UNL     1      43.634 -17.189   4.734  1.00  0.00     0.009 A 
HETATM   30  C   UNL     1      43.904 -18.411   5.353  1.00  0.00     0.007 A 
HETATM   31  C   UNL     1      44.017 -19.579   4.593  1.00  0.00    -0.062 A 
HETATM   32  C   UNL     1      44.257 -20.905   5.254  1.00  0.00     0.048 C 
HETATM   33  C   UNL     1      43.844 -19.506   3.206  1.00  0.00     0.007 A 
HETATM   34  C   UNL     1      43.576 -18.283   2.586  1.00  0.00     0.009 A 
ENDBRANCH  27  28
ENDBRANCH  24  27
ENDBRANCH   1  23
TORSDOF 9
ENDMDL
MODEL 6
REMARK VINA RESULT:      -8.1      1.985      5.116
REMARK  9 active torsions:
REMARK  status: ('A' for Active; 'I' for Inactive)
REMARK    1  A    between atoms: C_5  and  C_6 
REMARK    2  A    between atoms: C_6  and  N_7 
REMARK       I    between atoms: N_7  and  C_8 
REMARK    3  A    between atoms: C_8  and  C_9 
REMARK    4  A    between atoms: C_10  and  S_11 
REMARK    5  A    between atoms: S_11  and  C_12 
REMARK    6  A    between atoms: C_12  and  C_13 
REMARK       I    between atoms: C_13  and  N_14 
REMARK    7  A    between atoms: N_14  and  C_15 
REMARK    8  A    between atoms: C_16  and  O_17 
REMARK    9  A    between atoms: C_20  and  O_21 
ROOT
HETATM    1  C   UNL     1      43.775 -18.458   4.335  1.00  0.00     0.067 A 
HETATM    2  C   UNL     1      43.434 -18.167   3.013  1.00  0.00     0.109 A 
HETATM    3  N   UNL     1      43.317 -19.143   2.066  1.00  0.00    -0.253 NA
HETATM    4  C   UNL     1      43.591 -20.417   2.429  1.00  0.00     0.118 A 
HETATM    5  C   UNL     1      43.956 -20.789   3.707  1.00  0.00     0.020 A 
HETATM    6  C   UNL     1      44.045 -19.795   4.674  1.00  0.00     0.021 A 
ENDROOT
BRANCH   2   7
HETATM    7  S   UNL     1      43.109 -16.540   2.367  1.00  0.00    -0.100 SA
BRANCH   7   8
HETATM    8  C   UNL     1      41.344 -16.400   2.761  1.00  0.00     0.184 C 
BRANCH   8   9
HETATM    9  C   UNL     1      40.588 -15.288   2.042  1.00  0.00     0.231 C 
HETATM   10  N   UNL     1      40.933 -15.086   0.718  1.00  0.00    -0.324 N 
HETATM   11  H   UNL     1      41.477 -15.840   0.297  1.00  0.00     0.169 HD
HETATM   12  O   UNL     1      39.636 -14.757   2.619  1.00  0.00    -0.272 OA
BRANCH  10  13
HETATM   13  C   UNL     1      40.299 -14.191  -0.174  1.00  0.00     0.068 A 
HETATM   14  C   UNL     1      40.478 -12.795  -0.172  1.00  0.00     0.097 A 
HETATM   15  C   UNL     1      39.704 -12.000  -1.037  1.00  0.00     0.075 A 
HETATM   16  C   UNL     1      38.787 -12.586  -1.913  1.00  0.00     0.070 A 
HETATM   17  C   UNL     1      38.689 -13.974  -1.976  1.00  0.00     0.039 A 
HETATM   18  C   UNL     1      39.445 -14.770  -1.119  1.00  0.00     0.035 A 
BRANCH  14  19
HETATM   19  O   UNL     1      41.502 -12.297   0.591  1.00  0.00    -0.354 OA
HETATM   20  C   UNL     1      41.165 -11.467   1.693  1.00  0.00     0.210 C 
ENDBRANCH  14  19
BRANCH  16  21
HETATM   21  O   UNL     1      37.971 -11.914  -2.782  1.00  0.00    -0.356 OA
HETATM   22  C   UNL     1      38.288 -10.548  -3.018  1.00  0.00     0.210 C 
ENDBRANCH  16  21
ENDBRANCH  10  13
ENDBRANCH   8   9
ENDBRANCH   7   8
ENDBRANCH   2   7
BRANCH   1  23
HETATM   23  C   UNL     1      43.889 -17.429   5.397  1.00  0.00     0.254 C 
HETATM   24  N   UNL     1      42.748 -17.229   6.146  1.00  0.00    -0.353 N 
HETATM   25  H   UNL     1      41.866 -17.628   5.852  1.00  0.00     0.163 HD
HETATM   26  O   UNL     1      44.937 -16.834   5.598  1.00  0.00    -0.268 OA
BRANCH  24  27
HETATM   27  C   UNL     1      42.705 -16.247   7.207  1.00  0.00     0.161 C 
BRANCH  27  28
HETATM   28  C   UNL     1      42.074 -14.966   6.726  1.00  0.00    -0.041 A 
HETATM   29  C   UNL     1      42.861 -13.822   6.534  1.00  0.00     0.009 A 
HETATM   30  C   UNL     1      42.292 -12.633   6.071  1.00  0.00     0.007 A 
HETATM   31  C   UNL     1      40.922 -12.565   5.797  1.00  0.00    -0.062 A 
HETATM   32  C   UNL     1      40.311 -11.307   5.252  1.00  0.00     0.048 C 
HETATM   33  C   UNL     1      40.135 -13.707   5.983  1.00  0.00     0.007 A 
HETATM   34  C   UNL     1      40.703 -14.895   6.449  1.00  0.00     0.009 A 
ENDBRANCH  27  28
ENDBRANCH  24  27
ENDBRANCH   1  23
TORSDOF 9
ENDMDL
MODEL 7
REMARK VINA RESULT:      -8.1      2.292      6.731
REMARK  9 active torsions:
REMARK  status: ('A' for Active; 'I' for Inactive)
REMARK    1  A    between atoms: C_5  and  C_6 
REMARK    2  A    between atoms: C_6  and  N_7 
REMARK       I    between atoms: N_7  and  C_8 
REMARK    3  A    between atoms: C_8  and  C_9 
REMARK    4  A    between atoms: C_10  and  S_11 
REMARK    5  A    between atoms: S_11  and  C_12 
REMARK    6  A    between atoms: C_12  and  C_13 
REMARK       I    between atoms: C_13  and  N_14 
REMARK    7  A    between atoms: N_14  and  C_15 
REMARK    8  A    between atoms: C_16  and  O_17 
REMARK    9  A    between atoms: C_20  and  O_21 
ROOT
HETATM    1  C   UNL     1      40.649 -13.476   0.859  1.00  0.00     0.067 A 
HETATM    2  C   UNL     1      39.663 -12.495   0.976  1.00  0.00     0.109 A 
HETATM    3  N   UNL     1      38.695 -12.327   0.028  1.00  0.00    -0.253 NA
HETATM    4  C   UNL     1      38.738 -13.113  -1.071  1.00  0.00     0.118 A 
HETATM    5  C   UNL     1      39.690 -14.092  -1.277  1.00  0.00     0.020 A 
HETATM    6  C   UNL     1      40.656 -14.278  -0.295  1.00  0.00     0.021 A 
ENDROOT
BRANCH   2   7
HETATM    7  S   UNL     1      39.511 -11.344   2.326  1.00  0.00    -0.100 SA
BRANCH   7   8
HETATM    8  C   UNL     1      39.075 -12.491   3.661  1.00  0.00     0.184 C 
BRANCH   8   9
HETATM    9  C   UNL     1      39.950 -12.426   4.908  1.00  0.00     0.231 C 
HETATM   10  N   UNL     1      41.207 -11.876   4.731  1.00  0.00    -0.324 N 
HETATM   11  H   UNL     1      41.331 -11.363   3.858  1.00  0.00     0.169 HD
HETATM   12  O   UNL     1      39.447 -12.716   5.995  1.00  0.00    -0.272 OA
BRANCH  10  13
HETATM   13  C   UNL     1      42.147 -11.616   5.755  1.00  0.00     0.068 A 
HETATM   14  C   UNL     1      42.137 -10.480   6.585  1.00  0.00     0.097 A 
HETATM   15  C   UNL     1      43.192 -10.280   7.493  1.00  0.00     0.075 A 
HETATM   16  C   UNL     1      44.228 -11.212   7.597  1.00  0.00     0.070 A 
HETATM   17  C   UNL     1      44.178 -12.381   6.841  1.00  0.00     0.039 A 
HETATM   18  C   UNL     1      43.141 -12.586   5.934  1.00  0.00     0.035 A 
BRANCH  14  19
HETATM   19  O   UNL     1      41.017  -9.690   6.549  1.00  0.00    -0.354 OA
HETATM   20  C   UNL     1      40.185  -9.665   7.699  1.00  0.00     0.210 C 
ENDBRANCH  14  19
BRANCH  16  21
HETATM   21  O   UNL     1      45.311 -11.114   8.427  1.00  0.00    -0.356 OA
HETATM   22  C   UNL     1      46.456 -10.457   7.896  1.00  0.00     0.210 C 
ENDBRANCH  16  21
ENDBRANCH  10  13
ENDBRANCH   8   9
ENDBRANCH   7   8
ENDBRANCH   2   7
BRANCH   1  23
HETATM   23  C   UNL     1      41.703 -13.705   1.877  1.00  0.00     0.254 C 
HETATM   24  N   UNL     1      41.640 -14.922   2.524  1.00  0.00    -0.353 N 
HETATM   25  H   UNL     1      40.824 -15.513   2.427  1.00  0.00     0.163 HD
HETATM   26  O   UNL     1      42.573 -12.875   2.091  1.00  0.00    -0.268 OA
BRANCH  24  27
HETATM   27  C   UNL     1      42.592 -15.280   3.552  1.00  0.00     0.161 C 
BRANCH  27  28
HETATM   28  C   UNL     1      42.963 -16.737   3.455  1.00  0.00    -0.041 A 
HETATM   29  C   UNL     1      43.666 -17.356   4.498  1.00  0.00     0.009 A 
HETATM   30  C   UNL     1      43.999 -18.711   4.429  1.00  0.00     0.007 A 
HETATM   31  C   UNL     1      43.640 -19.471   3.312  1.00  0.00    -0.062 A 
HETATM   32  C   UNL     1      43.949 -20.939   3.251  1.00  0.00     0.048 C 
HETATM   33  C   UNL     1      42.934 -18.857   2.271  1.00  0.00     0.007 A 
HETATM   34  C   UNL     1      42.602 -17.502   2.339  1.00  0.00     0.009 A 
ENDBRANCH  27  28
ENDBRANCH  24  27
ENDBRANCH   1  23
TORSDOF 9
ENDMDL
MODEL 8
REMARK VINA RESULT:      -8.0      4.605      8.704
REMARK  9 active torsions:
REMARK  status: ('A' for Active; 'I' for Inactive)
REMARK    1  A    between atoms: C_5  and  C_6 
REMARK    2  A    between atoms: C_6  and  N_7 
REMARK       I    between atoms: N_7  and  C_8 
REMARK    3  A    between atoms: C_8  and  C_9 
REMARK    4  A    between atoms: C_10  and  S_11 
REMARK    5  A    between atoms: S_11  and  C_12 
REMARK    6  A    between atoms: C_12  and  C_13 
REMARK       I    between atoms: C_13  and  N_14 
REMARK    7  A    between atoms: N_14  and  C_15 
REMARK    8  A    between atoms: C_16  and  O_17 
REMARK    9  A    between atoms: C_20  and  O_21 
ROOT
HETATM    1  C   UNL     1      42.779  -9.393   7.373  1.00  0.00     0.067 A 
HETATM    2  C   UNL     1      42.509 -10.243   6.299  1.00  0.00     0.109 A 
HETATM    3  N   UNL     1      41.798  -9.826   5.210  1.00  0.00    -0.253 NA
HETATM    4  C   UNL     1      41.310  -8.565   5.214  1.00  0.00     0.118 A 
HETATM    5  C   UNL     1      41.512  -7.668   6.244  1.00  0.00     0.020 A 
HETATM    6  C   UNL     1      42.261  -8.087   7.337  1.00  0.00     0.021 A 
ENDROOT
BRANCH   2   7
HETATM    7  S   UNL     1      43.024 -11.943   6.175  1.00  0.00    -0.100 SA
BRANCH   7   8
HETATM    8  C   UNL     1      42.011 -12.469   4.766  1.00  0.00     0.184 C 
BRANCH   8   9
HETATM    9  C   UNL     1      41.903 -13.974   4.549  1.00  0.00     0.231 C 
HETATM   10  N   UNL     1      43.002 -14.577   3.964  1.00  0.00    -0.324 N 
HETATM   11  H   UNL     1      43.849 -14.007   3.955  1.00  0.00     0.169 HD
HETATM   12  O   UNL     1      40.938 -14.570   5.032  1.00  0.00    -0.272 OA
BRANCH  10  13
HETATM   13  C   UNL     1      43.173 -15.966   3.763  1.00  0.00     0.068 A 
HETATM   14  C   UNL     1      43.722 -16.853   4.708  1.00  0.00     0.097 A 
HETATM   15  C   UNL     1      43.944 -18.194   4.346  1.00  0.00     0.075 A 
HETATM   16  C   UNL     1      43.597 -18.655   3.074  1.00  0.00     0.070 A 
HETATM   17  C   UNL     1      42.965 -17.794   2.180  1.00  0.00     0.039 A 
HETATM   18  C   UNL     1      42.747 -16.462   2.525  1.00  0.00     0.035 A 
BRANCH  14  19
HETATM   19  O   UNL     1      43.890 -16.381   5.983  1.00  0.00    -0.354 OA
HETATM   20  C   UNL     1      43.317 -17.125   7.047  1.00  0.00     0.210 C 
ENDBRANCH  14  19
BRANCH  16  21
HETATM   21  O   UNL     1      43.783 -19.928   2.607  1.00  0.00    -0.356 OA
HETATM   22  C   UNL     1      43.914 -20.948   3.590  1.00  0.00     0.210 C 
ENDBRANCH  16  21
ENDBRANCH  10  13
ENDBRANCH   8   9
ENDBRANCH   7   8
ENDBRANCH   2   7
BRANCH   1  23
HETATM   23  C   UNL     1      43.566  -9.801   8.563  1.00  0.00     0.254 C 
HETATM   24  N   UNL     1      42.822 -10.101   9.685  1.00  0.00    -0.353 N 
HETATM   25  H   UNL     1      41.837  -9.873   9.723  1.00  0.00     0.163 HD
HETATM   26  O   UNL     1      44.785  -9.887   8.521  1.00  0.00    -0.268 OA
BRANCH  24  27
HETATM   27  C   UNL     1      43.454 -10.500  10.923  1.00  0.00     0.161 C 
BRANCH  27  28
HETATM   28  C   UNL     1      43.021  -9.606  12.057  1.00  0.00    -0.041 A 
HETATM   29  C   UNL     1      41.980 -10.003  12.909  1.00  0.00     0.009 A 
HETATM   30  C   UNL     1      41.582  -9.192  13.974  1.00  0.00     0.007 A 
HETATM   31  C   UNL     1      42.213  -7.966  14.205  1.00  0.00    -0.062 A 
HETATM   32  C   UNL     1      41.826  -7.112  15.376  1.00  0.00     0.048 C 
HETATM   33  C   UNL     1      43.256  -7.569  13.359  1.00  0.00     0.007 A 
HETATM   34  C   UNL     1      43.653  -8.379  12.292  1.00  0.00     0.009 A 
ENDBRANCH  27  28
ENDBRANCH  24  27
ENDBRANCH   1  23
TORSDOF 9
ENDMDL
MODEL 9
REMARK VINA RESULT:      -8.0      4.839      8.667
REMARK  9 active torsions:
REMARK  status: ('A' for Active; 'I' for Inactive)
REMARK    1  A    between atoms: C_5  and  C_6 
REMARK    2  A    between atoms: C_6  and  N_7 
REMARK       I    between atoms: N_7  and  C_8 
REMARK    3  A    between atoms: C_8  and  C_9 
REMARK    4  A    between atoms: C_10  and  S_11 
REMARK    5  A    between atoms: S_11  and  C_12 
REMARK    6  A    between atoms: C_12  and  C_13 
REMARK       I    between atoms: C_13  and  N_14 
REMARK    7  A    between atoms: N_14  and  C_15 
REMARK    8  A    between atoms: C_16  and  O_17 
REMARK    9  A    between atoms: C_20  and  O_21 
ROOT
HETATM    1  C   UNL     1      43.827 -11.236   5.720  1.00  0.00     0.067 A 
HETATM    2  C   UNL     1      43.016 -10.296   6.359  1.00  0.00     0.109 A 
HETATM    3  N   UNL     1      43.319  -9.804   7.595  1.00  0.00    -0.253 NA
HETATM    4  C   UNL     1      44.414 -10.290   8.222  1.00  0.00     0.118 A 
HETATM    5  C   UNL     1      45.256 -11.236   7.673  1.00  0.00     0.020 A 
HETATM    6  C   UNL     1      44.960 -11.712   6.401  1.00  0.00     0.021 A 
ENDROOT
BRANCH   2   7
HETATM    7  S   UNL     1      41.513  -9.611   5.695  1.00  0.00    -0.100 SA
BRANCH   7   8
HETATM    8  C   UNL     1      40.299 -10.467   6.735  1.00  0.00     0.184 C 
BRANCH   8   9
HETATM    9  C   UNL     1      39.873  -9.734   8.002  1.00  0.00     0.231 C 
HETATM   10  N   UNL     1      40.722  -9.865   9.086  1.00  0.00    -0.324 N 
HETATM   11  H   UNL     1      41.647 -10.234   8.863  1.00  0.00     0.169 HD
HETATM   12  O   UNL     1      38.909  -8.967   7.941  1.00  0.00    -0.272 OA
BRANCH  10  13
HETATM   13  C   UNL     1      40.590  -9.195  10.324  1.00  0.00     0.068 A 
HETATM   14  C   UNL     1      41.189  -7.961  10.638  1.00  0.00     0.097 A 
HETATM   15  C   UNL     1      41.075  -7.452  11.944  1.00  0.00     0.075 A 
HETATM   16  C   UNL     1      40.349  -8.143  12.917  1.00  0.00     0.070 A 
HETATM   17  C   UNL     1      39.678  -9.314  12.570  1.00  0.00     0.039 A 
HETATM   18  C   UNL     1      39.790  -9.831  11.282  1.00  0.00     0.035 A 
BRANCH  14  19
HETATM   19  O   UNL     1      41.749  -7.258   9.604  1.00  0.00    -0.354 OA
HETATM   20  C   UNL     1      43.119  -6.901   9.708  1.00  0.00     0.210 C 
ENDBRANCH  14  19
BRANCH  16  21
HETATM   21  O   UNL     1      40.186  -7.756  14.220  1.00  0.00    -0.356 OA
HETATM   22  C   UNL     1      41.367  -7.691  15.011  1.00  0.00     0.210 C 
ENDBRANCH  16  21
ENDBRANCH  10  13
ENDBRANCH   8   9
ENDBRANCH   7   8
ENDBRANCH   2   7
BRANCH   1  23
HETATM   23  C   UNL     1      43.544 -11.777   4.368  1.00  0.00     0.254 C 
HETATM   24  N   UNL     1      42.743 -12.900   4.340  1.00  0.00    -0.353 N 
HETATM   25  H   UNL     1      42.534 -13.402   5.193  1.00  0.00     0.163 HD
HETATM   26  O   UNL     1      43.976 -11.235   3.361  1.00  0.00    -0.268 OA
BRANCH  24  27
HETATM   27  C   UNL     1      42.395 -13.547   3.094  1.00  0.00     0.161 C 
BRANCH  27  28
HETATM   28  C   UNL     1      42.777 -15.004   3.122  1.00  0.00    -0.041 A 
HETATM   29  C   UNL     1      42.875 -15.730   1.926  1.00  0.00     0.009 A 
HETATM   30  C   UNL     1      43.246 -17.077   1.937  1.00  0.00     0.007 A 
HETATM   31  C   UNL     1      43.521 -17.725   3.146  1.00  0.00    -0.062 A 
HETATM   32  C   UNL     1      43.969 -19.157   3.164  1.00  0.00     0.048 C 
HETATM   33  C   UNL     1      43.429 -17.001   4.341  1.00  0.00     0.007 A 
HETATM   34  C   UNL     1      43.055 -15.655   4.330  1.00  0.00     0.009 A 
ENDBRANCH  27  28
ENDBRANCH  24  27
ENDBRANCH   1  23
TORSDOF 9
ENDMDL
MODEL 10
REMARK VINA RESULT:      -8.0      2.458      3.440
REMARK  9 active torsions:
REMARK  status: ('A' for Active; 'I' for Inactive)
REMARK    1  A    between atoms: C_5  and  C_6 
REMARK    2  A    between atoms: C_6  and  N_7 
REMARK       I    between atoms: N_7  and  C_8 
REMARK    3  A    between atoms: C_8  and  C_9 
REMARK    4  A    between atoms: C_10  and  S_11 
REMARK    5  A    between atoms: S_11  and  C_12 
REMARK    6  A    between atoms: C_12  and  C_13 
REMARK       I    between atoms: C_13  and  N_14 
REMARK    7  A    between atoms: N_14  and  C_15 
REMARK    8  A    between atoms: C_16  and  O_17 
REMARK    9  A    between atoms: C_20  and  O_21 
ROOT
HETATM    1  C   UNL     1      40.533 -13.675   4.430  1.00  0.00     0.067 A 
HETATM    2  C   UNL     1      39.884 -13.825   3.204  1.00  0.00     0.109 A 
HETATM    3  N   UNL     1      39.194 -12.801   2.622  1.00  0.00    -0.253 NA
HETATM    4  C   UNL     1      39.110 -11.629   3.293  1.00  0.00     0.118 A 
HETATM    5  C   UNL     1      39.702 -11.403   4.519  1.00  0.00     0.020 A 
HETATM    6  C   UNL     1      40.428 -12.440   5.093  1.00  0.00     0.021 A 
ENDROOT
BRANCH   2   7
HETATM    7  S   UNL     1      39.847 -15.317   2.233  1.00  0.00    -0.100 SA
BRANCH   7   8
HETATM    8  C   UNL     1      40.872 -14.797   0.830  1.00  0.00     0.184 C 
BRANCH   8   9
HETATM    9  C   UNL     1      40.149 -14.035  -0.276  1.00  0.00     0.231 C 
HETATM   10  N   UNL     1      40.339 -12.665  -0.285  1.00  0.00    -0.324 N 
HETATM   11  H   UNL     1      41.116 -12.337   0.290  1.00  0.00     0.169 HD
HETATM   12  O   UNL     1      39.581 -14.681  -1.160  1.00  0.00    -0.272 OA
BRANCH  10  13
HETATM   13  C   UNL     1      39.860 -11.771  -1.270  1.00  0.00     0.068 A 
HETATM   14  C   UNL     1      38.522 -11.350  -1.389  1.00  0.00     0.097 A 
HETATM   15  C   UNL     1      38.148 -10.546  -2.480  1.00  0.00     0.075 A 
HETATM   16  C   UNL     1      39.095 -10.139  -3.423  1.00  0.00     0.070 A 
HETATM   17  C   UNL     1      40.433 -10.479  -3.243  1.00  0.00     0.039 A 
HETATM   18  C   UNL     1      40.814 -11.282  -2.169  1.00  0.00     0.035 A 
BRANCH  14  19
HETATM   19  O   UNL     1      37.679 -11.648  -0.350  1.00  0.00    -0.354 OA
HETATM   20  C   UNL     1      37.058 -10.567   0.330  1.00  0.00     0.210 C 
ENDBRANCH  14  19
BRANCH  16  21
HETATM   21  O   UNL     1      38.843  -9.375  -4.531  1.00  0.00    -0.356 OA
HETATM   22  C   UNL     1      37.484  -9.020  -4.757  1.00  0.00     0.210 C 
ENDBRANCH  16  21
ENDBRANCH  10  13
ENDBRANCH   8   9
ENDBRANCH   7   8
ENDBRANCH   2   7
BRANCH   1  23
HETATM   23  C   UNL     1      41.311 -14.756   5.083  1.00  0.00     0.254 C 
HETATM   24  N   UNL     1      42.638 -14.831   4.712  1.00  0.00    -0.353 N 
HETATM   25  H   UNL     1      42.979 -14.301   3.921  1.00  0.00     0.163 HD
HETATM   26  O   UNL     1      40.802 -15.498   5.910  1.00  0.00    -0.268 OA
BRANCH  24  27
HETATM   27  C   UNL     1      43.516 -15.844   5.256  1.00  0.00     0.161 C 
BRANCH  27  28
HETATM   28  C   UNL     1      43.574 -17.045   4.348  1.00  0.00    -0.041 A 
HETATM   29  C   UNL     1      44.096 -18.259   4.817  1.00  0.00     0.009 A 
HETATM   30  C   UNL     1      44.138 -19.384   3.992  1.00  0.00     0.007 A 
HETATM   31  C   UNL     1      43.664 -19.316   2.678  1.00  0.00    -0.062 A 
HETATM   32  C   UNL     1      43.660 -20.533   1.799  1.00  0.00     0.048 C 
HETATM   33  C   UNL     1      43.139 -18.107   2.207  1.00  0.00     0.007 A 
HETATM   34  C   UNL     1      43.098 -16.980   3.032  1.00  0.00     0.009 A 
ENDBRANCH  27  28
ENDBRANCH  24  27
ENDBRANCH   1  23
TORSDOF 9
ENDMDL
