MODEL 1
REMARK VINA RESULT:      -8.1      0.000      0.000
REMARK  4 active torsions:
REMARK  status: ('A' for Active; 'I' for Inactive)
REMARK    1  A    between atoms: C_2  and  C_3 
REMARK    2  A    between atoms: C_4  and  N_5 
REMARK       I    between atoms: N_5  and  C_6 
REMARK    3  A    between atoms: C_6  and  C_7 
REMARK    4  A    between atoms: C_19  and  C_20 
ROOT
HETATM    1  N   UNL     1      41.236 -16.043   3.002  1.00  0.00    -0.321 N 
HETATM    2  C   UNL     1      42.617 -16.170   2.923  1.00  0.00     0.277 C 
HETATM    3  O   UNL     1      43.431 -15.265   2.819  1.00  0.00    -0.266 OA
HETATM    4  H   UNL     1      40.809 -16.834   3.467  1.00  0.00     0.169 HD
ENDROOT
BRANCH   2   5
HETATM    5  C   UNL     1      43.080 -17.624   3.082  1.00  0.00     0.156 A 
HETATM    6  N   UNL     1      43.258 -18.274   1.963  1.00  0.00    -0.166 NA
HETATM    7  N   UNL     1      43.628 -19.582   2.027  1.00  0.00    -0.242 N 
HETATM    8  C   UNL     1      43.800 -20.317   3.174  1.00  0.00     0.272 A 
HETATM    9  H   UNL     1      43.736 -20.075   1.146  1.00  0.00     0.192 HD
HETATM   10  O   UNL     1      44.090 -21.508   3.150  1.00  0.00    -0.266 OA
HETATM   11  C   UNL     1      43.632 -19.588   4.443  1.00  0.00     0.046 A 
HETATM   12  C   UNL     1      43.296 -18.233   4.416  1.00  0.00     0.016 A 
HETATM   13  C   UNL     1      43.829 -20.256   5.658  1.00  0.00     0.018 A 
HETATM   14  C   UNL     1      43.192 -17.538   5.626  1.00  0.00     0.015 A 
HETATM   15  C   UNL     1      43.389 -18.203   6.841  1.00  0.00     0.001 A 
HETATM   16  C   UNL     1      43.702 -19.561   6.859  1.00  0.00     0.001 A 
ENDBRANCH   2   5
BRANCH   1  17
HETATM   17  C   UNL     1      40.612 -14.781   3.064  1.00  0.00     0.049 A 
HETATM   18  C   UNL     1      40.113 -14.228   1.850  1.00  0.00    -0.031 A 
HETATM   19  C   UNL     1      39.524 -12.955   1.856  1.00  0.00     0.011 A 
HETATM   20  C   UNL     1      39.405 -12.243   3.037  1.00  0.00     0.025 A 
HETATM   21  C   UNL     1      39.845 -12.806   4.235  1.00  0.00     0.042 A 
HETATM   22  C   UNL     1      40.442 -14.096   4.295  1.00  0.00    -0.009 A 
HETATM   23 CL   UNL     1      39.632 -11.813   5.648  1.00  0.00    -0.084 Cl
BRANCH  18  24
HETATM   24  C   UNL     1      40.044 -14.998   0.543  1.00  0.00     0.036 C 
HETATM   25  C   UNL     1      39.972 -14.058  -0.653  1.00  0.00     0.010 C 
ENDBRANCH  18  24
BRANCH  22  26
HETATM   26  C   UNL     1      40.907 -14.548   5.674  1.00  0.00     0.038 C 
HETATM   27  C   UNL     1      40.219 -15.642   6.474  1.00  0.00     0.010 C 
ENDBRANCH  22  26
ENDBRANCH   1  17
TORSDOF 4
ENDMDL
MODEL 2
REMARK VINA RESULT:      -8.1      2.741      6.695
REMARK  4 active torsions:
REMARK  status: ('A' for Active; 'I' for Inactive)
REMARK    1  A    between atoms: C_2  and  C_3 
REMARK    2  A    between atoms: C_4  and  N_5 
REMARK       I    between atoms: N_5  and  C_6 
REMARK    3  A    between atoms: C_6  and  C_7 
REMARK    4  A    between atoms: C_19  and  C_20 
ROOT
HETATM    1  N   UNL     1      42.364 -16.039   2.439  1.00  0.00    -0.321 N 
HETATM    2  C   UNL     1      41.011 -15.730   2.494  1.00  0.00     0.277 C 
HETATM    3  O   UNL     1      40.215 -16.079   3.351  1.00  0.00    -0.266 OA
HETATM    4  H   UNL     1      42.887 -15.356   1.907  1.00  0.00     0.169 HD
ENDROOT
BRANCH   2   5
HETATM    5  C   UNL     1      40.583 -14.776   1.371  1.00  0.00     0.156 A 
HETATM    6  N   UNL     1      39.872 -15.321   0.421  1.00  0.00    -0.166 NA
HETATM    7  N   UNL     1      39.493 -14.544  -0.629  1.00  0.00    -0.242 N 
HETATM    8  C   UNL     1      39.821 -13.224  -0.818  1.00  0.00     0.272 A 
HETATM    9  H   UNL     1      38.962 -14.995  -1.369  1.00  0.00     0.192 HD
HETATM   10  O   UNL     1      39.480 -12.602  -1.817  1.00  0.00    -0.266 OA
HETATM   11  C   UNL     1      40.598 -12.590   0.261  1.00  0.00     0.046 A 
HETATM   12  C   UNL     1      40.966 -13.344   1.376  1.00  0.00     0.016 A 
HETATM   13  C   UNL     1      40.940 -11.234   0.164  1.00  0.00     0.018 A 
HETATM   14  C   UNL     1      41.658 -12.716   2.419  1.00  0.00     0.015 A 
HETATM   15  C   UNL     1      42.000 -11.363   2.324  1.00  0.00     0.001 A 
HETATM   16  C   UNL     1      41.646 -10.623   1.197  1.00  0.00     0.001 A 
ENDBRANCH   2   5
BRANCH   1  17
HETATM   17  C   UNL     1      43.003 -16.750   3.474  1.00  0.00     0.049 A 
HETATM   18  C   UNL     1      43.298 -18.125   3.251  1.00  0.00    -0.031 A 
HETATM   19  C   UNL     1      43.892 -18.883   4.270  1.00  0.00     0.011 A 
HETATM   20  C   UNL     1      44.215 -18.298   5.482  1.00  0.00     0.025 A 
HETATM   21  C   UNL     1      43.976 -16.939   5.683  1.00  0.00     0.042 A 
HETATM   22  C   UNL     1      43.384 -16.115   4.686  1.00  0.00    -0.009 A 
HETATM   23 CL   UNL     1      44.432 -16.325   7.246  1.00  0.00    -0.084 Cl
BRANCH  18  24
HETATM   24  C   UNL     1      43.139 -18.808   1.904  1.00  0.00     0.036 C 
HETATM   25  C   UNL     1      43.457 -20.296   1.996  1.00  0.00     0.010 C 
ENDBRANCH  18  24
BRANCH  22  26
HETATM   26  C   UNL     1      43.152 -14.661   5.078  1.00  0.00     0.038 C 
HETATM   27  C   UNL     1      41.921 -14.182   5.830  1.00  0.00     0.010 C 
ENDBRANCH  22  26
ENDBRANCH   1  17
TORSDOF 4
ENDMDL
MODEL 3
REMARK VINA RESULT:      -8.1      3.001      6.997
REMARK  4 active torsions:
REMARK  status: ('A' for Active; 'I' for Inactive)
REMARK    1  A    between atoms: C_2  and  C_3 
REMARK    2  A    between atoms: C_4  and  N_5 
REMARK       I    between atoms: N_5  and  C_6 
REMARK    3  A    between atoms: C_6  and  C_7 
REMARK    4  A    between atoms: C_19  and  C_20 
ROOT
HETATM    1  N   UNL     1      41.846 -15.261   1.755  1.00  0.00    -0.321 N 
HETATM    2  C   UNL     1      40.477 -15.063   1.630  1.00  0.00     0.277 C 
HETATM    3  O   UNL     1      39.636 -15.191   2.507  1.00  0.00    -0.266 OA
HETATM    4  H   UNL     1      42.369 -14.737   1.065  1.00  0.00     0.169 HD
ENDROOT
BRANCH   2   5
HETATM    5  C   UNL     1      40.085 -14.546   0.240  1.00  0.00     0.156 A 
HETATM    6  N   UNL     1      39.453 -15.406  -0.513  1.00  0.00    -0.166 NA
HETATM    7  N   UNL     1      39.112 -15.031  -1.775  1.00  0.00    -0.242 N 
HETATM    8  C   UNL     1      39.404 -13.827  -2.367  1.00  0.00     0.272 A 
HETATM    9  H   UNL     1      38.644 -15.724  -2.352  1.00  0.00     0.192 HD
HETATM   10  O   UNL     1      39.103 -13.580  -3.529  1.00  0.00    -0.266 OA
HETATM   11  C   UNL     1      40.090 -12.838  -1.519  1.00  0.00     0.046 A 
HETATM   12  C   UNL     1      40.416 -13.171  -0.203  1.00  0.00     0.016 A 
HETATM   13  C   UNL     1      40.389 -11.570  -2.035  1.00  0.00     0.018 A 
HETATM   14  C   UNL     1      41.020 -12.205   0.610  1.00  0.00     0.015 A 
HETATM   15  C   UNL     1      41.318 -10.938   0.097  1.00  0.00     0.001 A 
HETATM   16  C   UNL     1      41.009 -10.621  -1.224  1.00  0.00     0.001 A 
ENDBRANCH   2   5
BRANCH   1  17
HETATM   17  C   UNL     1      42.441 -15.557   2.998  1.00  0.00     0.049 A 
HETATM   18  C   UNL     1      42.758 -16.918   3.274  1.00  0.00    -0.031 A 
HETATM   19  C   UNL     1      43.309 -17.266   4.516  1.00  0.00     0.011 A 
HETATM   20  C   UNL     1      43.568 -16.292   5.465  1.00  0.00     0.025 A 
HETATM   21  C   UNL     1      43.308 -14.953   5.176  1.00  0.00     0.042 A 
HETATM   22  C   UNL     1      42.758 -14.536   3.932  1.00  0.00    -0.009 A 
HETATM   23 CL   UNL     1      43.684 -13.828   6.449  1.00  0.00    -0.084 Cl
BRANCH  18  24
HETATM   24  C   UNL     1      42.670 -18.026   2.239  1.00  0.00     0.036 C 
HETATM   25  C   UNL     1      43.591 -19.187   2.590  1.00  0.00     0.010 C 
ENDBRANCH  18  24
BRANCH  22  26
HETATM   26  C   UNL     1      42.494 -13.042   3.790  1.00  0.00     0.038 C 
HETATM   27  C   UNL     1      43.547 -12.044   3.339  1.00  0.00     0.010 C 
ENDBRANCH  22  26
ENDBRANCH   1  17
TORSDOF 4
ENDMDL
MODEL 4
REMARK VINA RESULT:      -7.8      3.751      6.740
REMARK  4 active torsions:
REMARK  status: ('A' for Active; 'I' for Inactive)
REMARK    1  A    between atoms: C_2  and  C_3 
REMARK    2  A    between atoms: C_4  and  N_5 
REMARK       I    between atoms: N_5  and  C_6 
REMARK    3  A    between atoms: C_6  and  C_7 
REMARK    4  A    between atoms: C_19  and  C_20 
ROOT
HETATM    1  N   UNL     1      42.399 -14.790   4.201  1.00  0.00    -0.321 N 
HETATM    2  C   UNL     1      41.367 -14.589   5.109  1.00  0.00     0.277 C 
HETATM    3  O   UNL     1      40.608 -15.437   5.553  1.00  0.00    -0.266 OA
HETATM    4  H   UNL     1      43.115 -14.079   4.279  1.00  0.00     0.169 HD
ENDROOT
BRANCH   2   5
HETATM    5  C   UNL     1      41.309 -13.143   5.618  1.00  0.00     0.156 A 
HETATM    6  N   UNL     1      40.139 -12.570   5.529  1.00  0.00    -0.166 NA
HETATM    7  N   UNL     1      40.022 -11.274   5.922  1.00  0.00    -0.242 N 
HETATM    8  C   UNL     1      41.040 -10.473   6.378  1.00  0.00     0.272 A 
HETATM    9  H   UNL     1      39.109 -10.840   5.820  1.00  0.00     0.192 HD
HETATM   10  O   UNL     1      40.865  -9.296   6.671  1.00  0.00    -0.266 OA
HETATM   11  C   UNL     1      42.359 -11.116   6.512  1.00  0.00     0.046 A 
HETATM   12  C   UNL     1      42.507 -12.458   6.160  1.00  0.00     0.016 A 
HETATM   13  C   UNL     1      43.442 -10.378   7.008  1.00  0.00     0.018 A 
HETATM   14  C   UNL     1      43.751 -13.072   6.342  1.00  0.00     0.015 A 
HETATM   15  C   UNL     1      44.834 -12.338   6.838  1.00  0.00     0.001 A 
HETATM   16  C   UNL     1      44.683 -10.992   7.166  1.00  0.00     0.001 A 
ENDBRANCH   2   5
BRANCH   1  17
HETATM   17  C   UNL     1      42.746 -16.078   3.748  1.00  0.00     0.049 A 
HETATM   18  C   UNL     1      42.264 -16.485   2.471  1.00  0.00    -0.031 A 
HETATM   19  C   UNL     1      42.547 -17.774   1.999  1.00  0.00     0.011 A 
HETATM   20  C   UNL     1      43.310 -18.647   2.756  1.00  0.00     0.025 A 
HETATM   21  C   UNL     1      43.828 -18.232   3.983  1.00  0.00     0.042 A 
HETATM   22  C   UNL     1      43.584 -16.933   4.511  1.00  0.00    -0.009 A 
HETATM   23 CL   UNL     1      44.775 -19.418   4.833  1.00  0.00    -0.084 Cl
BRANCH  18  24
HETATM   24  C   UNL     1      41.569 -15.547   1.500  1.00  0.00     0.036 C 
HETATM   25  C   UNL     1      40.056 -15.726   1.542  1.00  0.00     0.010 C 
ENDBRANCH  18  24
BRANCH  22  26
HETATM   26  C   UNL     1      44.186 -16.651   5.883  1.00  0.00     0.038 C 
HETATM   27  C   UNL     1      43.443 -16.884   7.188  1.00  0.00     0.010 C 
ENDBRANCH  22  26
ENDBRANCH   1  17
TORSDOF 4
ENDMDL
MODEL 5
REMARK VINA RESULT:      -7.7      2.893      4.303
REMARK  4 active torsions:
REMARK  status: ('A' for Active; 'I' for Inactive)
REMARK    1  A    between atoms: C_2  and  C_3 
REMARK    2  A    between atoms: C_4  and  N_5 
REMARK       I    between atoms: N_5  and  C_6 
REMARK    3  A    between atoms: C_6  and  C_7 
REMARK    4  A    between atoms: C_19  and  C_20 
ROOT
HETATM    1  N   UNL     1      42.321 -13.854   3.209  1.00  0.00    -0.321 N 
HETATM    2  C   UNL     1      41.425 -14.330   4.158  1.00  0.00     0.277 C 
HETATM    3  O   UNL     1      40.266 -13.978   4.311  1.00  0.00    -0.266 OA
HETATM    4  H   UNL     1      43.049 -14.527   3.004  1.00  0.00     0.169 HD
ENDROOT
BRANCH   2   5
HETATM    5  C   UNL     1      42.013 -15.474   4.995  1.00  0.00     0.156 A 
HETATM    6  N   UNL     1      41.892 -15.334   6.288  1.00  0.00    -0.166 NA
HETATM    7  N   UNL     1      42.428 -16.289   7.094  1.00  0.00    -0.242 N 
HETATM    8  C   UNL     1      43.133 -17.392   6.681  1.00  0.00     0.272 A 
HETATM    9  H   UNL     1      42.344 -16.147   8.097  1.00  0.00     0.192 HD
HETATM   10  O   UNL     1      43.627 -18.187   7.473  1.00  0.00    -0.266 OA
HETATM   11  C   UNL     1      43.251 -17.578   5.224  1.00  0.00     0.046 A 
HETATM   12  C   UNL     1      42.674 -16.641   4.365  1.00  0.00     0.016 A 
HETATM   13  C   UNL     1      43.921 -18.700   4.720  1.00  0.00     0.018 A 
HETATM   14  C   UNL     1      42.747 -16.856   2.984  1.00  0.00     0.015 A 
HETATM   15  C   UNL     1      43.415 -17.976   2.478  1.00  0.00     0.001 A 
HETATM   16  C   UNL     1      44.006 -18.894   3.343  1.00  0.00     0.001 A 
ENDBRANCH   2   5
BRANCH   1  17
HETATM   17  C   UNL     1      41.928 -12.933   2.218  1.00  0.00     0.049 A 
HETATM   18  C   UNL     1      42.162 -11.550   2.467  1.00  0.00    -0.031 A 
HETATM   19  C   UNL     1      41.747 -10.594   1.529  1.00  0.00     0.011 A 
HETATM   20  C   UNL     1      41.133 -10.987   0.352  1.00  0.00     0.025 A 
HETATM   21  C   UNL     1      40.952 -12.343   0.082  1.00  0.00     0.042 A 
HETATM   22  C   UNL     1      41.359 -13.361   0.990  1.00  0.00    -0.009 A 
HETATM   23 CL   UNL     1      40.175 -12.705  -1.432  1.00  0.00    -0.084 Cl
BRANCH  18  24
HETATM   24  C   UNL     1      42.975 -11.036   3.642  1.00  0.00     0.036 C 
HETATM   25  C   UNL     1      42.141 -10.135   4.544  1.00  0.00     0.010 C 
ENDBRANCH  18  24
BRANCH  22  26
HETATM   26  C   UNL     1      41.052 -14.791   0.564  1.00  0.00     0.038 C 
HETATM   27  C   UNL     1      39.888 -15.598   1.115  1.00  0.00     0.010 C 
ENDBRANCH  22  26
ENDBRANCH   1  17
TORSDOF 4
ENDMDL
MODEL 6
REMARK VINA RESULT:      -7.7      3.212      7.169
REMARK  4 active torsions:
REMARK  status: ('A' for Active; 'I' for Inactive)
REMARK    1  A    between atoms: C_2  and  C_3 
REMARK    2  A    between atoms: C_4  and  N_5 
REMARK       I    between atoms: N_5  and  C_6 
REMARK    3  A    between atoms: C_6  and  C_7 
REMARK    4  A    between atoms: C_19  and  C_20 
ROOT
HETATM    1  N   UNL     1      41.449 -15.260   4.439  1.00  0.00    -0.321 N 
HETATM    2  C   UNL     1      42.021 -14.002   4.581  1.00  0.00     0.277 C 
HETATM    3  O   UNL     1      43.178 -13.694   4.340  1.00  0.00    -0.266 OA
HETATM    4  H   UNL     1      40.446 -15.207   4.309  1.00  0.00     0.169 HD
ENDROOT
BRANCH   2   5
HETATM    5  C   UNL     1      40.999 -12.939   5.004  1.00  0.00     0.156 A 
HETATM    6  N   UNL     1      40.813 -12.830   6.292  1.00  0.00    -0.166 NA
HETATM    7  N   UNL     1      39.890 -11.937   6.738  1.00  0.00    -0.242 N 
HETATM    8  C   UNL     1      39.087 -11.146   5.953  1.00  0.00     0.272 A 
HETATM    9  H   UNL     1      39.742 -11.887   7.742  1.00  0.00     0.192 HD
HETATM   10  O   UNL     1      38.242 -10.396   6.430  1.00  0.00    -0.266 OA
HETATM   11  C   UNL     1      39.308 -11.237   4.500  1.00  0.00     0.046 A 
HETATM   12  C   UNL     1      40.279 -12.110   4.008  1.00  0.00     0.016 A 
HETATM   13  C   UNL     1      38.557 -10.433   3.632  1.00  0.00     0.018 A 
HETATM   14  C   UNL     1      40.517 -12.149   2.629  1.00  0.00     0.015 A 
HETATM   15  C   UNL     1      39.769 -11.347   1.761  1.00  0.00     0.001 A 
HETATM   16  C   UNL     1      38.787 -10.494   2.260  1.00  0.00     0.001 A 
ENDBRANCH   2   5
BRANCH   1  17
HETATM   17  C   UNL     1      42.164 -16.340   3.885  1.00  0.00     0.049 A 
HETATM   18  C   UNL     1      42.101 -16.524   2.474  1.00  0.00    -0.031 A 
HETATM   19  C   UNL     1      42.760 -17.612   1.884  1.00  0.00     0.011 A 
HETATM   20  C   UNL     1      43.489 -18.495   2.661  1.00  0.00     0.025 A 
HETATM   21  C   UNL     1      43.597 -18.286   4.035  1.00  0.00     0.042 A 
HETATM   22  C   UNL     1      42.959 -17.196   4.691  1.00  0.00    -0.009 A 
HETATM   23 CL   UNL     1      44.546 -19.462   4.897  1.00  0.00    -0.084 Cl
BRANCH  18  24
HETATM   24  C   UNL     1      41.472 -15.519   1.525  1.00  0.00     0.036 C 
HETATM   25  C   UNL     1      39.984 -15.787   1.338  1.00  0.00     0.010 C 
ENDBRANCH  18  24
BRANCH  22  26
HETATM   26  C   UNL     1      43.140 -17.134   6.203  1.00  0.00     0.038 C 
HETATM   27  C   UNL     1      44.249 -16.350   6.883  1.00  0.00     0.010 C 
ENDBRANCH  22  26
ENDBRANCH   1  17
TORSDOF 4
ENDMDL
MODEL 7
REMARK VINA RESULT:      -7.6      4.761      7.680
REMARK  4 active torsions:
REMARK  status: ('A' for Active; 'I' for Inactive)
REMARK    1  A    between atoms: C_2  and  C_3 
REMARK    2  A    between atoms: C_4  and  N_5 
REMARK       I    between atoms: N_5  and  C_6 
REMARK    3  A    between atoms: C_6  and  C_7 
REMARK    4  A    between atoms: C_19  and  C_20 
ROOT
HETATM    1  N   UNL     1      42.381 -13.702   5.622  1.00  0.00    -0.321 N 
HETATM    2  C   UNL     1      43.013 -12.518   5.264  1.00  0.00     0.277 C 
HETATM    3  O   UNL     1      43.589 -12.285   4.213  1.00  0.00    -0.266 OA
HETATM    4  H   UNL     1      41.663 -13.551   6.320  1.00  0.00     0.169 HD
ENDROOT
BRANCH   2   5
HETATM    5  C   UNL     1      42.842 -11.420   6.322  1.00  0.00     0.156 A 
HETATM    6  N   UNL     1      41.608 -11.065   6.559  1.00  0.00    -0.166 NA
HETATM    7  N   UNL     1      41.383 -10.067   7.456  1.00  0.00    -0.242 N 
HETATM    8  C   UNL     1      42.345  -9.350   8.124  1.00  0.00     0.272 A 
HETATM    9  H   UNL     1      40.417  -9.790   7.606  1.00  0.00     0.192 HD
HETATM   10  O   UNL     1      42.064  -8.431   8.884  1.00  0.00    -0.266 OA
HETATM   11  C   UNL     1      43.740  -9.760   7.888  1.00  0.00     0.046 A 
HETATM   12  C   UNL     1      44.007 -10.811   7.009  1.00  0.00     0.016 A 
HETATM   13  C   UNL     1      44.779  -9.105   8.563  1.00  0.00     0.018 A 
HETATM   14  C   UNL     1      45.331 -11.227   6.834  1.00  0.00     0.015 A 
HETATM   15  C   UNL     1      46.371 -10.575   7.507  1.00  0.00     0.001 A 
HETATM   16  C   UNL     1      46.096  -9.512   8.366  1.00  0.00     0.001 A 
ENDBRANCH   2   5
BRANCH   1  17
HETATM   17  C   UNL     1      42.258 -14.777   4.720  1.00  0.00     0.049 A 
HETATM   18  C   UNL     1      43.170 -15.862   4.852  1.00  0.00    -0.031 A 
HETATM   19  C   UNL     1      43.114 -16.933   3.948  1.00  0.00     0.011 A 
HETATM   20  C   UNL     1      42.163 -16.952   2.943  1.00  0.00     0.025 A 
HETATM   21  C   UNL     1      41.234 -15.916   2.844  1.00  0.00     0.042 A 
HETATM   22  C   UNL     1      41.234 -14.808   3.737  1.00  0.00    -0.009 A 
HETATM   23 CL   UNL     1      40.089 -16.062   1.543  1.00  0.00    -0.084 Cl
BRANCH  18  24
HETATM   24  C   UNL     1      44.131 -16.012   6.019  1.00  0.00     0.036 C 
HETATM   25  C   UNL     1      43.630 -17.043   7.022  1.00  0.00     0.010 C 
ENDBRANCH  18  24
BRANCH  22  26
HETATM   26  C   UNL     1      40.180 -13.740   3.468  1.00  0.00     0.038 C 
HETATM   27  C   UNL     1      40.407 -12.551   2.549  1.00  0.00     0.010 C 
ENDBRANCH  22  26
ENDBRANCH   1  17
TORSDOF 4
ENDMDL
MODEL 8
REMARK VINA RESULT:      -7.5      2.814      3.635
REMARK  4 active torsions:
REMARK  status: ('A' for Active; 'I' for Inactive)
REMARK    1  A    between atoms: C_2  and  C_3 
REMARK    2  A    between atoms: C_4  and  N_5 
REMARK       I    between atoms: N_5  and  C_6 
REMARK    3  A    between atoms: C_6  and  C_7 
REMARK    4  A    between atoms: C_19  and  C_20 
ROOT
HETATM    1  N   UNL     1      40.771 -13.803   2.903  1.00  0.00    -0.321 N 
HETATM    2  C   UNL     1      42.147 -13.648   3.012  1.00  0.00     0.277 C 
HETATM    3  O   UNL     1      42.839 -12.824   2.435  1.00  0.00    -0.266 OA
HETATM    4  H   UNL     1      40.374 -14.244   3.722  1.00  0.00     0.169 HD
ENDROOT
BRANCH   2   5
HETATM    5  C   UNL     1      42.761 -14.592   4.054  1.00  0.00     0.156 A 
HETATM    6  N   UNL     1      42.948 -14.068   5.236  1.00  0.00    -0.166 NA
HETATM    7  N   UNL     1      43.528 -14.835   6.198  1.00  0.00    -0.242 N 
HETATM    8  C   UNL     1      43.984 -16.121   6.040  1.00  0.00     0.272 A 
HETATM    9  H   UNL     1      43.686 -14.399   7.102  1.00  0.00     0.192 HD
HETATM   10  O   UNL     1      44.540 -16.732   6.945  1.00  0.00    -0.266 OA
HETATM   11  C   UNL     1      43.753 -16.733   4.721  1.00  0.00     0.046 A 
HETATM   12  C   UNL     1      43.120 -15.992   3.722  1.00  0.00     0.016 A 
HETATM   13  C   UNL     1      44.154 -18.056   4.491  1.00  0.00     0.018 A 
HETATM   14  C   UNL     1      42.858 -16.602   2.490  1.00  0.00     0.015 A 
HETATM   15  C   UNL     1      43.256 -17.923   2.258  1.00  0.00     0.001 A 
HETATM   16  C   UNL     1      43.907 -18.648   3.254  1.00  0.00     0.001 A 
ENDBRANCH   2   5
BRANCH   1  17
HETATM   17  C   UNL     1      39.985 -12.916   2.141  1.00  0.00     0.049 A 
HETATM   18  C   UNL     1      39.765 -13.234   0.770  1.00  0.00    -0.031 A 
HETATM   19  C   UNL     1      39.026 -12.358  -0.038  1.00  0.00     0.011 A 
HETATM   20  C   UNL     1      38.491 -11.197   0.494  1.00  0.00     0.025 A 
HETATM   21  C   UNL     1      38.660 -10.911   1.848  1.00  0.00     0.042 A 
HETATM   22  C   UNL     1      39.391 -11.765   2.721  1.00  0.00    -0.009 A 
HETATM   23 CL   UNL     1      37.933  -9.427   2.394  1.00  0.00    -0.084 Cl
BRANCH  18  24
HETATM   24  C   UNL     1      40.164 -14.558   0.143  1.00  0.00     0.036 C 
HETATM   25  C   UNL     1      39.456 -14.777  -1.189  1.00  0.00     0.010 C 
ENDBRANCH  18  24
BRANCH  22  26
HETATM   26  C   UNL     1      39.519 -11.288   4.163  1.00  0.00     0.038 C 
HETATM   27  C   UNL     1      40.727 -10.533   4.691  1.00  0.00     0.010 C 
ENDBRANCH  22  26
ENDBRANCH   1  17
TORSDOF 4
ENDMDL
MODEL 9
REMARK VINA RESULT:      -7.4      4.654      7.239
REMARK  4 active torsions:
REMARK  status: ('A' for Active; 'I' for Inactive)
REMARK    1  A    between atoms: C_2  and  C_3 
REMARK    2  A    between atoms: C_4  and  N_5 
REMARK       I    between atoms: N_5  and  C_6 
REMARK    3  A    between atoms: C_6  and  C_7 
REMARK    4  A    between atoms: C_19  and  C_20 
ROOT
HETATM    1  N   UNL     1      42.391 -14.044   5.350  1.00  0.00    -0.321 N 
HETATM    2  C   UNL     1      43.029 -12.851   5.036  1.00  0.00     0.277 C 
HETATM    3  O   UNL     1      43.685 -12.614   4.034  1.00  0.00    -0.266 OA
HETATM    4  H   UNL     1      41.615 -13.903   5.985  1.00  0.00     0.169 HD
ENDROOT
BRANCH   2   5
HETATM    5  C   UNL     1      42.752 -11.750   6.068  1.00  0.00     0.156 A 
HETATM    6  N   UNL     1      41.493 -11.440   6.224  1.00  0.00    -0.166 NA
HETATM    7  N   UNL     1      41.176 -10.443   7.092  1.00  0.00    -0.242 N 
HETATM    8  C   UNL     1      42.067  -9.682   7.809  1.00  0.00     0.272 A 
HETATM    9  H   UNL     1      40.192 -10.201   7.179  1.00  0.00     0.192 HD
HETATM   10  O   UNL     1      41.705  -8.766   8.539  1.00  0.00    -0.266 OA
HETATM   11  C   UNL     1      43.488 -10.041   7.665  1.00  0.00     0.046 A 
HETATM   12  C   UNL     1      43.848 -11.090   6.817  1.00  0.00     0.016 A 
HETATM   13  C   UNL     1      44.457  -9.340   8.393  1.00  0.00     0.018 A 
HETATM   14  C   UNL     1      45.195 -11.456   6.728  1.00  0.00     0.015 A 
HETATM   15  C   UNL     1      46.166 -10.758   7.456  1.00  0.00     0.001 A 
HETATM   16  C   UNL     1      45.799  -9.698   8.283  1.00  0.00     0.001 A 
ENDBRANCH   2   5
BRANCH   1  17
HETATM   17  C   UNL     1      42.361 -15.127   4.449  1.00  0.00     0.049 A 
HETATM   18  C   UNL     1      41.375 -15.108   3.421  1.00  0.00    -0.031 A 
HETATM   19  C   UNL     1      41.279 -16.186   2.530  1.00  0.00     0.011 A 
HETATM   20  C   UNL     1      42.151 -17.257   2.628  1.00  0.00     0.025 A 
HETATM   21  C   UNL     1      43.151 -17.252   3.599  1.00  0.00     0.042 A 
HETATM   22  C   UNL     1      43.305 -16.184   4.527  1.00  0.00    -0.009 A 
HETATM   23 CL   UNL     1      44.185 -18.651   3.614  1.00  0.00    -0.084 Cl
BRANCH  18  24
HETATM   24  C   UNL     1      40.492 -13.908   3.129  1.00  0.00     0.036 C 
HETATM   25  C   UNL     1      39.960 -13.945   1.701  1.00  0.00     0.010 C 
ENDBRANCH  18  24
BRANCH  22  26
HETATM   26  C   UNL     1      44.420 -16.351   5.552  1.00  0.00     0.038 C 
HETATM   27  C   UNL     1      44.175 -16.730   7.003  1.00  0.00     0.010 C 
ENDBRANCH  22  26
ENDBRANCH   1  17
TORSDOF 4
ENDMDL
MODEL 10
REMARK VINA RESULT:      -7.4      3.565      5.610
REMARK  4 active torsions:
REMARK  status: ('A' for Active; 'I' for Inactive)
REMARK    1  A    between atoms: C_2  and  C_3 
REMARK    2  A    between atoms: C_4  and  N_5 
REMARK       I    between atoms: N_5  and  C_6 
REMARK    3  A    between atoms: C_6  and  C_7 
REMARK    4  A    between atoms: C_19  and  C_20 
ROOT
HETATM    1  N   UNL     1      41.854 -12.176   5.197  1.00  0.00    -0.321 N 
HETATM    2  C   UNL     1      41.096 -13.309   5.463  1.00  0.00     0.277 C 
HETATM    3  O   UNL     1      40.617 -13.632   6.539  1.00  0.00    -0.266 OA
HETATM    4  H   UNL     1      41.805 -11.909   4.222  1.00  0.00     0.169 HD
ENDROOT
BRANCH   2   5
HETATM    5  C   UNL     1      40.808 -14.131   4.200  1.00  0.00     0.156 A 
HETATM    6  N   UNL     1      39.771 -13.740   3.509  1.00  0.00    -0.166 NA
HETATM    7  N   UNL     1      39.431 -14.448   2.399  1.00  0.00    -0.242 N 
HETATM    8  C   UNL     1      40.056 -15.582   1.941  1.00  0.00     0.272 A 
HETATM    9  H   UNL     1      38.606 -14.142   1.890  1.00  0.00     0.192 HD
HETATM   10  O   UNL     1      39.660 -16.194   0.955  1.00  0.00    -0.266 OA
HETATM   11  C   UNL     1      41.244 -16.016   2.695  1.00  0.00     0.046 A 
HETATM   12  C   UNL     1      41.651 -15.287   3.814  1.00  0.00     0.016 A 
HETATM   13  C   UNL     1      41.963 -17.141   2.269  1.00  0.00     0.018 A 
HETATM   14  C   UNL     1      42.812 -15.678   4.490  1.00  0.00     0.015 A 
HETATM   15  C   UNL     1      43.531 -16.801   4.067  1.00  0.00     0.001 A 
HETATM   16  C   UNL     1      43.105 -17.535   2.962  1.00  0.00     0.001 A 
ENDBRANCH   2   5
BRANCH   1  17
HETATM   17  C   UNL     1      42.080 -11.189   6.177  1.00  0.00     0.049 A 
HETATM   18  C   UNL     1      43.291 -11.259   6.923  1.00  0.00    -0.031 A 
HETATM   19  C   UNL     1      43.537 -10.325   7.939  1.00  0.00     0.011 A 
HETATM   20  C   UNL     1      42.622  -9.322   8.206  1.00  0.00     0.025 A 
HETATM   21  C   UNL     1      41.461  -9.219   7.441  1.00  0.00     0.042 A 
HETATM   22  C   UNL     1      41.158 -10.131   6.391  1.00  0.00    -0.009 A 
HETATM   23 CL   UNL     1      40.396  -7.912   7.872  1.00  0.00    -0.084 Cl
BRANCH  18  24
HETATM   24  C   UNL     1      44.425 -12.213   6.591  1.00  0.00     0.036 C 
HETATM   25  C   UNL     1      45.719 -11.459   6.307  1.00  0.00     0.010 C 
ENDBRANCH  18  24
BRANCH  22  26
HETATM   26  C   UNL     1      39.829  -9.906   5.679  1.00  0.00     0.038 C 
HETATM   27  C   UNL     1      38.551 -10.644   6.039  1.00  0.00     0.010 C 
ENDBRANCH  22  26
ENDBRANCH   1  17
TORSDOF 4
ENDMDL
