MODEL 1
REMARK VINA RESULT:      -9.0      0.000      0.000
REMARK  4 active torsions:
REMARK  status: ('A' for Active; 'I' for Inactive)
REMARK    1  A    between atoms: C_8  and  N_9 
REMARK       I    between atoms: N_9  and  C_10 
REMARK       I    between atoms: C_10  and  N_11 
REMARK    2  A    between atoms: N_11  and  C_12 
REMARK    3  A    between atoms: C_15  and  O_16 
REMARK    4  A    between atoms: O_16  and  C_17 
ROOT
HETATM    1  C   UNL     1      40.830 -14.780   2.112  1.00  0.00     0.054 A 
HETATM    2  C   UNL     1      42.186 -14.558   1.886  1.00  0.00     0.149 A 
HETATM    3  N   UNL     1      43.185 -15.219   2.527  1.00  0.00    -0.235 NA
HETATM    4  C   UNL     1      42.822 -16.152   3.432  1.00  0.00     0.169 A 
HETATM    5  C   UNL     1      41.501 -16.459   3.718  1.00  0.00     0.060 A 
HETATM    6  C   UNL     1      40.495 -15.762   3.048  1.00  0.00     0.035 A 
ENDROOT
BRANCH   1   7
HETATM    7  N   UNL     1      39.773 -14.090   1.479  1.00  0.00    -0.307 N 
HETATM    8  C   UNL     1      39.792 -13.530   0.210  1.00  0.00     0.325 C 
HETATM    9  N   UNL     1      38.589 -12.906  -0.065  1.00  0.00    -0.305 N 
HETATM   10  O   UNL     1      40.746 -13.587  -0.552  1.00  0.00    -0.247 OA
HETATM   11  H   UNL     1      37.790 -13.184   0.481  1.00  0.00     0.171 HD
HETATM   12  H   UNL     1      38.964 -13.893   2.048  1.00  0.00     0.170 HD
BRANCH   9  13
HETATM   13  C   UNL     1      38.311 -12.093  -1.154  1.00  0.00     0.086 A 
HETATM   14  C   UNL     1      37.987 -12.618  -2.392  1.00  0.00     0.052 A 
HETATM   15  C   UNL     1      37.865 -14.008  -2.892  1.00  0.00     0.072 C 
HETATM   16  N   UNL     1      37.777 -11.546  -3.210  1.00  0.00    -0.280 N 
HETATM   17  H   UNL     1      37.531 -11.544  -4.194  1.00  0.00     0.189 HD
HETATM   18  N   UNL     1      37.907 -10.366  -2.599  1.00  0.00    -0.177 NA
HETATM   19  C   UNL     1      38.228 -10.680  -1.334  1.00  0.00     0.079 A 
HETATM   20  C   UNL     1      38.400  -9.567  -0.365  1.00  0.00     0.075 C 
ENDBRANCH   9  13
ENDBRANCH   1   7
BRANCH   4  21
HETATM   21  O   UNL     1      43.783 -16.862   4.145  1.00  0.00    -0.292 OA
BRANCH  21  22
HETATM   22  C   UNL     1      43.782 -18.225   3.986  1.00  0.00     0.080 A 
HETATM   23  C   UNL     1      43.631 -18.745   2.703  1.00  0.00     0.079 A 
HETATM   24  C   UNL     1      43.678 -20.123   2.527  1.00  0.00     0.119 A 
HETATM   25  F   UNL     1      43.525 -20.636   1.298  1.00  0.00    -0.206 F 
HETATM   26  C   UNL     1      43.889 -20.981   3.603  1.00  0.00     0.042 A 
HETATM   27  C   UNL     1      44.061 -20.453   4.882  1.00  0.00     0.006 A 
HETATM   28  C   UNL     1      44.018 -19.071   5.074  1.00  0.00     0.037 A 
ENDBRANCH  21  22
ENDBRANCH   4  21
TORSDOF 4
ENDMDL
MODEL 2
REMARK VINA RESULT:      -8.6      1.374      2.062
REMARK  4 active torsions:
REMARK  status: ('A' for Active; 'I' for Inactive)
REMARK    1  A    between atoms: C_8  and  N_9 
REMARK       I    between atoms: N_9  and  C_10 
REMARK       I    between atoms: C_10  and  N_11 
REMARK    2  A    between atoms: N_11  and  C_12 
REMARK    3  A    between atoms: C_15  and  O_16 
REMARK    4  A    between atoms: O_16  and  C_17 
ROOT
HETATM    1  C   UNL     1      40.741 -15.103   1.575  1.00  0.00     0.054 A 
HETATM    2  C   UNL     1      42.072 -15.167   1.168  1.00  0.00     0.149 A 
HETATM    3  N   UNL     1      43.059 -15.769   1.881  1.00  0.00    -0.235 NA
HETATM    4  C   UNL     1      42.710 -16.340   3.053  1.00  0.00     0.169 A 
HETATM    5  C   UNL     1      41.413 -16.345   3.539  1.00  0.00     0.060 A 
HETATM    6  C   UNL     1      40.418 -15.717   2.788  1.00  0.00     0.035 A 
ENDROOT
BRANCH   1   7
HETATM    7  N   UNL     1      39.701 -14.463   0.867  1.00  0.00    -0.307 N 
HETATM    8  C   UNL     1      39.776 -13.244   0.208  1.00  0.00     0.325 C 
HETATM    9  N   UNL     1      38.553 -12.915  -0.349  1.00  0.00    -0.305 N 
HETATM   10  O   UNL     1      40.787 -12.562   0.137  1.00  0.00    -0.247 OA
HETATM   11  H   UNL     1      37.900 -13.666  -0.500  1.00  0.00     0.171 HD
HETATM   12  H   UNL     1      38.788 -14.883   0.937  1.00  0.00     0.170 HD
BRANCH   9  13
HETATM   13  C   UNL     1      38.206 -11.701  -0.921  1.00  0.00     0.086 A 
HETATM   14  C   UNL     1      37.335 -10.825  -0.300  1.00  0.00     0.052 A 
HETATM   15  C   UNL     1      36.586 -10.890   0.978  1.00  0.00     0.072 C 
HETATM   16  N   UNL     1      37.228  -9.749  -1.134  1.00  0.00    -0.280 N 
HETATM   17  H   UNL     1      36.667  -8.913  -1.013  1.00  0.00     0.189 HD
HETATM   18  N   UNL     1      37.982  -9.839  -2.232  1.00  0.00    -0.177 NA
HETATM   19  C   UNL     1      38.595 -11.027  -2.118  1.00  0.00     0.079 A 
HETATM   20  C   UNL     1      39.560 -11.415  -3.179  1.00  0.00     0.075 C 
ENDBRANCH   9  13
ENDBRANCH   1   7
BRANCH   4  21
HETATM   21  O   UNL     1      43.665 -16.961   3.853  1.00  0.00    -0.292 OA
BRANCH  21  22
HETATM   22  C   UNL     1      43.778 -18.323   3.727  1.00  0.00     0.080 A 
HETATM   23  C   UNL     1      44.089 -19.073   4.860  1.00  0.00     0.079 A 
HETATM   24  C   UNL     1      44.157 -20.456   4.751  1.00  0.00     0.119 A 
HETATM   25  F   UNL     1      44.463 -21.187   5.832  1.00  0.00    -0.206 F 
HETATM   26  C   UNL     1      43.905 -21.098   3.542  1.00  0.00     0.042 A 
HETATM   27  C   UNL     1      43.573 -20.344   2.417  1.00  0.00     0.006 A 
HETATM   28  C   UNL     1      43.500 -18.954   2.511  1.00  0.00     0.037 A 
ENDBRANCH  21  22
ENDBRANCH   4  21
TORSDOF 4
ENDMDL
MODEL 3
REMARK VINA RESULT:      -8.3      5.788      8.208
REMARK  4 active torsions:
REMARK  status: ('A' for Active; 'I' for Inactive)
REMARK    1  A    between atoms: C_8  and  N_9 
REMARK       I    between atoms: N_9  and  C_10 
REMARK       I    between atoms: C_10  and  N_11 
REMARK    2  A    between atoms: N_11  and  C_12 
REMARK    3  A    between atoms: C_15  and  O_16 
REMARK    4  A    between atoms: O_16  and  C_17 
ROOT
HETATM    1  C   UNL     1      42.281 -12.884   5.419  1.00  0.00     0.054 A 
HETATM    2  C   UNL     1      41.424 -13.949   5.687  1.00  0.00     0.149 A 
HETATM    3  N   UNL     1      41.271 -15.028   4.876  1.00  0.00    -0.235 NA
HETATM    4  C   UNL     1      42.007 -15.056   3.746  1.00  0.00     0.169 A 
HETATM    5  C   UNL     1      42.898 -14.055   3.394  1.00  0.00     0.060 A 
HETATM    6  C   UNL     1      43.034 -12.956   4.244  1.00  0.00     0.035 A 
ENDROOT
BRANCH   1   7
HETATM    7  N   UNL     1      42.440 -11.740   6.230  1.00  0.00    -0.307 N 
HETATM    8  C   UNL     1      43.334 -11.587   7.280  1.00  0.00     0.325 C 
HETATM    9  N   UNL     1      43.188 -10.344   7.868  1.00  0.00    -0.305 N 
HETATM   10  O   UNL     1      44.135 -12.441   7.630  1.00  0.00    -0.247 OA
HETATM   11  H   UNL     1      42.740  -9.626   7.321  1.00  0.00     0.171 HD
HETATM   12  H   UNL     1      41.765 -11.002   6.101  1.00  0.00     0.170 HD
BRANCH   9  13
HETATM   13  C   UNL     1      43.780  -9.912   9.045  1.00  0.00     0.086 A 
HETATM   14  C   UNL     1      45.115  -9.556   9.102  1.00  0.00     0.052 A 
HETATM   15  C   UNL     1      46.193  -9.536   8.084  1.00  0.00     0.072 C 
HETATM   16  N   UNL     1      45.349  -9.186  10.395  1.00  0.00    -0.280 N 
HETATM   17  H   UNL     1      46.220  -8.873  10.811  1.00  0.00     0.189 HD
HETATM   18  N   UNL     1      44.269  -9.242  11.177  1.00  0.00    -0.177 NA
HETATM   19  C   UNL     1      43.293  -9.680  10.367  1.00  0.00     0.079 A 
HETATM   20  C   UNL     1      41.926  -9.810  10.933  1.00  0.00     0.075 C 
ENDBRANCH   9  13
ENDBRANCH   1   7
BRANCH   4  21
HETATM   21  O   UNL     1      41.895 -16.117   2.852  1.00  0.00    -0.292 OA
BRANCH  21  22
HETATM   22  C   UNL     1      42.633 -17.239   3.136  1.00  0.00     0.080 A 
HETATM   23  C   UNL     1      42.698 -18.253   2.184  1.00  0.00     0.079 A 
HETATM   24  C   UNL     1      43.482 -19.370   2.444  1.00  0.00     0.119 A 
HETATM   25  F   UNL     1      43.545 -20.356   1.538  1.00  0.00    -0.206 F 
HETATM   26  C   UNL     1      44.210 -19.481   3.625  1.00  0.00     0.042 A 
HETATM   27  C   UNL     1      44.159 -18.452   4.566  1.00  0.00     0.006 A 
HETATM   28  C   UNL     1      43.376 -17.324   4.318  1.00  0.00     0.037 A 
ENDBRANCH  21  22
ENDBRANCH   4  21
TORSDOF 4
ENDMDL
MODEL 4
REMARK VINA RESULT:      -8.1      6.464      7.708
REMARK  4 active torsions:
REMARK  status: ('A' for Active; 'I' for Inactive)
REMARK    1  A    between atoms: C_8  and  N_9 
REMARK       I    between atoms: N_9  and  C_10 
REMARK       I    between atoms: C_10  and  N_11 
REMARK    2  A    between atoms: N_11  and  C_12 
REMARK    3  A    between atoms: C_15  and  O_16 
REMARK    4  A    between atoms: O_16  and  C_17 
ROOT
HETATM    1  C   UNL     1      43.066 -14.101   6.639  1.00  0.00     0.054 A 
HETATM    2  C   UNL     1      41.992 -14.957   6.868  1.00  0.00     0.149 A 
HETATM    3  N   UNL     1      42.096 -16.308   6.949  1.00  0.00    -0.235 NA
HETATM    4  C   UNL     1      43.328 -16.839   6.800  1.00  0.00     0.169 A 
HETATM    5  C   UNL     1      44.463 -16.075   6.584  1.00  0.00     0.060 A 
HETATM    6  C   UNL     1      44.327 -14.689   6.502  1.00  0.00     0.035 A 
ENDROOT
BRANCH   1   7
HETATM    7  N   UNL     1      42.982 -12.697   6.525  1.00  0.00    -0.307 N 
HETATM    8  C   UNL     1      43.539 -11.761   7.385  1.00  0.00     0.325 C 
HETATM    9  N   UNL     1      43.225 -10.477   6.978  1.00  0.00    -0.305 N 
HETATM   10  O   UNL     1      44.212 -12.043   8.365  1.00  0.00    -0.247 OA
HETATM   11  H   UNL     1      42.949 -10.354   6.018  1.00  0.00     0.171 HD
HETATM   12  H   UNL     1      42.368 -12.342   5.808  1.00  0.00     0.170 HD
BRANCH   9  13
HETATM   13  C   UNL     1      43.455  -9.307   7.686  1.00  0.00     0.086 A 
HETATM   14  C   UNL     1      42.421  -8.475   8.074  1.00  0.00     0.052 A 
HETATM   15  C   UNL     1      40.953  -8.539   7.879  1.00  0.00     0.072 C 
HETATM   16  N   UNL     1      43.006  -7.437   8.741  1.00  0.00    -0.280 N 
HETATM   17  H   UNL     1      42.560  -6.629   9.161  1.00  0.00     0.189 HD
HETATM   18  N   UNL     1      44.332  -7.542   8.846  1.00  0.00    -0.177 NA
HETATM   19  C   UNL     1      44.628  -8.686   8.210  1.00  0.00     0.079 A 
HETATM   20  C   UNL     1      46.048  -9.121   8.187  1.00  0.00     0.075 C 
ENDBRANCH   9  13
ENDBRANCH   1   7
BRANCH   4  21
HETATM   21  O   UNL     1      43.518 -18.217   6.851  1.00  0.00    -0.292 OA
BRANCH  21  22
HETATM   22  C   UNL     1      43.605 -18.869   5.646  1.00  0.00     0.080 A 
HETATM   23  C   UNL     1      43.552 -18.115   4.476  1.00  0.00     0.079 A 
HETATM   24  C   UNL     1      43.688 -18.761   3.253  1.00  0.00     0.119 A 
HETATM   25  F   UNL     1      43.631 -18.048   2.121  1.00  0.00    -0.206 F 
HETATM   26  C   UNL     1      43.891 -20.137   3.184  1.00  0.00     0.042 A 
HETATM   27  C   UNL     1      43.964 -20.884   4.360  1.00  0.00     0.006 A 
HETATM   28  C   UNL     1      43.831 -20.248   5.595  1.00  0.00     0.037 A 
ENDBRANCH  21  22
ENDBRANCH   4  21
TORSDOF 4
ENDMDL
MODEL 5
REMARK VINA RESULT:      -7.9      5.593      7.623
REMARK  4 active torsions:
REMARK  status: ('A' for Active; 'I' for Inactive)
REMARK    1  A    between atoms: C_8  and  N_9 
REMARK       I    between atoms: N_9  and  C_10 
REMARK       I    between atoms: C_10  and  N_11 
REMARK    2  A    between atoms: N_11  and  C_12 
REMARK    3  A    between atoms: C_15  and  O_16 
REMARK    4  A    between atoms: O_16  and  C_17 
ROOT
HETATM    1  C   UNL     1      42.157 -12.707   4.670  1.00  0.00     0.054 A 
HETATM    2  C   UNL     1      41.174 -13.670   4.884  1.00  0.00     0.149 A 
HETATM    3  N   UNL     1      41.086 -14.838   4.196  1.00  0.00    -0.235 NA
HETATM    4  C   UNL     1      42.024 -15.066   3.252  1.00  0.00     0.169 A 
HETATM    5  C   UNL     1      43.052 -14.181   2.973  1.00  0.00     0.060 A 
HETATM    6  C   UNL     1      43.116 -12.987   3.693  1.00  0.00     0.035 A 
ENDROOT
BRANCH   1   7
HETATM    7  N   UNL     1      42.255 -11.475   5.352  1.00  0.00    -0.307 N 
HETATM    8  C   UNL     1      42.940 -11.236   6.535  1.00  0.00     0.325 C 
HETATM    9  N   UNL     1      42.792  -9.918   6.925  1.00  0.00    -0.305 N 
HETATM   10  O   UNL     1      43.582 -12.081   7.140  1.00  0.00    -0.247 OA
HETATM   11  H   UNL     1      42.522  -9.255   6.216  1.00  0.00     0.171 HD
HETATM   12  H   UNL     1      41.685 -10.722   5.000  1.00  0.00     0.170 HD
BRANCH   9  13
HETATM   13  C   UNL     1      43.181  -9.366   8.137  1.00  0.00     0.086 A 
HETATM   14  C   UNL     1      42.264  -9.052   9.123  1.00  0.00     0.052 A 
HETATM   15  C   UNL     1      40.787  -9.166   9.195  1.00  0.00     0.072 C 
HETATM   16  N   UNL     1      42.989  -8.540  10.160  1.00  0.00    -0.280 N 
HETATM   17  H   UNL     1      42.653  -8.192  11.051  1.00  0.00     0.189 HD
HETATM   18  N   UNL     1      44.306  -8.525   9.942  1.00  0.00    -0.177 NA
HETATM   19  C   UNL     1      44.446  -9.034   8.708  1.00  0.00     0.079 A 
HETATM   20  C   UNL     1      45.823  -9.197   8.175  1.00  0.00     0.075 C 
ENDBRANCH   9  13
ENDBRANCH   1   7
BRANCH   4  21
HETATM   21  O   UNL     1      41.995 -16.231   2.490  1.00  0.00    -0.292 OA
BRANCH  21  22
HETATM   22  C   UNL     1      42.707 -17.300   2.976  1.00  0.00     0.080 A 
HETATM   23  C   UNL     1      42.886 -18.409   2.154  1.00  0.00     0.079 A 
HETATM   24  C   UNL     1      43.646 -19.475   2.621  1.00  0.00     0.119 A 
HETATM   25  F   UNL     1      43.819 -20.552   1.842  1.00  0.00    -0.206 F 
HETATM   26  C   UNL     1      44.238 -19.442   3.880  1.00  0.00     0.042 A 
HETATM   27  C   UNL     1      44.072 -18.318   4.691  1.00  0.00     0.006 A 
HETATM   28  C   UNL     1      43.313 -17.240   4.235  1.00  0.00     0.037 A 
ENDBRANCH  21  22
ENDBRANCH   4  21
TORSDOF 4
ENDMDL
MODEL 6
REMARK VINA RESULT:      -7.9      7.757      9.412
REMARK  4 active torsions:
REMARK  status: ('A' for Active; 'I' for Inactive)
REMARK    1  A    between atoms: C_8  and  N_9 
REMARK       I    between atoms: N_9  and  C_10 
REMARK       I    between atoms: C_10  and  N_11 
REMARK    2  A    between atoms: N_11  and  C_12 
REMARK    3  A    between atoms: C_15  and  O_16 
REMARK    4  A    between atoms: O_16  and  C_17 
ROOT
HETATM    1  C   UNL     1      43.678 -11.294   6.386  1.00  0.00     0.054 A 
HETATM    2  C   UNL     1      44.817 -11.749   7.047  1.00  0.00     0.149 A 
HETATM    3  N   UNL     1      45.309 -11.198   8.187  1.00  0.00    -0.235 NA
HETATM    4  C   UNL     1      44.635 -10.148   8.702  1.00  0.00     0.169 A 
HETATM    5  C   UNL     1      43.484  -9.630   8.131  1.00  0.00     0.060 A 
HETATM    6  C   UNL     1      43.003 -10.213   6.957  1.00  0.00     0.035 A 
ENDROOT
BRANCH   1   7
HETATM    7  N   UNL     1      43.161 -11.831   5.187  1.00  0.00    -0.307 N 
HETATM    8  C   UNL     1      42.062 -12.668   5.061  1.00  0.00     0.325 C 
HETATM    9  N   UNL     1      41.867 -13.020   3.738  1.00  0.00    -0.305 N 
HETATM   10  O   UNL     1      41.369 -13.039   5.996  1.00  0.00    -0.247 OA
HETATM   11  H   UNL     1      42.282 -12.427   3.038  1.00  0.00     0.171 HD
HETATM   12  H   UNL     1      43.708 -11.675   4.355  1.00  0.00     0.170 HD
BRANCH   9  13
HETATM   13  C   UNL     1      40.984 -13.976   3.259  1.00  0.00     0.086 A 
HETATM   14  C   UNL     1      39.721 -13.641   2.806  1.00  0.00     0.052 A 
HETATM   15  C   UNL     1      38.998 -12.351   2.713  1.00  0.00     0.072 C 
HETATM   16  N   UNL     1      39.141 -14.813   2.414  1.00  0.00    -0.280 N 
HETATM   17  H   UNL     1      38.210 -14.959   2.038  1.00  0.00     0.189 HD
HETATM   18  N   UNL     1      39.933 -15.879   2.546  1.00  0.00    -0.177 NA
HETATM   19  C   UNL     1      41.072 -15.387   3.057  1.00  0.00     0.079 A 
HETATM   20  C   UNL     1      42.197 -16.330   3.283  1.00  0.00     0.075 C 
ENDBRANCH   9  13
ENDBRANCH   1   7
BRANCH   4  21
HETATM   21  O   UNL     1      45.083  -9.515   9.858  1.00  0.00    -0.292 OA
BRANCH  21  22
HETATM   22  C   UNL     1      44.242  -9.553  10.942  1.00  0.00     0.080 A 
HETATM   23  C   UNL     1      43.776  -8.349  11.466  1.00  0.00     0.079 A 
HETATM   24  C   UNL     1      42.886  -8.381  12.533  1.00  0.00     0.119 A 
HETATM   25  F   UNL     1      42.437  -7.229  13.050  1.00  0.00    -0.206 F 
HETATM   26  C   UNL     1      42.446  -9.587  13.069  1.00  0.00     0.042 A 
HETATM   27  C   UNL     1      42.899 -10.790  12.527  1.00  0.00     0.006 A 
HETATM   28  C   UNL     1      43.792 -10.774  11.454  1.00  0.00     0.037 A 
ENDBRANCH  21  22
ENDBRANCH   4  21
TORSDOF 4
ENDMDL
MODEL 7
REMARK VINA RESULT:      -7.8      2.860      3.400
REMARK  4 active torsions:
REMARK  status: ('A' for Active; 'I' for Inactive)
REMARK    1  A    between atoms: C_8  and  N_9 
REMARK       I    between atoms: N_9  and  C_10 
REMARK       I    between atoms: C_10  and  N_11 
REMARK    2  A    between atoms: N_11  and  C_12 
REMARK    3  A    between atoms: C_15  and  O_16 
REMARK    4  A    between atoms: O_16  and  C_17 
ROOT
HETATM    1  C   UNL     1      40.915 -14.291   1.158  1.00  0.00     0.054 A 
HETATM    2  C   UNL     1      41.652 -13.862   2.259  1.00  0.00     0.149 A 
HETATM    3  N   UNL     1      41.628 -14.466   3.475  1.00  0.00    -0.235 NA
HETATM    4  C   UNL     1      40.839 -15.552   3.607  1.00  0.00     0.169 A 
HETATM    5  C   UNL     1      40.078 -16.068   2.570  1.00  0.00     0.060 A 
HETATM    6  C   UNL     1      40.119 -15.426   1.331  1.00  0.00     0.035 A 
ENDROOT
BRANCH   1   7
HETATM    7  N   UNL     1      40.902 -13.668  -0.109  1.00  0.00    -0.307 N 
HETATM    8  C   UNL     1      40.109 -12.597  -0.497  1.00  0.00     0.325 C 
HETATM    9  N   UNL     1      40.343 -12.272  -1.821  1.00  0.00    -0.305 N 
HETATM   10  O   UNL     1      39.316 -12.028   0.237  1.00  0.00    -0.247 OA
HETATM   11  H   UNL     1      41.212 -12.582  -2.224  1.00  0.00     0.171 HD
HETATM   12  H   UNL     1      41.446 -14.113  -0.832  1.00  0.00     0.170 HD
BRANCH   9  13
HETATM   13  C   UNL     1      39.612 -11.383  -2.594  1.00  0.00     0.086 A 
HETATM   14  C   UNL     1      38.300 -11.634  -2.950  1.00  0.00     0.052 A 
HETATM   15  C   UNL     1      37.385 -12.768  -2.679  1.00  0.00     0.072 C 
HETATM   16  N   UNL     1      37.903 -10.562  -3.696  1.00  0.00    -0.280 N 
HETATM   17  H   UNL     1      37.004 -10.401  -4.138  1.00  0.00     0.189 HD
HETATM   18  N   UNL     1      38.839  -9.620  -3.829  1.00  0.00    -0.177 NA
HETATM   19  C   UNL     1      39.895 -10.101  -3.155  1.00  0.00     0.079 A 
HETATM   20  C   UNL     1      41.111  -9.253  -3.071  1.00  0.00     0.075 C 
ENDBRANCH   9  13
ENDBRANCH   1   7
BRANCH   4  21
HETATM   21  O   UNL     1      40.743 -16.218   4.825  1.00  0.00    -0.292 OA
BRANCH  21  22
HETATM   22  C   UNL     1      41.903 -16.342   5.549  1.00  0.00     0.080 A 
HETATM   23  C   UNL     1      41.936 -15.837   6.846  1.00  0.00     0.079 A 
HETATM   24  C   UNL     1      43.090 -16.002   7.602  1.00  0.00     0.119 A 
HETATM   25  F   UNL     1      43.136 -15.513   8.849  1.00  0.00    -0.206 F 
HETATM   26  C   UNL     1      44.197 -16.672   7.091  1.00  0.00     0.042 A 
HETATM   27  C   UNL     1      44.151 -17.195   5.798  1.00  0.00     0.006 A 
HETATM   28  C   UNL     1      42.998 -17.038   5.028  1.00  0.00     0.037 A 
ENDBRANCH  21  22
ENDBRANCH   4  21
TORSDOF 4
ENDMDL
MODEL 8
REMARK VINA RESULT:      -7.8      3.347      9.420
REMARK  4 active torsions:
REMARK  status: ('A' for Active; 'I' for Inactive)
REMARK    1  A    between atoms: C_8  and  N_9 
REMARK       I    between atoms: N_9  and  C_10 
REMARK       I    between atoms: C_10  and  N_11 
REMARK    2  A    between atoms: N_11  and  C_12 
REMARK    3  A    between atoms: C_15  and  O_16 
REMARK    4  A    between atoms: O_16  and  C_17 
ROOT
HETATM    1  C   UNL     1      41.422 -14.451   0.982  1.00  0.00     0.054 A 
HETATM    2  C   UNL     1      41.404 -13.231   1.653  1.00  0.00     0.149 A 
HETATM    3  N   UNL     1      40.549 -12.216   1.367  1.00  0.00    -0.235 NA
HETATM    4  C   UNL     1      39.662 -12.421   0.371  1.00  0.00     0.169 A 
HETATM    5  C   UNL     1      39.587 -13.604  -0.348  1.00  0.00     0.060 A 
HETATM    6  C   UNL     1      40.481 -14.629  -0.036  1.00  0.00     0.035 A 
ENDROOT
BRANCH   1   7
HETATM    7  N   UNL     1      42.316 -15.513   1.241  1.00  0.00    -0.307 N 
HETATM    8  C   UNL     1      42.228 -16.438   2.271  1.00  0.00     0.325 C 
HETATM    9  N   UNL     1      43.297 -17.314   2.232  1.00  0.00    -0.305 N 
HETATM   10  O   UNL     1      41.325 -16.466   3.094  1.00  0.00    -0.247 OA
HETATM   11  H   UNL     1      43.790 -17.400   1.359  1.00  0.00     0.171 HD
HETATM   12  H   UNL     1      43.157 -15.534   0.685  1.00  0.00     0.170 HD
BRANCH   9  13
HETATM   13  C   UNL     1      43.634 -18.249   3.200  1.00  0.00     0.086 A 
HETATM   14  C   UNL     1      43.699 -19.601   2.915  1.00  0.00     0.052 A 
HETATM   15  C   UNL     1      43.452 -20.380   1.679  1.00  0.00     0.072 C 
HETATM   16  N   UNL     1      44.056 -20.212   4.083  1.00  0.00    -0.280 N 
HETATM   17  H   UNL     1      44.190 -21.202   4.259  1.00  0.00     0.189 HD
HETATM   18  N   UNL     1      44.259 -19.366   5.095  1.00  0.00    -0.177 NA
HETATM   19  C   UNL     1      44.011 -18.155   4.573  1.00  0.00     0.079 A 
HETATM   20  C   UNL     1      44.196 -16.970   5.448  1.00  0.00     0.075 C 
ENDBRANCH   9  13
ENDBRANCH   1   7
BRANCH   4  21
HETATM   21  O   UNL     1      38.763 -11.424   0.003  1.00  0.00    -0.292 OA
BRANCH  21  22
HETATM   22  C   UNL     1      39.017 -10.775  -1.179  1.00  0.00     0.080 A 
HETATM   23  C   UNL     1      40.261 -10.174  -1.355  1.00  0.00     0.079 A 
HETATM   24  C   UNL     1      40.543  -9.557  -2.568  1.00  0.00     0.119 A 
HETATM   25  F   UNL     1      41.733  -8.968  -2.746  1.00  0.00    -0.206 F 
HETATM   26  C   UNL     1      39.614  -9.547  -3.605  1.00  0.00     0.042 A 
HETATM   27  C   UNL     1      38.378 -10.169  -3.431  1.00  0.00     0.006 A 
HETATM   28  C   UNL     1      38.081 -10.794  -2.219  1.00  0.00     0.037 A 
ENDBRANCH  21  22
ENDBRANCH   4  21
TORSDOF 4
ENDMDL
MODEL 9
REMARK VINA RESULT:      -7.7      7.728      9.612
REMARK  4 active torsions:
REMARK  status: ('A' for Active; 'I' for Inactive)
REMARK    1  A    between atoms: C_8  and  N_9 
REMARK       I    between atoms: N_9  and  C_10 
REMARK       I    between atoms: C_10  and  N_11 
REMARK    2  A    between atoms: N_11  and  C_12 
REMARK    3  A    between atoms: C_15  and  O_16 
REMARK    4  A    between atoms: O_16  and  C_17 
ROOT
HETATM    1  C   UNL     1      44.018 -11.258   6.312  1.00  0.00     0.054 A 
HETATM    2  C   UNL     1      43.174 -10.319   6.899  1.00  0.00     0.149 A 
HETATM    3  N   UNL     1      43.472  -9.625   8.028  1.00  0.00    -0.235 NA
HETATM    4  C   UNL     1      44.669  -9.869   8.601  1.00  0.00     0.169 A 
HETATM    5  C   UNL     1      45.587 -10.772   8.088  1.00  0.00     0.060 A 
HETATM    6  C   UNL     1      45.253 -11.474   6.928  1.00  0.00     0.035 A 
ENDROOT
BRANCH   1   7
HETATM    7  N   UNL     1      43.722 -12.011   5.155  1.00  0.00    -0.307 N 
HETATM    8  C   UNL     1      42.693 -12.929   5.005  1.00  0.00     0.325 C 
HETATM    9  N   UNL     1      42.727 -13.498   3.745  1.00  0.00    -0.305 N 
HETATM   10  O   UNL     1      41.874 -13.191   5.873  1.00  0.00    -0.247 OA
HETATM   11  H   UNL     1      43.225 -12.997   3.027  1.00  0.00     0.171 HD
HETATM   12  H   UNL     1      44.389 -11.953   4.401  1.00  0.00     0.170 HD
BRANCH   9  13
HETATM   13  C   UNL     1      41.972 -14.574   3.304  1.00  0.00     0.086 A 
HETATM   14  C   UNL     1      42.350 -15.881   3.553  1.00  0.00     0.052 A 
HETATM   15  C   UNL     1      43.515 -16.473   4.253  1.00  0.00     0.072 C 
HETATM   16  N   UNL     1      41.387 -16.664   2.985  1.00  0.00    -0.280 N 
HETATM   17  H   UNL     1      41.335 -17.676   2.958  1.00  0.00     0.189 HD
HETATM   18  N   UNL     1      40.397 -15.974   2.413  1.00  0.00    -0.177 NA
HETATM   19  C   UNL     1      40.733 -14.689   2.603  1.00  0.00     0.079 A 
HETATM   20  C   UNL     1      39.796 -13.646   2.114  1.00  0.00     0.075 C 
ENDBRANCH   9  13
ENDBRANCH   1   7
BRANCH   4  21
HETATM   21  O   UNL     1      45.044  -9.214   9.770  1.00  0.00    -0.292 OA
BRANCH  21  22
HETATM   22  C   UNL     1      44.226  -9.387  10.859  1.00  0.00     0.080 A 
HETATM   23  C   UNL     1      43.620  -8.266  11.421  1.00  0.00     0.079 A 
HETATM   24  C   UNL     1      42.752  -8.439  12.493  1.00  0.00     0.119 A 
HETATM   25  F   UNL     1      42.169  -7.367  13.048  1.00  0.00    -0.206 F 
HETATM   26  C   UNL     1      42.472  -9.706  12.998  1.00  0.00     0.042 A 
HETATM   27  C   UNL     1      43.067 -10.826  12.417  1.00  0.00     0.006 A 
HETATM   28  C   UNL     1      43.938 -10.668  11.339  1.00  0.00     0.037 A 
ENDBRANCH  21  22
ENDBRANCH   4  21
TORSDOF 4
ENDMDL
MODEL 10
REMARK VINA RESULT:      -7.5      7.663      9.408
REMARK  4 active torsions:
REMARK  status: ('A' for Active; 'I' for Inactive)
REMARK    1  A    between atoms: C_8  and  N_9 
REMARK       I    between atoms: N_9  and  C_10 
REMARK       I    between atoms: C_10  and  N_11 
REMARK    2  A    between atoms: N_11  and  C_12 
REMARK    3  A    between atoms: C_15  and  O_16 
REMARK    4  A    between atoms: O_16  and  C_17 
ROOT
HETATM    1  C   UNL     1      42.991 -11.788   6.476  1.00  0.00     0.054 A 
HETATM    2  C   UNL     1      42.399 -10.545   6.683  1.00  0.00     0.149 A 
HETATM    3  N   UNL     1      42.946  -9.555   7.434  1.00  0.00    -0.235 NA
HETATM    4  C   UNL     1      44.143  -9.806   8.004  1.00  0.00     0.169 A 
HETATM    5  C   UNL     1      44.822 -11.004   7.848  1.00  0.00     0.060 A 
HETATM    6  C   UNL     1      44.235 -12.006   7.073  1.00  0.00     0.035 A 
ENDROOT
BRANCH   1   7
HETATM    7  N   UNL     1      42.433 -12.843   5.722  1.00  0.00    -0.307 N 
HETATM    8  C   UNL     1      42.269 -12.881   4.345  1.00  0.00     0.325 C 
HETATM    9  N   UNL     1      41.659 -14.060   3.958  1.00  0.00    -0.305 N 
HETATM   10  O   UNL     1      42.619 -11.989   3.586  1.00  0.00    -0.247 OA
HETATM   11  H   UNL     1      41.703 -14.834   4.602  1.00  0.00     0.171 HD
HETATM   12  H   UNL     1      42.017 -13.597   6.247  1.00  0.00     0.170 HD
BRANCH   9  13
HETATM   13  C   UNL     1      41.178 -14.366   2.694  1.00  0.00     0.086 A 
HETATM   14  C   UNL     1      39.985 -13.848   2.223  1.00  0.00     0.052 A 
HETATM   15  C   UNL     1      38.973 -12.948   2.826  1.00  0.00     0.072 C 
HETATM   16  N   UNL     1      39.830 -14.351   0.963  1.00  0.00    -0.280 N 
HETATM   17  H   UNL     1      39.066 -14.197   0.314  1.00  0.00     0.189 HD
HETATM   18  N   UNL     1      40.839 -15.128   0.564  1.00  0.00    -0.177 NA
HETATM   19  C   UNL     1      41.681 -15.145   1.609  1.00  0.00     0.079 A 
HETATM   20  C   UNL     1      42.951 -15.901   1.466  1.00  0.00     0.075 C 
ENDBRANCH   9  13
ENDBRANCH   1   7
BRANCH   4  21
HETATM   21  O   UNL     1      44.763  -8.851   8.804  1.00  0.00    -0.292 OA
BRANCH  21  22
HETATM   22  C   UNL     1      43.992  -8.279   9.785  1.00  0.00     0.080 A 
HETATM   23  C   UNL     1      43.909  -8.915  11.022  1.00  0.00     0.079 A 
HETATM   24  C   UNL     1      43.170  -8.317  12.036  1.00  0.00     0.119 A 
HETATM   25  F   UNL     1      43.075  -8.923  13.227  1.00  0.00    -0.206 F 
HETATM   26  C   UNL     1      42.533  -7.095  11.839  1.00  0.00     0.042 A 
HETATM   27  C   UNL     1      42.638  -6.453  10.605  1.00  0.00     0.006 A 
HETATM   28  C   UNL     1      43.377  -7.041   9.578  1.00  0.00     0.037 A 
ENDBRANCH  21  22
ENDBRANCH   4  21
TORSDOF 4
ENDMDL
