MODEL 1
REMARK VINA RESULT:      -8.9      0.000      0.000
REMARK  7 active torsions:
REMARK  status: ('A' for Active; 'I' for Inactive)
REMARK    1  A    between atoms: C_2  and  C_3 
REMARK    2  A    between atoms: C_3  and  C_4 
REMARK    3  A    between atoms: C_7  and  C_8 
REMARK    4  A    between atoms: C_14  and  C_15 
REMARK    5  A    between atoms: C_16  and  O_17 
REMARK    6  A    between atoms: O_17  and  C_18 
REMARK       I    between atoms: C_18  and  N_19 
REMARK    7  A    between atoms: C_33  and  N_34 
ROOT
HETATM    1  C   UNL     1      42.475 -12.535   3.234  1.00  0.00     0.099 A 
HETATM    2  N   UNL     1      43.478 -11.812   3.765  1.00  0.00    -0.172 NA
HETATM    3  N   UNL     1      42.973 -10.571   3.888  1.00  0.00    -0.256 N 
HETATM    4  H   UNL     1      43.546  -9.849   4.310  1.00  0.00     0.191 HD
HETATM    5  C   UNL     1      41.699 -10.474   3.433  1.00  0.00     0.175 A 
HETATM    6  C   UNL     1      41.353 -11.708   2.939  1.00  0.00     0.040 A 
HETATM    7  C   UNL     1      39.982 -11.924   2.382  1.00  0.00     0.108 A 
HETATM    8  C   UNL     1      39.187 -10.626   2.448  1.00  0.00     0.072 A 
HETATM    9  C   UNL     1      37.834 -10.656   1.755  1.00  0.00     0.021 C 
HETATM   10  N   UNL     1      36.712 -10.681   1.180  1.00  0.00    -0.096 N 
HETATM   11  C   UNL     1      39.650  -9.472   2.995  1.00  0.00     0.160 A 
HETATM   12  O   UNL     1      40.955  -9.376   3.509  1.00  0.00    -0.274 OA
ENDROOT
BRANCH   7  13
HETATM   13  C   UNL     1      40.131 -12.562   1.006  1.00  0.00    -0.010 C 
HETATM   14  C   UNL     1      40.657 -11.947  -0.146  1.00  0.00     0.088 C 
HETATM   15  C   UNL     1      40.885 -12.686  -1.321  1.00  0.00     0.038 C 
HETATM   16  C   UNL     1      40.480 -14.013  -1.410  1.00  0.00     0.003 C 
HETATM   17  C   UNL     1      39.858 -14.612  -0.327  1.00  0.00     0.001 C 
HETATM   18  C   UNL     1      39.686 -13.896   0.860  1.00  0.00     0.011 C 
BRANCH  14  19
HETATM   19  O   UNL     1      40.947 -10.566  -0.140  1.00  0.00    -0.261 OA
BRANCH  19  20
HETATM   20  C   UNL     1      40.302  -9.785  -1.116  1.00  0.00     0.368 C 
HETATM   21  N   UNL     1      41.136  -8.863  -1.724  1.00  0.00    -0.324 N 
HETATM   22  C   UNL     1      40.672  -8.188  -2.938  1.00  0.00     0.154 C 
HETATM   23  C   UNL     1      42.571  -8.775  -1.481  1.00  0.00     0.154 C 
HETATM   24  C   UNL     1      41.254  -6.777  -3.056  1.00  0.00     0.187 C 
HETATM   25  O   UNL     1      42.684  -6.789  -2.908  1.00  0.00    -0.388 OA
HETATM   26  C   UNL     1      43.050  -7.327  -1.629  1.00  0.00     0.187 C 
HETATM   27  O   UNL     1      39.116  -9.887  -1.417  1.00  0.00    -0.238 OA
ENDBRANCH  19  20
ENDBRANCH  14  19
ENDBRANCH   7  13
BRANCH  11  28
HETATM   28  N   UNL     1      38.949  -8.296   3.089  1.00  0.00    -0.379 N 
HETATM   29  H   UNL     1      39.143  -7.580   2.394  1.00  0.00     0.158 HD
HETATM   30  H   UNL     1      38.838  -7.958   4.039  1.00  0.00     0.158 HD
ENDBRANCH  11  28
BRANCH   1  31
HETATM   31  C   UNL     1      42.615 -13.971   3.039  1.00  0.00    -0.005 A 
HETATM   32  C   UNL     1      42.034 -14.869   3.940  1.00  0.00     0.014 A 
HETATM   33  C   UNL     1      42.044 -16.240   3.670  1.00  0.00     0.008 A 
HETATM   34  C   UNL     1      42.646 -16.738   2.505  1.00  0.00    -0.058 A 
HETATM   35  C   UNL     1      43.327 -15.842   1.672  1.00  0.00     0.008 A 
HETATM   36  C   UNL     1      43.300 -14.467   1.928  1.00  0.00     0.014 A 
BRANCH  34  37
HETATM   37  C   UNL     1      42.567 -18.224   2.221  1.00  0.00     0.042 C 
BRANCH  37  38
HETATM   38  C   UNL     1      43.840 -19.064   2.469  1.00  0.00    -0.019 C 
HETATM   39  C   UNL     1      43.722 -20.495   1.935  1.00  0.00     0.010 C 
HETATM   40  C   UNL     1      44.137 -19.112   3.972  1.00  0.00     0.010 C 
ENDBRANCH  37  38
ENDBRANCH  34  37
ENDBRANCH   1  31
TORSDOF 7
ENDMDL
MODEL 2
REMARK VINA RESULT:      -8.4      2.637      5.907
REMARK  7 active torsions:
REMARK  status: ('A' for Active; 'I' for Inactive)
REMARK    1  A    between atoms: C_2  and  C_3 
REMARK    2  A    between atoms: C_3  and  C_4 
REMARK    3  A    between atoms: C_7  and  C_8 
REMARK    4  A    between atoms: C_14  and  C_15 
REMARK    5  A    between atoms: C_16  and  O_17 
REMARK    6  A    between atoms: O_17  and  C_18 
REMARK       I    between atoms: C_18  and  N_19 
REMARK    7  A    between atoms: C_33  and  N_34 
ROOT
HETATM    1  C   UNL     1      40.126 -14.944   0.299  1.00  0.00     0.099 A 
HETATM    2  N   UNL     1      39.450 -15.698  -0.588  1.00  0.00    -0.172 NA
HETATM    3  N   UNL     1      39.242 -14.882  -1.637  1.00  0.00    -0.256 N 
HETATM    4  H   UNL     1      38.776 -15.250  -2.458  1.00  0.00     0.191 HD
HETATM    5  C   UNL     1      39.738 -13.635  -1.441  1.00  0.00     0.175 A 
HETATM    6  C   UNL     1      40.264 -13.607  -0.173  1.00  0.00     0.040 A 
HETATM    7  C   UNL     1      40.914 -12.357   0.330  1.00  0.00     0.108 A 
HETATM    8  C   UNL     1      40.829 -11.267  -0.731  1.00  0.00     0.072 A 
HETATM    9  C   UNL     1      41.295  -9.889  -0.287  1.00  0.00     0.021 C 
HETATM   10  N   UNL     1      41.681  -8.747   0.081  1.00  0.00    -0.096 N 
HETATM   11  C   UNL     1      40.298 -11.443  -1.969  1.00  0.00     0.160 A 
HETATM   12  O   UNL     1      39.724 -12.668  -2.352  1.00  0.00    -0.274 OA
ENDROOT
BRANCH   7  13
HETATM   13  C   UNL     1      40.309 -12.030   1.691  1.00  0.00    -0.010 C 
HETATM   14  C   UNL     1      40.972 -12.080   2.932  1.00  0.00     0.088 C 
HETATM   15  C   UNL     1      40.352 -11.610   4.103  1.00  0.00     0.038 C 
HETATM   16  C   UNL     1      39.024 -11.198   4.083  1.00  0.00     0.003 C 
HETATM   17  C   UNL     1      38.312 -11.243   2.895  1.00  0.00     0.001 C 
HETATM   18  C   UNL     1      38.947 -11.654   1.720  1.00  0.00     0.011 C 
BRANCH  14  19
HETATM   19  O   UNL     1      42.271 -12.626   3.017  1.00  0.00    -0.261 OA
BRANCH  19  20
HETATM   20  C   UNL     1      43.266 -11.796   3.563  1.00  0.00     0.368 C 
HETATM   21  N   UNL     1      43.657 -12.168   4.837  1.00  0.00    -0.324 N 
HETATM   22  C   UNL     1      44.867 -11.569   5.406  1.00  0.00     0.154 C 
HETATM   23  C   UNL     1      43.188 -13.370   5.517  1.00  0.00     0.154 C 
HETATM   24  C   UNL     1      44.774 -11.447   6.929  1.00  0.00     0.187 C 
HETATM   25  O   UNL     1      44.408 -12.699   7.531  1.00  0.00    -0.388 OA
HETATM   26  C   UNL     1      43.137 -13.142   7.031  1.00  0.00     0.187 C 
HETATM   27  O   UNL     1      43.754 -10.825   2.991  1.00  0.00    -0.238 OA
ENDBRANCH  19  20
ENDBRANCH  14  19
ENDBRANCH   7  13
BRANCH  11  28
HETATM   28  N   UNL     1      40.229 -10.489  -2.951  1.00  0.00    -0.379 N 
HETATM   29  H   UNL     1      40.943 -10.510  -3.675  1.00  0.00     0.158 HD
HETATM   30  H   UNL     1      39.986  -9.564  -2.611  1.00  0.00     0.158 HD
ENDBRANCH  11  28
BRANCH   1  31
HETATM   31  C   UNL     1      40.619 -15.519   1.542  1.00  0.00    -0.005 A 
HETATM   32  C   UNL     1      41.936 -15.981   1.636  1.00  0.00     0.014 A 
HETATM   33  C   UNL     1      42.448 -16.395   2.869  1.00  0.00     0.008 A 
HETATM   34  C   UNL     1      41.652 -16.367   4.023  1.00  0.00    -0.058 A 
HETATM   35  C   UNL     1      40.303 -16.015   3.893  1.00  0.00     0.008 A 
HETATM   36  C   UNL     1      39.793 -15.580   2.666  1.00  0.00     0.014 A 
BRANCH  34  37
HETATM   37  C   UNL     1      42.274 -16.756   5.348  1.00  0.00     0.042 C 
BRANCH  37  38
HETATM   38  C   UNL     1      43.743 -17.237   5.330  1.00  0.00    -0.019 C 
HETATM   39  C   UNL     1      43.870 -18.762   5.412  1.00  0.00     0.010 C 
HETATM   40  C   UNL     1      44.503 -16.607   6.502  1.00  0.00     0.010 C 
ENDBRANCH  37  38
ENDBRANCH  34  37
ENDBRANCH   1  31
TORSDOF 7
ENDMDL
MODEL 3
REMARK VINA RESULT:      -8.2      1.811      2.717
REMARK  7 active torsions:
REMARK  status: ('A' for Active; 'I' for Inactive)
REMARK    1  A    between atoms: C_2  and  C_3 
REMARK    2  A    between atoms: C_3  and  C_4 
REMARK    3  A    between atoms: C_7  and  C_8 
REMARK    4  A    between atoms: C_14  and  C_15 
REMARK    5  A    between atoms: C_16  and  O_17 
REMARK    6  A    between atoms: O_17  and  C_18 
REMARK       I    between atoms: C_18  and  N_19 
REMARK    7  A    between atoms: C_33  and  N_34 
ROOT
HETATM    1  C   UNL     1      39.994 -11.942   1.994  1.00  0.00     0.099 A 
HETATM    2  N   UNL     1      40.425 -11.126   2.973  1.00  0.00    -0.172 NA
HETATM    3  N   UNL     1      39.738  -9.984   2.789  1.00  0.00    -0.256 N 
HETATM    4  H   UNL     1      39.870  -9.223   3.445  1.00  0.00     0.191 HD
HETATM    5  C   UNL     1      38.908 -10.036   1.718  1.00  0.00     0.175 A 
HETATM    6  C   UNL     1      39.087 -11.264   1.130  1.00  0.00     0.040 A 
HETATM    7  C   UNL     1      38.282 -11.630  -0.076  1.00  0.00     0.108 A 
HETATM    8  C   UNL     1      37.376 -10.469  -0.466  1.00  0.00     0.072 A 
HETATM    9  C   UNL     1      36.629 -10.638  -1.779  1.00  0.00     0.021 C 
HETATM   10  N   UNL     1      36.010 -10.779  -2.868  1.00  0.00    -0.096 N 
HETATM   11  C   UNL     1      37.279  -9.307   0.231  1.00  0.00     0.160 A 
HETATM   12  O   UNL     1      38.071  -9.065   1.367  1.00  0.00    -0.274 OA
ENDROOT
BRANCH   7  13
HETATM   13  C   UNL     1      39.245 -12.131  -1.147  1.00  0.00    -0.010 C 
HETATM   14  C   UNL     1      40.205 -11.361  -1.831  1.00  0.00     0.088 C 
HETATM   15  C   UNL     1      41.140 -11.967  -2.689  1.00  0.00     0.038 C 
HETATM   16  C   UNL     1      41.059 -13.325  -2.977  1.00  0.00     0.003 C 
HETATM   17  C   UNL     1      40.053 -14.086  -2.403  1.00  0.00     0.001 C 
HETATM   18  C   UNL     1      39.162 -13.496  -1.504  1.00  0.00     0.011 C 
BRANCH  14  19
HETATM   19  O   UNL     1      40.227  -9.958  -1.676  1.00  0.00    -0.261 OA
BRANCH  19  20
HETATM   20  C   UNL     1      41.382  -9.410  -1.090  1.00  0.00     0.368 C 
HETATM   21  N   UNL     1      41.807  -8.242  -1.698  1.00  0.00    -0.324 N 
HETATM   22  C   UNL     1      42.818  -7.425  -1.023  1.00  0.00     0.154 C 
HETATM   23  C   UNL     1      41.078  -7.562  -2.762  1.00  0.00     0.154 C 
HETATM   24  C   UNL     1      43.701  -6.677  -2.025  1.00  0.00     0.187 C 
HETATM   25  O   UNL     1      42.908  -5.950  -2.977  1.00  0.00    -0.388 OA
HETATM   26  C   UNL     1      42.051  -6.845  -3.703  1.00  0.00     0.187 C 
HETATM   27  O   UNL     1      41.978  -9.900  -0.135  1.00  0.00    -0.238 OA
ENDBRANCH  19  20
ENDBRANCH  14  19
ENDBRANCH   7  13
BRANCH  11  28
HETATM   28  N   UNL     1      36.457  -8.255  -0.082  1.00  0.00    -0.379 N 
HETATM   29  H   UNL     1      35.731  -8.419  -0.775  1.00  0.00     0.158 HD
HETATM   30  H   UNL     1      36.938  -7.365  -0.163  1.00  0.00     0.158 HD
ENDBRANCH  11  28
BRANCH   1  31
HETATM   31  C   UNL     1      40.449 -13.324   1.922  1.00  0.00    -0.005 A 
HETATM   32  C   UNL     1      41.706 -13.630   1.391  1.00  0.00     0.014 A 
HETATM   33  C   UNL     1      42.197 -14.936   1.458  1.00  0.00     0.008 A 
HETATM   34  C   UNL     1      41.437 -15.960   2.044  1.00  0.00    -0.058 A 
HETATM   35  C   UNL     1      40.134 -15.665   2.464  1.00  0.00     0.008 A 
HETATM   36  C   UNL     1      39.648 -14.355   2.417  1.00  0.00     0.014 A 
BRANCH  34  37
HETATM   37  C   UNL     1      42.043 -17.343   2.159  1.00  0.00     0.042 C 
BRANCH  37  38
HETATM   38  C   UNL     1      43.396 -17.468   2.894  1.00  0.00    -0.019 C 
HETATM   39  C   UNL     1      43.945 -18.898   2.891  1.00  0.00     0.010 C 
HETATM   40  C   UNL     1      43.239 -16.994   4.343  1.00  0.00     0.010 C 
ENDBRANCH  37  38
ENDBRANCH  34  37
ENDBRANCH   1  31
TORSDOF 7
ENDMDL
MODEL 4
REMARK VINA RESULT:      -8.2      2.319      4.483
REMARK  7 active torsions:
REMARK  status: ('A' for Active; 'I' for Inactive)
REMARK    1  A    between atoms: C_2  and  C_3 
REMARK    2  A    between atoms: C_3  and  C_4 
REMARK    3  A    between atoms: C_7  and  C_8 
REMARK    4  A    between atoms: C_14  and  C_15 
REMARK    5  A    between atoms: C_16  and  O_17 
REMARK    6  A    between atoms: O_17  and  C_18 
REMARK       I    between atoms: C_18  and  N_19 
REMARK    7  A    between atoms: C_33  and  N_34 
ROOT
HETATM    1  C   UNL     1      40.375 -14.639   0.268  1.00  0.00     0.099 A 
HETATM    2  N   UNL     1      39.412 -15.342  -0.354  1.00  0.00    -0.172 NA
HETATM    3  N   UNL     1      38.950 -14.513  -1.308  1.00  0.00    -0.256 N 
HETATM    4  H   UNL     1      38.232 -14.847  -1.941  1.00  0.00     0.191 HD
HETATM    5  C   UNL     1      39.566 -13.305  -1.298  1.00  0.00     0.175 A 
HETATM    6  C   UNL     1      40.454 -13.315  -0.251  1.00  0.00     0.040 A 
HETATM    7  C   UNL     1      41.309 -12.114   0.004  1.00  0.00     0.108 A 
HETATM    8  C   UNL     1      40.980 -11.021  -1.004  1.00  0.00     0.072 A 
HETATM    9  C   UNL     1      41.651  -9.680  -0.753  1.00  0.00     0.021 C 
HETATM   10  N   UNL     1      42.208  -8.568  -0.543  1.00  0.00    -0.096 N 
HETATM   11  C   UNL     1      40.086 -11.158  -2.018  1.00  0.00     0.160 A 
HETATM   12  O   UNL     1      39.340 -12.339  -2.183  1.00  0.00    -0.274 OA
ENDROOT
BRANCH   7  13
HETATM   13  C   UNL     1      41.172 -11.746   1.477  1.00  0.00    -0.010 C 
HETATM   14  C   UNL     1      39.996 -11.324   2.125  1.00  0.00     0.088 C 
HETATM   15  C   UNL     1      39.958 -11.159   3.521  1.00  0.00     0.038 C 
HETATM   16  C   UNL     1      41.115 -11.290   4.279  1.00  0.00     0.003 C 
HETATM   17  C   UNL     1      42.313 -11.597   3.652  1.00  0.00     0.001 C 
HETATM   18  C   UNL     1      42.337 -11.820   2.273  1.00  0.00     0.011 C 
BRANCH  14  19
HETATM   19  O   UNL     1      38.836 -11.041   1.371  1.00  0.00    -0.261 OA
BRANCH  19  20
HETATM   20  C   UNL     1      38.587  -9.687   1.087  1.00  0.00     0.368 C 
HETATM   21  N   UNL     1      37.591  -9.494   0.146  1.00  0.00    -0.324 N 
HETATM   22  C   UNL     1      37.043  -8.148  -0.034  1.00  0.00     0.154 C 
HETATM   23  C   UNL     1      36.782 -10.568  -0.418  1.00  0.00     0.154 C 
HETATM   24  C   UNL     1      36.585  -7.913  -1.476  1.00  0.00     0.187 C 
HETATM   25  O   UNL     1      35.710  -8.961  -1.922  1.00  0.00    -0.388 OA
HETATM   26  C   UNL     1      36.375 -10.231  -1.856  1.00  0.00     0.187 C 
HETATM   27  O   UNL     1      39.183  -8.746   1.605  1.00  0.00    -0.238 OA
ENDBRANCH  19  20
ENDBRANCH  14  19
ENDBRANCH   7  13
BRANCH  11  28
HETATM   28  N   UNL     1      39.786 -10.201  -2.953  1.00  0.00    -0.379 N 
HETATM   29  H   UNL     1      38.857  -9.790  -2.919  1.00  0.00     0.158 HD
HETATM   30  H   UNL     1      40.133 -10.410  -3.883  1.00  0.00     0.158 HD
ENDBRANCH  11  28
BRANCH   1  31
HETATM   31  C   UNL     1      41.184 -15.248   1.315  1.00  0.00    -0.005 A 
HETATM   32  C   UNL     1      40.582 -15.756   2.470  1.00  0.00     0.014 A 
HETATM   33  C   UNL     1      41.342 -16.469   3.402  1.00  0.00     0.008 A 
HETATM   34  C   UNL     1      42.715 -16.675   3.202  1.00  0.00    -0.058 A 
HETATM   35  C   UNL     1      43.327 -16.062   2.102  1.00  0.00     0.008 A 
HETATM   36  C   UNL     1      42.567 -15.366   1.157  1.00  0.00     0.014 A 
BRANCH  34  37
HETATM   37  C   UNL     1      43.479 -17.517   4.203  1.00  0.00     0.042 C 
BRANCH  37  38
HETATM   38  C   UNL     1      44.189 -18.783   3.672  1.00  0.00    -0.019 C 
HETATM   39  C   UNL     1      43.459 -19.420   2.485  1.00  0.00     0.010 C 
HETATM   40  C   UNL     1      44.308 -19.814   4.799  1.00  0.00     0.010 C 
ENDBRANCH  37  38
ENDBRANCH  34  37
ENDBRANCH   1  31
TORSDOF 7
ENDMDL
MODEL 5
REMARK VINA RESULT:      -7.9     10.314     13.198
REMARK  7 active torsions:
REMARK  status: ('A' for Active; 'I' for Inactive)
REMARK    1  A    between atoms: C_2  and  C_3 
REMARK    2  A    between atoms: C_3  and  C_4 
REMARK    3  A    between atoms: C_7  and  C_8 
REMARK    4  A    between atoms: C_14  and  C_15 
REMARK    5  A    between atoms: C_16  and  O_17 
REMARK    6  A    between atoms: O_17  and  C_18 
REMARK       I    between atoms: C_18  and  N_19 
REMARK    7  A    between atoms: C_33  and  N_34 
ROOT
HETATM    1  C   UNL     1      40.708  -7.178  15.307  1.00  0.00     0.099 A 
HETATM    2  N   UNL     1      40.746  -7.442  16.626  1.00  0.00    -0.172 NA
HETATM    3  N   UNL     1      39.831  -6.614  17.164  1.00  0.00    -0.256 N 
HETATM    4  H   UNL     1      39.654  -6.663  18.160  1.00  0.00     0.191 HD
HETATM    5  C   UNL     1      39.234  -5.820  16.241  1.00  0.00     0.175 A 
HETATM    6  C   UNL     1      39.815  -6.103  15.030  1.00  0.00     0.040 A 
HETATM    7  C   UNL     1      39.344  -5.394  13.800  1.00  0.00     0.108 A 
HETATM    8  C   UNL     1      38.250  -4.398  14.164  1.00  0.00     0.072 A 
HETATM    9  C   UNL     1      37.802  -3.483  13.036  1.00  0.00     0.021 C 
HETATM   10  N   UNL     1      37.430  -2.724  12.100  1.00  0.00    -0.096 N 
HETATM   11  C   UNL     1      37.745  -4.240  15.415  1.00  0.00     0.160 A 
HETATM   12  O   UNL     1      38.248  -4.969  16.506  1.00  0.00    -0.274 OA
ENDROOT
BRANCH   7  13
HETATM   13  C   UNL     1      40.568  -4.831  13.086  1.00  0.00    -0.010 C 
HETATM   14  C   UNL     1      41.044  -5.214  11.818  1.00  0.00     0.088 C 
HETATM   15  C   UNL     1      42.095  -4.515  11.199  1.00  0.00     0.038 C 
HETATM   16  C   UNL     1      42.770  -3.507  11.877  1.00  0.00     0.003 C 
HETATM   17  C   UNL     1      42.394  -3.184  13.171  1.00  0.00     0.001 C 
HETATM   18  C   UNL     1      41.311  -3.837  13.764  1.00  0.00     0.011 C 
BRANCH  14  19
HETATM   19  O   UNL     1      40.479  -6.326  11.158  1.00  0.00    -0.261 OA
BRANCH  19  20
HETATM   20  C   UNL     1      39.682  -6.049  10.033  1.00  0.00     0.368 C 
HETATM   21  N   UNL     1      39.590  -7.109   9.148  1.00  0.00    -0.324 N 
HETATM   22  C   UNL     1      38.580  -7.057   8.089  1.00  0.00     0.154 C 
HETATM   23  C   UNL     1      40.152  -8.432   9.396  1.00  0.00     0.154 C 
HETATM   24  C   UNL     1      39.039  -7.802   6.833  1.00  0.00     0.187 C 
HETATM   25  O   UNL     1      39.482  -9.132   7.148  1.00  0.00    -0.388 OA
HETATM   26  C   UNL     1      40.574  -9.088   8.078  1.00  0.00     0.187 C 
HETATM   27  O   UNL     1      39.115  -4.979   9.827  1.00  0.00    -0.238 OA
ENDBRANCH  19  20
ENDBRANCH  14  19
ENDBRANCH   7  13
BRANCH  11  28
HETATM   28  N   UNL     1      36.746  -3.369  15.768  1.00  0.00    -0.379 N 
HETATM   29  H   UNL     1      36.901  -2.787  16.587  1.00  0.00     0.158 HD
HETATM   30  H   UNL     1      35.812  -3.756  15.683  1.00  0.00     0.158 HD
ENDBRANCH  11  28
BRANCH   1  31
HETATM   31  C   UNL     1      41.505  -7.956  14.369  1.00  0.00    -0.005 A 
HETATM   32  C   UNL     1      41.004  -9.145  13.830  1.00  0.00     0.014 A 
HETATM   33  C   UNL     1      41.708  -9.810  12.822  1.00  0.00     0.008 A 
HETATM   34  C   UNL     1      42.927  -9.306  12.345  1.00  0.00    -0.058 A 
HETATM   35  C   UNL     1      43.474  -8.181  12.975  1.00  0.00     0.008 A 
HETATM   36  C   UNL     1      42.763  -7.502  13.969  1.00  0.00     0.014 A 
BRANCH  34  37
HETATM   37  C   UNL     1      43.615 -10.022  11.201  1.00  0.00     0.042 C 
BRANCH  37  38
HETATM   38  C   UNL     1      44.598  -9.200  10.337  1.00  0.00    -0.019 C 
HETATM   39  C   UNL     1      43.889  -8.199   9.418  1.00  0.00     0.010 C 
HETATM   40  C   UNL     1      45.446 -10.149   9.484  1.00  0.00     0.010 C 
ENDBRANCH  37  38
ENDBRANCH  34  37
ENDBRANCH   1  31
TORSDOF 7
ENDMDL
MODEL 6
REMARK VINA RESULT:      -7.6     11.947     14.960
REMARK  7 active torsions:
REMARK  status: ('A' for Active; 'I' for Inactive)
REMARK    1  A    between atoms: C_2  and  C_3 
REMARK    2  A    between atoms: C_3  and  C_4 
REMARK    3  A    between atoms: C_7  and  C_8 
REMARK    4  A    between atoms: C_14  and  C_15 
REMARK    5  A    between atoms: C_16  and  O_17 
REMARK    6  A    between atoms: O_17  and  C_18 
REMARK       I    between atoms: C_18  and  N_19 
REMARK    7  A    between atoms: C_33  and  N_34 
ROOT
HETATM    1  C   UNL     1      40.336  -6.976  15.004  1.00  0.00     0.099 A 
HETATM    2  N   UNL     1      40.297  -7.068  16.346  1.00  0.00    -0.172 NA
HETATM    3  N   UNL     1      39.278  -6.269  16.711  1.00  0.00    -0.256 N 
HETATM    4  H   UNL     1      39.031  -6.209  17.692  1.00  0.00     0.191 HD
HETATM    5  C   UNL     1      38.686  -5.656  15.656  1.00  0.00     0.175 A 
HETATM    6  C   UNL     1      39.378  -6.033  14.532  1.00  0.00     0.040 A 
HETATM    7  C   UNL     1      38.942  -5.531  13.192  1.00  0.00     0.108 A 
HETATM    8  C   UNL     1      37.744  -4.604  13.353  1.00  0.00     0.072 A 
HETATM    9  C   UNL     1      37.305  -3.883  12.088  1.00  0.00     0.021 C 
HETATM   10  N   UNL     1      36.941  -3.285  11.039  1.00  0.00    -0.096 N 
HETATM   11  C   UNL     1      37.135  -4.338  14.537  1.00  0.00     0.160 A 
HETATM   12  O   UNL     1      37.615  -4.875  15.745  1.00  0.00    -0.274 OA
ENDROOT
BRANCH   7  13
HETATM   13  C   UNL     1      40.164  -4.949  12.490  1.00  0.00    -0.010 C 
HETATM   14  C   UNL     1      40.855  -3.778  12.852  1.00  0.00     0.088 C 
HETATM   15  C   UNL     1      42.060  -3.423  12.220  1.00  0.00     0.038 C 
HETATM   16  C   UNL     1      42.532  -4.157  11.137  1.00  0.00     0.003 C 
HETATM   17  C   UNL     1      41.811  -5.252  10.688  1.00  0.00     0.001 C 
HETATM   18  C   UNL     1      40.646  -5.639  11.354  1.00  0.00     0.011 C 
BRANCH  14  19
HETATM   19  O   UNL     1      40.331  -2.928  13.851  1.00  0.00    -0.261 OA
BRANCH  19  20
HETATM   20  C   UNL     1      41.183  -1.913  14.320  1.00  0.00     0.368 C 
HETATM   21  N   UNL     1      41.746  -2.192  15.553  1.00  0.00    -0.324 N 
HETATM   22  C   UNL     1      42.856  -1.360  16.024  1.00  0.00     0.154 C 
HETATM   23  C   UNL     1      41.586  -3.459  16.256  1.00  0.00     0.154 C 
HETATM   24  C   UNL     1      42.870  -1.249  17.551  1.00  0.00     0.187 C 
HETATM   25  O   UNL     1      42.813  -2.545  18.168  1.00  0.00    -0.388 OA
HETATM   26  C   UNL     1      41.619  -3.236  17.772  1.00  0.00     0.187 C 
HETATM   27  O   UNL     1      41.418  -0.868  13.720  1.00  0.00    -0.238 OA
ENDBRANCH  19  20
ENDBRANCH  14  19
ENDBRANCH   7  13
BRANCH  11  28
HETATM   28  N   UNL     1      36.042  -3.527  14.709  1.00  0.00    -0.379 N 
HETATM   29  H   UNL     1      35.928  -2.752  14.060  1.00  0.00     0.158 HD
HETATM   30  H   UNL     1      35.837  -3.312  15.679  1.00  0.00     0.158 HD
ENDBRANCH  11  28
BRANCH   1  31
HETATM   31  C   UNL     1      41.263  -7.787  14.228  1.00  0.00    -0.005 A 
HETATM   32  C   UNL     1      40.865  -9.027  13.719  1.00  0.00     0.014 A 
HETATM   33  C   UNL     1      41.707  -9.734  12.854  1.00  0.00     0.008 A 
HETATM   34  C   UNL     1      42.962  -9.221  12.495  1.00  0.00    -0.058 A 
HETATM   35  C   UNL     1      43.396  -8.037  13.104  1.00  0.00     0.008 A 
HETATM   36  C   UNL     1      42.549  -7.317  13.953  1.00  0.00     0.014 A 
BRANCH  34  37
HETATM   37  C   UNL     1      43.805  -9.987  11.498  1.00  0.00     0.042 C 
BRANCH  37  38
HETATM   38  C   UNL     1      44.529  -9.172  10.403  1.00  0.00    -0.019 C 
HETATM   39  C   UNL     1      43.563  -8.385   9.511  1.00  0.00     0.010 C 
HETATM   40  C   UNL     1      45.363 -10.115   9.529  1.00  0.00     0.010 C 
ENDBRANCH  37  38
ENDBRANCH  34  37
ENDBRANCH   1  31
TORSDOF 7
ENDMDL
MODEL 7
REMARK VINA RESULT:      -7.6     17.472     20.271
REMARK  7 active torsions:
REMARK  status: ('A' for Active; 'I' for Inactive)
REMARK    1  A    between atoms: C_2  and  C_3 
REMARK    2  A    between atoms: C_3  and  C_4 
REMARK    3  A    between atoms: C_7  and  C_8 
REMARK    4  A    between atoms: C_14  and  C_15 
REMARK    5  A    between atoms: C_16  and  O_17 
REMARK    6  A    between atoms: O_17  and  C_18 
REMARK       I    between atoms: C_18  and  N_19 
REMARK    7  A    between atoms: C_33  and  N_34 
ROOT
HETATM    1  C   UNL     1      46.473 -32.825  -1.021  1.00  0.00     0.099 A 
HETATM    2  N   UNL     1      47.428 -33.534  -0.392  1.00  0.00    -0.172 NA
HETATM    3  N   UNL     1      47.219 -33.298   0.916  1.00  0.00    -0.256 N 
HETATM    4  H   UNL     1      47.805 -33.767   1.598  1.00  0.00     0.191 HD
HETATM    5  C   UNL     1      46.185 -32.449   1.139  1.00  0.00     0.175 A 
HETATM    6  C   UNL     1      45.709 -32.063  -0.090  1.00  0.00     0.040 A 
HETATM    7  C   UNL     1      44.539 -31.135  -0.172  1.00  0.00     0.108 A 
HETATM    8  C   UNL     1      44.090 -30.745   1.231  1.00  0.00     0.072 A 
HETATM    9  C   UNL     1      43.019 -29.667   1.294  1.00  0.00     0.021 C 
HETATM   10  N   UNL     1      42.132 -28.773   1.346  1.00  0.00    -0.096 N 
HETATM   11  C   UNL     1      44.640 -31.230   2.373  1.00  0.00     0.160 A 
HETATM   12  O   UNL     1      45.732 -32.114   2.343  1.00  0.00    -0.274 OA
ENDROOT
BRANCH   7  13
HETATM   13  C   UNL     1      44.912 -29.993  -1.110  1.00  0.00    -0.010 C 
HETATM   14  C   UNL     1      45.959 -29.070  -0.926  1.00  0.00     0.088 C 
HETATM   15  C   UNL     1      46.302 -28.154  -1.935  1.00  0.00     0.038 C 
HETATM   16  C   UNL     1      45.536 -28.056  -3.091  1.00  0.00     0.003 C 
HETATM   17  C   UNL     1      44.431 -28.878  -3.250  1.00  0.00     0.001 C 
HETATM   18  C   UNL     1      44.126 -29.829  -2.274  1.00  0.00     0.011 C 
BRANCH  14  19
HETATM   19  O   UNL     1      46.669 -29.042   0.294  1.00  0.00    -0.261 OA
BRANCH  19  20
HETATM   20  C   UNL     1      47.957 -29.604   0.283  1.00  0.00     0.368 C 
HETATM   21  N   UNL     1      48.534 -29.686   1.539  1.00  0.00    -0.324 N 
HETATM   22  C   UNL     1      49.742 -30.498   1.707  1.00  0.00     0.154 C 
HETATM   23  C   UNL     1      47.845 -29.345   2.778  1.00  0.00     0.154 C 
HETATM   24  C   UNL     1      50.647 -29.940   2.808  1.00  0.00     0.187 C 
HETATM   25  O   UNL     1      49.916 -29.727   4.026  1.00  0.00    -0.388 OA
HETATM   26  C   UNL     1      48.840 -28.803   3.809  1.00  0.00     0.187 C 
HETATM   27  O   UNL     1      48.541 -29.989  -0.726  1.00  0.00    -0.238 OA
ENDBRANCH  19  20
ENDBRANCH  14  19
ENDBRANCH   7  13
BRANCH  11  28
HETATM   28  N   UNL     1      44.243 -30.914   3.647  1.00  0.00    -0.379 N 
HETATM   29  H   UNL     1      44.797 -30.228   4.154  1.00  0.00     0.158 HD
HETATM   30  H   UNL     1      43.938 -31.713   4.194  1.00  0.00     0.158 HD
ENDBRANCH  11  28
BRANCH   1  31
HETATM   31  C   UNL     1      46.316 -32.905  -2.466  1.00  0.00    -0.005 A 
HETATM   32  C   UNL     1      45.404 -33.802  -3.032  1.00  0.00     0.014 A 
HETATM   33  C   UNL     1      45.151 -33.772  -4.406  1.00  0.00     0.008 A 
HETATM   34  C   UNL     1      45.813 -32.858  -5.239  1.00  0.00    -0.058 A 
HETATM   35  C   UNL     1      46.808 -32.048  -4.679  1.00  0.00     0.008 A 
HETATM   36  C   UNL     1      47.049 -32.060  -3.302  1.00  0.00     0.014 A 
BRANCH  34  37
HETATM   37  C   UNL     1      45.450 -32.815  -6.709  1.00  0.00     0.042 C 
BRANCH  37  38
HETATM   38  C   UNL     1      44.814 -31.514  -7.247  1.00  0.00    -0.019 C 
HETATM   39  C   UNL     1      43.838 -30.874  -6.254  1.00  0.00     0.010 C 
HETATM   40  C   UNL     1      44.075 -31.808  -8.556  1.00  0.00     0.010 C 
ENDBRANCH  37  38
ENDBRANCH  34  37
ENDBRANCH   1  31
TORSDOF 7
ENDMDL
MODEL 8
REMARK VINA RESULT:      -7.5     17.626     20.973
REMARK  7 active torsions:
REMARK  status: ('A' for Active; 'I' for Inactive)
REMARK    1  A    between atoms: C_2  and  C_3 
REMARK    2  A    between atoms: C_3  and  C_4 
REMARK    3  A    between atoms: C_7  and  C_8 
REMARK    4  A    between atoms: C_14  and  C_15 
REMARK    5  A    between atoms: C_16  and  O_17 
REMARK    6  A    between atoms: O_17  and  C_18 
REMARK       I    between atoms: C_18  and  N_19 
REMARK    7  A    between atoms: C_33  and  N_34 
ROOT
HETATM    1  C   UNL     1      47.736 -28.635   1.277  1.00  0.00     0.099 A 
HETATM    2  N   UNL     1      47.745 -27.589   2.124  1.00  0.00    -0.172 NA
HETATM    3  N   UNL     1      48.525 -27.989   3.146  1.00  0.00    -0.256 N 
HETATM    4  H   UNL     1      48.713 -27.339   3.900  1.00  0.00     0.191 HD
HETATM    5  C   UNL     1      48.989 -29.253   2.990  1.00  0.00     0.175 A 
HETATM    6  C   UNL     1      48.452 -29.738   1.823  1.00  0.00     0.040 A 
HETATM    7  C   UNL     1      48.804 -31.118   1.366  1.00  0.00     0.108 A 
HETATM    8  C   UNL     1      49.734 -31.777   2.376  1.00  0.00     0.072 A 
HETATM    9  C   UNL     1      50.031 -33.247   2.125  1.00  0.00     0.021 C 
HETATM   10  N   UNL     1      50.277 -34.466   1.916  1.00  0.00    -0.096 N 
HETATM   11  C   UNL     1      50.214 -31.163   3.488  1.00  0.00     0.160 A 
HETATM   12  O   UNL     1      49.834 -29.852   3.823  1.00  0.00    -0.274 OA
ENDROOT
BRANCH   7  13
HETATM   13  C   UNL     1      47.504 -31.853   1.055  1.00  0.00    -0.010 C 
HETATM   14  C   UNL     1      47.167 -32.471  -0.163  1.00  0.00     0.088 C 
HETATM   15  C   UNL     1      46.002 -33.250  -0.281  1.00  0.00     0.038 C 
HETATM   16  C   UNL     1      45.093 -33.327   0.769  1.00  0.00     0.003 C 
HETATM   17  C   UNL     1      45.347 -32.636   1.943  1.00  0.00     0.001 C 
HETATM   18  C   UNL     1      46.533 -31.911   2.081  1.00  0.00     0.011 C 
BRANCH  14  19
HETATM   19  O   UNL     1      47.991 -32.299  -1.296  1.00  0.00    -0.261 OA
BRANCH  19  20
HETATM   20  C   UNL     1      49.019 -33.241  -1.473  1.00  0.00     0.368 C 
HETATM   21  N   UNL     1      50.268 -32.670  -1.641  1.00  0.00    -0.324 N 
HETATM   22  C   UNL     1      51.452 -33.528  -1.556  1.00  0.00     0.154 C 
HETATM   23  C   UNL     1      50.535 -31.241  -1.526  1.00  0.00     0.154 C 
HETATM   24  C   UNL     1      52.586 -33.016  -2.448  1.00  0.00     0.187 C 
HETATM   25  O   UNL     1      52.857 -31.627  -2.201  1.00  0.00    -0.388 OA
HETATM   26  C   UNL     1      51.685 -30.836  -2.454  1.00  0.00     0.187 C 
HETATM   27  O   UNL     1      48.854 -34.458  -1.487  1.00  0.00    -0.238 OA
ENDBRANCH  19  20
ENDBRANCH  14  19
ENDBRANCH   7  13
BRANCH  11  28
HETATM   28  N   UNL     1      51.069 -31.723   4.403  1.00  0.00    -0.379 N 
HETATM   29  H   UNL     1      51.849 -31.154   4.723  1.00  0.00     0.158 HD
HETATM   30  H   UNL     1      51.291 -32.696   4.218  1.00  0.00     0.158 HD
ENDBRANCH  11  28
BRANCH   1  31
HETATM   31  C   UNL     1      47.064 -28.543  -0.011  1.00  0.00    -0.005 A 
HETATM   32  C   UNL     1      47.781 -28.712  -1.199  1.00  0.00     0.014 A 
HETATM   33  C   UNL     1      47.109 -28.770  -2.424  1.00  0.00     0.008 A 
HETATM   34  C   UNL     1      45.713 -28.647  -2.483  1.00  0.00    -0.058 A 
HETATM   35  C   UNL     1      45.019 -28.360  -1.301  1.00  0.00     0.008 A 
HETATM   36  C   UNL     1      45.686 -28.322  -0.072  1.00  0.00     0.014 A 
BRANCH  34  37
HETATM   37  C   UNL     1      45.025 -28.789  -3.824  1.00  0.00     0.042 C 
BRANCH  37  38
HETATM   38  C   UNL     1      44.930 -30.209  -4.427  1.00  0.00    -0.019 C 
HETATM   39  C   UNL     1      43.960 -30.289  -5.611  1.00  0.00     0.010 C 
HETATM   40  C   UNL     1      44.482 -31.197  -3.345  1.00  0.00     0.010 C 
ENDBRANCH  37  38
ENDBRANCH  34  37
ENDBRANCH   1  31
TORSDOF 7
ENDMDL
MODEL 9
REMARK VINA RESULT:      -7.5      2.554      5.075
REMARK  7 active torsions:
REMARK  status: ('A' for Active; 'I' for Inactive)
REMARK    1  A    between atoms: C_2  and  C_3 
REMARK    2  A    between atoms: C_3  and  C_4 
REMARK    3  A    between atoms: C_7  and  C_8 
REMARK    4  A    between atoms: C_14  and  C_15 
REMARK    5  A    between atoms: C_16  and  O_17 
REMARK    6  A    between atoms: O_17  and  C_18 
REMARK       I    between atoms: C_18  and  N_19 
REMARK    7  A    between atoms: C_33  and  N_34 
ROOT
HETATM    1  C   UNL     1      40.270 -14.198  -0.122  1.00  0.00     0.099 A 
HETATM    2  N   UNL     1      39.402 -14.908  -0.865  1.00  0.00    -0.172 NA
HETATM    3  N   UNL     1      39.187 -14.148  -1.954  1.00  0.00    -0.256 N 
HETATM    4  H   UNL     1      38.586 -14.504  -2.688  1.00  0.00     0.191 HD
HETATM    5  C   UNL     1      39.865 -12.974  -1.918  1.00  0.00     0.175 A 
HETATM    6  C   UNL     1      40.532 -12.931  -0.718  1.00  0.00     0.040 A 
HETATM    7  C   UNL     1      41.396 -11.754  -0.395  1.00  0.00     0.108 A 
HETATM    8  C   UNL     1      41.338 -10.741  -1.532  1.00  0.00     0.072 A 
HETATM    9  C   UNL     1      42.031  -9.416  -1.258  1.00  0.00     0.021 C 
HETATM   10  N   UNL     1      42.607  -8.317  -1.032  1.00  0.00    -0.096 N 
HETATM   11  C   UNL     1      40.651 -10.928  -2.688  1.00  0.00     0.160 A 
HETATM   12  O   UNL     1      39.877 -12.082  -2.903  1.00  0.00    -0.274 OA
ENDROOT
BRANCH   7  13
HETATM   13  C   UNL     1      40.999 -11.248   0.988  1.00  0.00    -0.010 C 
HETATM   14  C   UNL     1      39.852 -10.496   1.304  1.00  0.00     0.088 C 
HETATM   15  C   UNL     1      39.515 -10.217   2.640  1.00  0.00     0.038 C 
HETATM   16  C   UNL     1      40.372 -10.574   3.675  1.00  0.00     0.003 C 
HETATM   17  C   UNL     1      41.564 -11.218   3.383  1.00  0.00     0.001 C 
HETATM   18  C   UNL     1      41.870 -11.548   2.060  1.00  0.00     0.011 C 
BRANCH  14  19
HETATM   19  O   UNL     1      39.031  -9.992   0.272  1.00  0.00    -0.261 OA
BRANCH  19  20
HETATM   20  C   UNL     1      37.692 -10.420   0.270  1.00  0.00     0.368 C 
HETATM   21  N   UNL     1      36.782  -9.382   0.368  1.00  0.00    -0.324 N 
HETATM   22  C   UNL     1      35.369  -9.658   0.098  1.00  0.00     0.154 C 
HETATM   23  C   UNL     1      37.147  -7.971   0.351  1.00  0.00     0.154 C 
HETATM   24  C   UNL     1      34.449  -8.750   0.920  1.00  0.00     0.187 C 
HETATM   25  O   UNL     1      34.811  -7.368   0.768  1.00  0.00    -0.388 OA
HETATM   26  C   UNL     1      36.165  -7.155   1.197  1.00  0.00     0.187 C 
HETATM   27  O   UNL     1      37.335 -11.593   0.195  1.00  0.00    -0.238 OA
ENDBRANCH  19  20
ENDBRANCH  14  19
ENDBRANCH   7  13
BRANCH  11  28
HETATM   28  N   UNL     1      40.599 -10.045  -3.737  1.00  0.00    -0.379 N 
HETATM   29  H   UNL     1      40.955 -10.364  -4.634  1.00  0.00     0.158 HD
HETATM   30  H   UNL     1      40.846  -9.093  -3.487  1.00  0.00     0.158 HD
ENDBRANCH  11  28
BRANCH   1  31
HETATM   31  C   UNL     1      40.820 -14.747   1.110  1.00  0.00    -0.005 A 
HETATM   32  C   UNL     1      40.012 -14.901   2.240  1.00  0.00     0.014 A 
HETATM   33  C   UNL     1      40.503 -15.562   3.370  1.00  0.00     0.008 A 
HETATM   34  C   UNL     1      41.811 -16.069   3.393  1.00  0.00    -0.058 A 
HETATM   35  C   UNL     1      42.647 -15.805   2.301  1.00  0.00     0.008 A 
HETATM   36  C   UNL     1      42.152 -15.162   1.161  1.00  0.00     0.014 A 
BRANCH  34  37
HETATM   37  C   UNL     1      42.272 -16.842   4.611  1.00  0.00     0.042 C 
BRANCH  37  38
HETATM   38  C   UNL     1      42.970 -16.046   5.736  1.00  0.00    -0.019 C 
HETATM   39  C   UNL     1      44.385 -16.553   6.034  1.00  0.00     0.010 C 
HETATM   40  C   UNL     1      42.130 -16.122   7.016  1.00  0.00     0.010 C 
ENDBRANCH  37  38
ENDBRANCH  34  37
ENDBRANCH   1  31
TORSDOF 7
ENDMDL
MODEL 10
REMARK VINA RESULT:      -7.3     17.541     20.991
REMARK  7 active torsions:
REMARK  status: ('A' for Active; 'I' for Inactive)
REMARK    1  A    between atoms: C_2  and  C_3 
REMARK    2  A    between atoms: C_3  and  C_4 
REMARK    3  A    between atoms: C_7  and  C_8 
REMARK    4  A    between atoms: C_14  and  C_15 
REMARK    5  A    between atoms: C_16  and  O_17 
REMARK    6  A    between atoms: O_17  and  C_18 
REMARK       I    between atoms: C_18  and  N_19 
REMARK    7  A    between atoms: C_33  and  N_34 
ROOT
HETATM    1  C   UNL     1      47.704 -28.648   1.234  1.00  0.00     0.099 A 
HETATM    2  N   UNL     1      47.746 -27.641   2.126  1.00  0.00    -0.172 NA
HETATM    3  N   UNL     1      48.525 -28.104   3.121  1.00  0.00    -0.256 N 
HETATM    4  H   UNL     1      48.735 -27.492   3.901  1.00  0.00     0.191 HD
HETATM    5  C   UNL     1      48.956 -29.371   2.906  1.00  0.00     0.175 A 
HETATM    6  C   UNL     1      48.397 -29.791   1.724  1.00  0.00     0.040 A 
HETATM    7  C   UNL     1      48.710 -31.158   1.203  1.00  0.00     0.108 A 
HETATM    8  C   UNL     1      49.633 -31.883   2.175  1.00  0.00     0.072 A 
HETATM    9  C   UNL     1      49.891 -33.347   1.857  1.00  0.00     0.021 C 
HETATM   10  N   UNL     1      50.106 -34.561   1.592  1.00  0.00    -0.096 N 
HETATM   11  C   UNL     1      50.138 -31.330   3.308  1.00  0.00     0.160 A 
HETATM   12  O   UNL     1      49.794 -30.026   3.703  1.00  0.00    -0.274 OA
ENDROOT
BRANCH   7  13
HETATM   13  C   UNL     1      47.390 -31.847   0.874  1.00  0.00    -0.010 C 
HETATM   14  C   UNL     1      46.989 -32.320  -0.389  1.00  0.00     0.088 C 
HETATM   15  C   UNL     1      45.812 -33.075  -0.539  1.00  0.00     0.038 C 
HETATM   16  C   UNL     1      44.954 -33.268   0.539  1.00  0.00     0.003 C 
HETATM   17  C   UNL     1      45.271 -32.717   1.771  1.00  0.00     0.001 C 
HETATM   18  C   UNL     1      46.469 -32.018   1.933  1.00  0.00     0.011 C 
BRANCH  14  19
HETATM   19  O   UNL     1      47.760 -32.022  -1.533  1.00  0.00    -0.261 OA
BRANCH  19  20
HETATM   20  C   UNL     1      48.414 -33.104  -2.149  1.00  0.00     0.368 C 
HETATM   21  N   UNL     1      48.083 -33.261  -3.483  1.00  0.00    -0.324 N 
HETATM   22  C   UNL     1      48.892 -34.162  -4.307  1.00  0.00     0.154 C 
HETATM   23  C   UNL     1      47.240 -32.335  -4.230  1.00  0.00     0.154 C 
HETATM   24  C   UNL     1      48.061 -34.809  -5.418  1.00  0.00     0.187 C 
HETATM   25  O   UNL     1      47.341 -33.821  -6.173  1.00  0.00    -0.388 OA
HETATM   26  C   UNL     1      46.458 -33.082  -5.315  1.00  0.00     0.187 C 
HETATM   27  O   UNL     1      49.202 -33.856  -1.581  1.00  0.00    -0.238 OA
ENDBRANCH  19  20
ENDBRANCH  14  19
ENDBRANCH   7  13
BRANCH  11  28
HETATM   28  N   UNL     1      50.988 -31.950   4.188  1.00  0.00    -0.379 N 
HETATM   29  H   UNL     1      50.926 -31.680   5.166  1.00  0.00     0.158 HD
HETATM   30  H   UNL     1      51.930 -32.075   3.833  1.00  0.00     0.158 HD
ENDBRANCH  11  28
BRANCH   1  31
HETATM   31  C   UNL     1      47.022 -28.484  -0.042  1.00  0.00    -0.005 A 
HETATM   32  C   UNL     1      47.719 -28.644  -1.244  1.00  0.00     0.014 A 
HETATM   33  C   UNL     1      47.032 -28.631  -2.461  1.00  0.00     0.008 A 
HETATM   34  C   UNL     1      45.642 -28.445  -2.499  1.00  0.00    -0.058 A 
HETATM   35  C   UNL     1      44.974 -28.168  -1.300  1.00  0.00     0.008 A 
HETATM   36  C   UNL     1      45.655 -28.201  -0.079  1.00  0.00     0.014 A 
BRANCH  34  37
HETATM   37  C   UNL     1      44.933 -28.512  -3.836  1.00  0.00     0.042 C 
BRANCH  37  38
HETATM   38  C   UNL     1      43.939 -29.674  -4.056  1.00  0.00    -0.019 C 
HETATM   39  C   UNL     1      44.137 -30.823  -3.061  1.00  0.00     0.010 C 
HETATM   40  C   UNL     1      44.090 -30.215  -5.482  1.00  0.00     0.010 C 
ENDBRANCH  37  38
ENDBRANCH  34  37
ENDBRANCH   1  31
TORSDOF 7
ENDMDL
