MODEL 1
REMARK VINA RESULT:      -8.3      0.000      0.000
REMARK  8 active torsions:
REMARK  status: ('A' for Active; 'I' for Inactive)
REMARK    1  A    between atoms: C_3  and  C_4 
REMARK    2  A    between atoms: C_4  and  C_5 
REMARK       I    between atoms: C_5  and  N_6 
REMARK    3  A    between atoms: N_6  and  C_7 
REMARK    4  A    between atoms: C_14  and  N_15 
REMARK       I    between atoms: N_15  and  C_16 
REMARK    5  A    between atoms: C_16  and  C_17 
REMARK    6  A    between atoms: C_26  and  C_27 
REMARK    7  A    between atoms: C_27  and  O_28 
REMARK    8  A    between atoms: C_30  and  O_31 
ROOT
HETATM    1  C   UNL     1      44.614  -9.959   7.889  1.00  0.00     0.216 C 
HETATM    2  C   UNL     1      44.856  -9.863   9.387  1.00  0.00    -0.098 C 
HETATM    3  C   UNL     1      45.063  -9.781  10.671  1.00  0.00     0.014 C 
ENDROOT
BRANCH   1   4
HETATM    4  N   UNL     1      43.474 -10.781   7.560  1.00  0.00    -0.351 N 
HETATM    5  C   UNL     1      43.182 -11.049   6.235  1.00  0.00     0.219 C 
HETATM    6  O   UNL     1      43.972 -10.801   5.329  1.00  0.00    -0.274 OA
HETATM    7  H   UNL     1      42.776 -10.941   8.273  1.00  0.00     0.163 HD
BRANCH   5   8
HETATM    8  C   UNL     1      41.840 -11.721   6.007  1.00  0.00     0.114 C 
BRANCH   8   9
HETATM    9  C   UNL     1      41.482 -11.994   4.515  1.00  0.00     0.056 C 
HETATM   10  C   UNL     1      40.170 -11.251   3.951  1.00  0.00    -0.030 C 
HETATM   11  C   UNL     1      39.043 -11.308   5.028  1.00  0.00     0.016 C 
HETATM   12  C   UNL     1      39.621 -11.951   2.625  1.00  0.00     0.012 C 
HETATM   13  C   UNL     1      40.408  -9.733   3.669  1.00  0.00     0.013 C 
HETATM   14  C   UNL     1      39.231 -13.426   2.891  1.00  0.00     0.055 C 
HETATM   15  C   UNL     1      40.477 -11.700   1.296  1.00  0.00     0.008 C 
HETATM   16  C   UNL     1      40.334 -14.110   3.607  1.00  0.00     0.012 C 
HETATM   17  C   UNL     1      41.361 -13.500   4.301  1.00  0.00     0.056 C 
HETATM   18  S   UNL     1      40.548 -15.797   3.576  1.00  0.00    -0.055 SA
HETATM   19  N   UNL     1      42.399 -14.357   4.641  1.00  0.00    -0.227 NA
HETATM   20  C   UNL     1      42.110 -15.566   4.228  1.00  0.00     0.174 C 
HETATM   21  C   UNL     1      39.474 -11.727   0.104  1.00  0.00     0.020 C 
HETATM   22  C   UNL     1      41.126 -10.282   1.320  1.00  0.00     0.128 C 
HETATM   23  C   UNL     1      40.343  -9.318   2.200  1.00  0.00     0.033 C 
BRANCH  20  24
HETATM   24  N   UNL     1      42.886 -16.679   4.111  1.00  0.00    -0.300 N 
HETATM   25  C   UNL     1      43.227 -17.221   2.896  1.00  0.00     0.281 C 
HETATM   26  O   UNL     1      43.239 -16.641   1.817  1.00  0.00    -0.265 OA
HETATM   27  H   UNL     1      42.919 -17.284   4.919  1.00  0.00     0.171 HD
BRANCH  25  28
HETATM   28  C   UNL     1      43.542 -18.637   3.020  1.00  0.00     0.142 A 
HETATM   29  O   UNL     1      43.920 -19.132   4.246  1.00  0.00    -0.317 OA
HETATM   30  C   UNL     1      44.089 -20.471   4.103  1.00  0.00     0.143 A 
HETATM   31  C   UNL     1      43.827 -20.854   2.809  1.00  0.00     0.027 A 
HETATM   32  C   UNL     1      43.481 -19.674   2.109  1.00  0.00     0.045 A 
ENDBRANCH  25  28
ENDBRANCH  20  24
BRANCH  15  33
HETATM   33  C   UNL     1      41.589 -12.738   0.978  1.00  0.00     0.176 C 
BRANCH  33  34
HETATM   34  O   UNL     1      41.210 -13.654  -0.044  1.00  0.00    -0.400 OA
HETATM   35  H   UNL     1      40.828 -13.115  -0.759  1.00  0.00     0.209 HD
ENDBRANCH  33  34
ENDBRANCH  15  33
BRANCH  22  36
HETATM   36  O   UNL     1      42.474 -10.351   1.780  1.00  0.00    -0.395 OA
HETATM   37  H   UNL     1      42.777 -11.276   1.743  1.00  0.00     0.210 HD
ENDBRANCH  22  36
ENDBRANCH   8   9
ENDBRANCH   5   8
ENDBRANCH   1   4
TORSDOF 8
ENDMDL
MODEL 2
REMARK VINA RESULT:      -8.2      2.304      6.698
REMARK  8 active torsions:
REMARK  status: ('A' for Active; 'I' for Inactive)
REMARK    1  A    between atoms: C_3  and  C_4 
REMARK    2  A    between atoms: C_4  and  C_5 
REMARK       I    between atoms: C_5  and  N_6 
REMARK    3  A    between atoms: N_6  and  C_7 
REMARK    4  A    between atoms: C_14  and  N_15 
REMARK       I    between atoms: N_15  and  C_16 
REMARK    5  A    between atoms: C_16  and  C_17 
REMARK    6  A    between atoms: C_26  and  C_27 
REMARK    7  A    between atoms: C_27  and  O_28 
REMARK    8  A    between atoms: C_30  and  O_31 
ROOT
HETATM    1  C   UNL     1      42.597 -18.348   2.272  1.00  0.00     0.216 C 
HETATM    2  C   UNL     1      43.321 -19.679   2.141  1.00  0.00    -0.098 C 
HETATM    3  C   UNL     1      43.942 -20.819   2.029  1.00  0.00     0.014 C 
ENDROOT
BRANCH   1   4
HETATM    4  N   UNL     1      43.403 -17.336   2.909  1.00  0.00    -0.351 N 
HETATM    5  C   UNL     1      43.005 -16.805   4.123  1.00  0.00     0.219 C 
HETATM    6  O   UNL     1      42.110 -17.309   4.793  1.00  0.00    -0.274 OA
HETATM    7  H   UNL     1      44.102 -16.859   2.355  1.00  0.00     0.163 HD
BRANCH   5   8
HETATM    8  C   UNL     1      43.801 -15.594   4.575  1.00  0.00     0.114 C 
BRANCH   8   9
HETATM    9  C   UNL     1      43.008 -14.253   4.598  1.00  0.00     0.056 C 
HETATM   10  C   UNL     1      42.577 -13.706   6.050  1.00  0.00    -0.030 C 
HETATM   11  C   UNL     1      42.083 -14.899   6.924  1.00  0.00     0.016 C 
HETATM   12  C   UNL     1      41.391 -12.641   5.950  1.00  0.00     0.012 C 
HETATM   13  C   UNL     1      43.770 -13.072   6.836  1.00  0.00     0.013 C 
HETATM   14  C   UNL     1      40.129 -13.268   5.306  1.00  0.00     0.055 C 
HETATM   15  C   UNL     1      41.794 -11.195   5.395  1.00  0.00     0.008 C 
HETATM   16  C   UNL     1      40.507 -13.975   4.059  1.00  0.00     0.012 C 
HETATM   17  C   UNL     1      41.777 -14.388   3.706  1.00  0.00     0.056 C 
HETATM   18  S   UNL     1      39.402 -14.286   2.805  1.00  0.00    -0.055 SA
HETATM   19  N   UNL     1      41.894 -14.778   2.379  1.00  0.00    -0.227 NA
HETATM   20  C   UNL     1      40.725 -14.676   1.797  1.00  0.00     0.174 C 
HETATM   21  C   UNL     1      40.843 -10.169   6.082  1.00  0.00     0.020 C 
HETATM   22  C   UNL     1      43.249 -10.830   5.819  1.00  0.00     0.128 C 
HETATM   23  C   UNL     1      43.672 -11.568   7.081  1.00  0.00     0.033 C 
BRANCH  20  24
HETATM   24  N   UNL     1      40.377 -14.711   0.481  1.00  0.00    -0.300 N 
HETATM   25  C   UNL     1      40.235 -13.575  -0.279  1.00  0.00     0.281 C 
HETATM   26  O   UNL     1      40.734 -12.479  -0.052  1.00  0.00    -0.265 OA
HETATM   27  H   UNL     1      39.899 -15.545   0.169  1.00  0.00     0.171 HD
BRANCH  25  28
HETATM   28  C   UNL     1      39.348 -13.805  -1.410  1.00  0.00     0.142 A 
HETATM   29  O   UNL     1      38.172 -13.096  -1.492  1.00  0.00    -0.317 OA
HETATM   30  C   UNL     1      37.573 -13.447  -2.658  1.00  0.00     0.143 A 
HETATM   31  C   UNL     1      38.336 -14.368  -3.334  1.00  0.00     0.027 A 
HETATM   32  C   UNL     1      39.477 -14.605  -2.529  1.00  0.00     0.045 A 
ENDBRANCH  25  28
ENDBRANCH  20  24
BRANCH  15  33
HETATM   33  C   UNL     1      41.665 -10.977   3.862  1.00  0.00     0.176 C 
BRANCH  33  34
HETATM   34  O   UNL     1      41.991  -9.649   3.466  1.00  0.00    -0.400 OA
HETATM   35  H   UNL     1      41.602  -9.065   4.140  1.00  0.00     0.209 HD
ENDBRANCH  33  34
ENDBRANCH  15  33
BRANCH  22  36
HETATM   36  O   UNL     1      44.170 -11.125   4.771  1.00  0.00    -0.395 OA
HETATM   37  H   UNL     1      44.398 -10.302   4.304  1.00  0.00     0.210 HD
ENDBRANCH  22  36
ENDBRANCH   8   9
ENDBRANCH   5   8
ENDBRANCH   1   4
TORSDOF 8
ENDMDL
MODEL 3
REMARK VINA RESULT:      -7.6      4.659      8.862
REMARK  8 active torsions:
REMARK  status: ('A' for Active; 'I' for Inactive)
REMARK    1  A    between atoms: C_3  and  C_4 
REMARK    2  A    between atoms: C_4  and  C_5 
REMARK       I    between atoms: C_5  and  N_6 
REMARK    3  A    between atoms: N_6  and  C_7 
REMARK    4  A    between atoms: C_14  and  N_15 
REMARK       I    between atoms: N_15  and  C_16 
REMARK    5  A    between atoms: C_16  and  C_17 
REMARK    6  A    between atoms: C_26  and  C_27 
REMARK    7  A    between atoms: C_27  and  O_28 
REMARK    8  A    between atoms: C_30  and  O_31 
ROOT
HETATM    1  C   UNL     1      39.071  -9.200   6.464  1.00  0.00     0.216 C 
HETATM    2  C   UNL     1      39.302 -10.678   6.191  1.00  0.00    -0.098 C 
HETATM    3  C   UNL     1      39.500 -11.945   5.958  1.00  0.00     0.014 C 
ENDROOT
BRANCH   1   4
HETATM    4  N   UNL     1      39.968  -8.672   7.463  1.00  0.00    -0.351 N 
HETATM    5  C   UNL     1      39.904  -7.331   7.802  1.00  0.00     0.219 C 
HETATM    6  O   UNL     1      38.974  -6.613   7.450  1.00  0.00    -0.274 OA
HETATM    7  H   UNL     1      40.779  -9.218   7.718  1.00  0.00     0.163 HD
BRANCH   5   8
HETATM    8  C   UNL     1      41.041  -6.847   8.683  1.00  0.00     0.114 C 
BRANCH   8   9
HETATM    9  C   UNL     1      41.226  -7.635  10.015  1.00  0.00     0.056 C 
HETATM   10  C   UNL     1      41.433  -6.748  11.343  1.00  0.00    -0.030 C 
HETATM   11  C   UNL     1      42.386  -5.556  11.023  1.00  0.00     0.016 C 
HETATM   12  C   UNL     1      42.086  -7.600  12.525  1.00  0.00     0.012 C 
HETATM   13  C   UNL     1      40.104  -6.101  11.851  1.00  0.00     0.013 C 
HETATM   14  C   UNL     1      43.478  -8.145  12.119  1.00  0.00     0.055 C 
HETATM   15  C   UNL     1      41.121  -8.659  13.240  1.00  0.00     0.008 C 
HETATM   16  C   UNL     1      43.389  -8.794  10.789  1.00  0.00     0.012 C 
HETATM   17  C   UNL     1      42.385  -8.614   9.856  1.00  0.00     0.056 C 
HETATM   18  S   UNL     1      44.496  -9.972  10.261  1.00  0.00    -0.055 SA
HETATM   19  N   UNL     1      42.405  -9.539   8.822  1.00  0.00    -0.227 NA
HETATM   20  C   UNL     1      43.419 -10.350   8.990  1.00  0.00     0.174 C 
HETATM   21  C   UNL     1      41.593  -8.767  14.721  1.00  0.00     0.020 C 
HETATM   22  C   UNL     1      39.652  -8.136  13.262  1.00  0.00     0.128 C 
HETATM   23  C   UNL     1      39.593  -6.616  13.195  1.00  0.00     0.033 C 
BRANCH  20  24
HETATM   24  N   UNL     1      43.721 -11.537   8.396  1.00  0.00    -0.300 N 
HETATM   25  C   UNL     1      43.754 -11.697   7.032  1.00  0.00     0.281 C 
HETATM   26  O   UNL     1      43.902 -10.812   6.198  1.00  0.00    -0.265 OA
HETATM   27  H   UNL     1      43.587 -12.365   8.960  1.00  0.00     0.171 HD
BRANCH  25  28
HETATM   28  C   UNL     1      43.534 -13.087   6.659  1.00  0.00     0.142 A 
HETATM   29  O   UNL     1      43.552 -14.052   7.638  1.00  0.00    -0.317 OA
HETATM   30  C   UNL     1      43.259 -15.235   7.040  1.00  0.00     0.143 A 
HETATM   31  C   UNL     1      43.050 -15.056   5.693  1.00  0.00     0.027 A 
HETATM   32  C   UNL     1      43.233 -13.674   5.445  1.00  0.00     0.045 A 
ENDBRANCH  25  28
ENDBRANCH  20  24
BRANCH  15  33
HETATM   33  C   UNL     1      41.116 -10.099  12.659  1.00  0.00     0.176 C 
BRANCH  33  34
HETATM   34  O   UNL     1      40.098 -10.917  13.227  1.00  0.00    -0.400 OA
HETATM   35  H   UNL     1      40.441 -11.214  14.087  1.00  0.00     0.209 HD
ENDBRANCH  33  34
ENDBRANCH  15  33
BRANCH  22  36
HETATM   36  O   UNL     1      38.905  -8.684  12.178  1.00  0.00    -0.395 OA
HETATM   37  H   UNL     1      38.025  -8.269  12.155  1.00  0.00     0.210 HD
ENDBRANCH  22  36
ENDBRANCH   8   9
ENDBRANCH   5   8
ENDBRANCH   1   4
TORSDOF 8
ENDMDL
MODEL 4
REMARK VINA RESULT:      -7.5      2.858      7.061
REMARK  8 active torsions:
REMARK  status: ('A' for Active; 'I' for Inactive)
REMARK    1  A    between atoms: C_3  and  C_4 
REMARK    2  A    between atoms: C_4  and  C_5 
REMARK       I    between atoms: C_5  and  N_6 
REMARK    3  A    between atoms: N_6  and  C_7 
REMARK    4  A    between atoms: C_14  and  N_15 
REMARK       I    between atoms: N_15  and  C_16 
REMARK    5  A    between atoms: C_16  and  C_17 
REMARK    6  A    between atoms: C_26  and  C_27 
REMARK    7  A    between atoms: C_27  and  O_28 
REMARK    8  A    between atoms: C_30  and  O_31 
ROOT
HETATM    1  C   UNL     1      42.611  -8.000  -1.233  1.00  0.00     0.216 C 
HETATM    2  C   UNL     1      43.321  -6.657  -1.172  1.00  0.00    -0.098 C 
HETATM    3  C   UNL     1      43.930  -5.506  -1.119  1.00  0.00     0.014 C 
ENDROOT
BRANCH   1   4
HETATM    4  N   UNL     1      41.977  -8.352   0.015  1.00  0.00    -0.351 N 
HETATM    5  C   UNL     1      41.632  -9.669   0.261  1.00  0.00     0.219 C 
HETATM    6  O   UNL     1      42.035 -10.591  -0.440  1.00  0.00    -0.274 OA
HETATM    7  H   UNL     1      41.577  -7.612   0.576  1.00  0.00     0.163 HD
BRANCH   5   8
HETATM    8  C   UNL     1      40.769  -9.876   1.493  1.00  0.00     0.114 C 
BRANCH   8   9
HETATM    9  C   UNL     1      40.915 -11.269   2.176  1.00  0.00     0.056 C 
HETATM   10  C   UNL     1      39.760 -12.344   1.854  1.00  0.00    -0.030 C 
HETATM   11  C   UNL     1      38.374 -11.630   1.868  1.00  0.00     0.016 C 
HETATM   12  C   UNL     1      39.724 -13.514   2.941  1.00  0.00     0.012 C 
HETATM   13  C   UNL     1      39.897 -12.971   0.429  1.00  0.00     0.013 C 
HETATM   14  C   UNL     1      39.444 -12.953   4.357  1.00  0.00     0.055 C 
HETATM   15  C   UNL     1      40.910 -14.586   2.853  1.00  0.00     0.008 C 
HETATM   16  C   UNL     1      40.349 -11.810   4.627  1.00  0.00     0.012 C 
HETATM   17  C   UNL     1      41.039 -11.073   3.683  1.00  0.00     0.056 C 
HETATM   18  S   UNL     1      40.754 -11.305   6.199  1.00  0.00    -0.055 SA
HETATM   19  N   UNL     1      42.015 -10.244   4.220  1.00  0.00    -0.227 NA
HETATM   20  C   UNL     1      42.006 -10.360   5.525  1.00  0.00     0.174 C 
HETATM   21  C   UNL     1      40.327 -15.941   3.355  1.00  0.00     0.020 C 
HETATM   22  C   UNL     1      41.353 -14.795   1.373  1.00  0.00     0.128 C 
HETATM   23  C   UNL     1      40.235 -14.461   0.396  1.00  0.00     0.033 C 
BRANCH  20  24
HETATM   24  N   UNL     1      42.903  -9.949   6.463  1.00  0.00    -0.300 N 
HETATM   25  C   UNL     1      43.861 -10.782   6.988  1.00  0.00     0.281 C 
HETATM   26  O   UNL     1      44.297 -11.805   6.475  1.00  0.00    -0.265 OA
HETATM   27  H   UNL     1      42.639  -9.139   7.006  1.00  0.00     0.171 HD
BRANCH  25  28
HETATM   28  C   UNL     1      44.290 -10.328   8.303  1.00  0.00     0.142 A 
HETATM   29  O   UNL     1      43.341 -10.086   9.269  1.00  0.00    -0.317 OA
HETATM   30  C   UNL     1      44.002  -9.744  10.404  1.00  0.00     0.143 A 
HETATM   31  C   UNL     1      45.360  -9.760  10.194  1.00  0.00     0.027 A 
HETATM   32  C   UNL     1      45.548 -10.130   8.840  1.00  0.00     0.045 A 
ENDBRANCH  25  28
ENDBRANCH  20  24
BRANCH  15  33
HETATM   33  C   UNL     1      42.177 -14.294   3.703  1.00  0.00     0.176 C 
BRANCH  33  34
HETATM   34  O   UNL     1      43.153 -15.326   3.607  1.00  0.00    -0.400 OA
HETATM   35  H   UNL     1      43.009 -15.752   2.744  1.00  0.00     0.209 HD
ENDBRANCH  33  34
ENDBRANCH  15  33
BRANCH  22  36
HETATM   36  O   UNL     1      42.496 -13.997   1.070  1.00  0.00    -0.395 OA
HETATM   37  H   UNL     1      43.000 -13.840   1.888  1.00  0.00     0.210 HD
ENDBRANCH  22  36
ENDBRANCH   8   9
ENDBRANCH   5   8
ENDBRANCH   1   4
TORSDOF 8
ENDMDL
MODEL 5
REMARK VINA RESULT:      -7.4      6.901     12.319
REMARK  8 active torsions:
REMARK  status: ('A' for Active; 'I' for Inactive)
REMARK    1  A    between atoms: C_3  and  C_4 
REMARK    2  A    between atoms: C_4  and  C_5 
REMARK       I    between atoms: C_5  and  N_6 
REMARK    3  A    between atoms: N_6  and  C_7 
REMARK    4  A    between atoms: C_14  and  N_15 
REMARK       I    between atoms: N_15  and  C_16 
REMARK    5  A    between atoms: C_16  and  C_17 
REMARK    6  A    between atoms: C_26  and  C_27 
REMARK    7  A    between atoms: C_27  and  O_28 
REMARK    8  A    between atoms: C_30  and  O_31 
ROOT
HETATM    1  C   UNL     1      45.751 -10.870   7.958  1.00  0.00     0.216 C 
HETATM    2  C   UNL     1      44.528 -11.029   7.069  1.00  0.00    -0.098 C 
HETATM    3  C   UNL     1      43.479 -11.164   6.308  1.00  0.00     0.014 C 
ENDROOT
BRANCH   1   4
HETATM    4  N   UNL     1      45.574  -9.861   8.974  1.00  0.00    -0.351 N 
HETATM    5  C   UNL     1      44.664 -10.069   9.995  1.00  0.00     0.219 C 
HETATM    6  O   UNL     1      44.154 -11.165  10.202  1.00  0.00    -0.274 OA
HETATM    7  H   UNL     1      45.927  -8.931   8.795  1.00  0.00     0.163 HD
BRANCH   5   8
HETATM    8  C   UNL     1      44.398  -8.851  10.862  1.00  0.00     0.114 C 
BRANCH   8   9
HETATM    9  C   UNL     1      42.894  -8.480  11.038  1.00  0.00     0.056 C 
HETATM   10  C   UNL     1      42.144  -7.913   9.731  1.00  0.00    -0.030 C 
HETATM   11  C   UNL     1      43.091  -6.925   8.982  1.00  0.00     0.016 C 
HETATM   12  C   UNL     1      40.809  -7.124  10.114  1.00  0.00     0.012 C 
HETATM   13  C   UNL     1      41.800  -9.032   8.697  1.00  0.00     0.013 C 
HETATM   14  C   UNL     1      41.119  -5.910  11.026  1.00  0.00     0.055 C 
HETATM   15  C   UNL     1      39.571  -8.027  10.576  1.00  0.00     0.008 C 
HETATM   16  C   UNL     1      41.993  -6.339  12.143  1.00  0.00     0.012 C 
HETATM   17  C   UNL     1      42.759  -7.488  12.189  1.00  0.00     0.056 C 
HETATM   18  S   UNL     1      42.087  -5.495  13.617  1.00  0.00    -0.055 SA
HETATM   19  N   UNL     1      43.263  -7.779  13.449  1.00  0.00    -0.227 NA
HETATM   20  C   UNL     1      42.893  -6.843  14.286  1.00  0.00     0.174 C 
HETATM   21  C   UNL     1      38.279  -7.275  10.138  1.00  0.00     0.020 C 
HETATM   22  C   UNL     1      39.582  -9.397   9.830  1.00  0.00     0.128 C 
HETATM   23  C   UNL     1      40.310  -9.308   8.497  1.00  0.00     0.033 C 
BRANCH  20  24
HETATM   24  N   UNL     1      42.931  -6.797  15.647  1.00  0.00    -0.300 N 
HETATM   25  C   UNL     1      41.847  -7.112  16.430  1.00  0.00     0.281 C 
HETATM   26  O   UNL     1      40.890  -7.804  16.104  1.00  0.00    -0.265 OA
HETATM   27  H   UNL     1      43.645  -6.208  16.052  1.00  0.00     0.171 HD
BRANCH  25  28
HETATM   28  C   UNL     1      41.933  -6.468  17.732  1.00  0.00     0.142 A 
HETATM   29  O   UNL     1      42.295  -7.218  18.826  1.00  0.00    -0.317 OA
HETATM   30  C   UNL     1      42.362  -6.375  19.888  1.00  0.00     0.143 A 
HETATM   31  C   UNL     1      42.052  -5.092  19.503  1.00  0.00     0.027 A 
HETATM   32  C   UNL     1      41.769  -5.151  18.117  1.00  0.00     0.045 A 
ENDBRANCH  25  28
ENDBRANCH  20  24
BRANCH  15  33
HETATM   33  C   UNL     1      39.442  -8.304  12.099  1.00  0.00     0.176 C 
BRANCH  33  34
HETATM   34  O   UNL     1      38.166  -7.940  12.617  1.00  0.00    -0.400 OA
HETATM   35  H   UNL     1      38.326  -7.200  13.228  1.00  0.00     0.209 HD
ENDBRANCH  33  34
ENDBRANCH  15  33
BRANCH  22  36
HETATM   36  O   UNL     1      40.193 -10.404  10.634  1.00  0.00    -0.395 OA
HETATM   37  H   UNL     1      39.852 -11.276  10.366  1.00  0.00     0.210 HD
ENDBRANCH  22  36
ENDBRANCH   8   9
ENDBRANCH   5   8
ENDBRANCH   1   4
TORSDOF 8
ENDMDL
MODEL 6
REMARK VINA RESULT:      -7.3     16.653     19.253
REMARK  8 active torsions:
REMARK  status: ('A' for Active; 'I' for Inactive)
REMARK    1  A    between atoms: C_3  and  C_4 
REMARK    2  A    between atoms: C_4  and  C_5 
REMARK       I    between atoms: C_5  and  N_6 
REMARK    3  A    between atoms: N_6  and  C_7 
REMARK    4  A    between atoms: C_14  and  N_15 
REMARK       I    between atoms: N_15  and  C_16 
REMARK    5  A    between atoms: C_16  and  C_17 
REMARK    6  A    between atoms: C_26  and  C_27 
REMARK    7  A    between atoms: C_27  and  O_28 
REMARK    8  A    between atoms: C_30  and  O_31 
ROOT
HETATM    1  C   UNL     1      48.839 -29.268   3.886  1.00  0.00     0.216 C 
HETATM    2  C   UNL     1      50.035 -30.076   4.364  1.00  0.00    -0.098 C 
HETATM    3  C   UNL     1      51.060 -30.769   4.773  1.00  0.00     0.014 C 
ENDROOT
BRANCH   1   4
HETATM    4  N   UNL     1      48.028 -29.984   2.931  1.00  0.00    -0.351 N 
HETATM    5  C   UNL     1      46.992 -30.786   3.376  1.00  0.00     0.219 C 
HETATM    6  O   UNL     1      46.589 -30.748   4.534  1.00  0.00    -0.274 OA
HETATM    7  H   UNL     1      48.375 -30.085   1.987  1.00  0.00     0.163 HD
BRANCH   5   8
HETATM    8  C   UNL     1      46.367 -31.663   2.307  1.00  0.00     0.114 C 
BRANCH   8   9
HETATM    9  C   UNL     1      46.381 -31.062   0.868  1.00  0.00     0.056 C 
HETATM   10  C   UNL     1      44.973 -31.053   0.089  1.00  0.00    -0.030 C 
HETATM   11  C   UNL     1      44.233 -32.402   0.345  1.00  0.00     0.016 C 
HETATM   12  C   UNL     1      45.173 -30.891  -1.488  1.00  0.00     0.012 C 
HETATM   13  C   UNL     1      44.006 -29.937   0.600  1.00  0.00     0.013 C 
HETATM   14  C   UNL     1      46.008 -32.059  -2.069  1.00  0.00     0.055 C 
HETATM   15  C   UNL     1      45.597 -29.432  -1.993  1.00  0.00     0.008 C 
HETATM   16  C   UNL     1      47.229 -32.252  -1.250  1.00  0.00     0.012 C 
HETATM   17  C   UNL     1      47.433 -31.790   0.036  1.00  0.00     0.056 C 
HETATM   18  S   UNL     1      48.632 -33.002  -1.849  1.00  0.00    -0.055 SA
HETATM   19  N   UNL     1      48.751 -31.874   0.463  1.00  0.00    -0.227 NA
HETATM   20  C   UNL     1      49.476 -32.413  -0.486  1.00  0.00     0.174 C 
HETATM   21  C   UNL     1      44.989 -29.256  -3.417  1.00  0.00     0.020 C 
HETATM   22  C   UNL     1      44.967 -28.332  -1.084  1.00  0.00     0.128 C 
HETATM   23  C   UNL     1      43.699 -28.823  -0.399  1.00  0.00     0.033 C 
BRANCH  20  24
HETATM   24  N   UNL     1      50.826 -32.489  -0.644  1.00  0.00    -0.300 N 
HETATM   25  C   UNL     1      51.538 -31.579  -1.387  1.00  0.00     0.281 C 
HETATM   26  O   UNL     1      51.191 -30.439  -1.671  1.00  0.00    -0.265 OA
HETATM   27  H   UNL     1      51.241 -33.398  -0.495  1.00  0.00     0.171 HD
BRANCH  25  28
HETATM   28  C   UNL     1      52.786 -32.154  -1.868  1.00  0.00     0.142 A 
HETATM   29  O   UNL     1      53.072 -32.102  -3.212  1.00  0.00    -0.317 OA
HETATM   30  C   UNL     1      54.307 -32.640  -3.381  1.00  0.00     0.143 A 
HETATM   31  C   UNL     1      54.827 -33.039  -2.174  1.00  0.00     0.027 A 
HETATM   32  C   UNL     1      53.848 -32.733  -1.199  1.00  0.00     0.045 A 
ENDBRANCH  25  28
ENDBRANCH  20  24
BRANCH  15  33
HETATM   33  C   UNL     1      47.120 -29.151  -2.111  1.00  0.00     0.176 C 
BRANCH  33  34
HETATM   34  O   UNL     1      47.410 -27.774  -2.330  1.00  0.00    -0.400 OA
HETATM   35  H   UNL     1      48.235 -27.594  -1.848  1.00  0.00     0.209 HD
ENDBRANCH  33  34
ENDBRANCH  15  33
BRANCH  22  36
HETATM   36  O   UNL     1      45.899 -27.900  -0.094  1.00  0.00    -0.395 OA
HETATM   37  H   UNL     1      46.796 -27.915  -0.473  1.00  0.00     0.210 HD
ENDBRANCH  22  36
ENDBRANCH   8   9
ENDBRANCH   5   8
ENDBRANCH   1   4
TORSDOF 8
ENDMDL
MODEL 7
REMARK VINA RESULT:      -7.3      5.129      9.059
REMARK  8 active torsions:
REMARK  status: ('A' for Active; 'I' for Inactive)
REMARK    1  A    between atoms: C_3  and  C_4 
REMARK    2  A    between atoms: C_4  and  C_5 
REMARK       I    between atoms: C_5  and  N_6 
REMARK    3  A    between atoms: N_6  and  C_7 
REMARK    4  A    between atoms: C_14  and  N_15 
REMARK       I    between atoms: N_15  and  C_16 
REMARK    5  A    between atoms: C_16  and  C_17 
REMARK    6  A    between atoms: C_26  and  C_27 
REMARK    7  A    between atoms: C_27  and  O_28 
REMARK    8  A    between atoms: C_30  and  O_31 
ROOT
HETATM    1  C   UNL     1      37.882  -5.624   6.709  1.00  0.00     0.216 C 
HETATM    2  C   UNL     1      37.195  -4.570   7.564  1.00  0.00    -0.098 C 
HETATM    3  C   UNL     1      36.607  -3.667   8.297  1.00  0.00     0.014 C 
ENDROOT
BRANCH   1   4
HETATM    4  N   UNL     1      39.244  -5.868   7.115  1.00  0.00    -0.351 N 
HETATM    5  C   UNL     1      39.515  -6.854   8.048  1.00  0.00     0.219 C 
HETATM    6  O   UNL     1      38.674  -7.680   8.388  1.00  0.00    -0.274 OA
HETATM    7  H   UNL     1      39.942  -5.167   6.905  1.00  0.00     0.163 HD
BRANCH   5   8
HETATM    8  C   UNL     1      40.942  -6.859   8.565  1.00  0.00     0.114 C 
BRANCH   8   9
HETATM    9  C   UNL     1      41.164  -7.658   9.885  1.00  0.00     0.056 C 
HETATM   10  C   UNL     1      41.430  -6.783  11.210  1.00  0.00    -0.030 C 
HETATM   11  C   UNL     1      42.388  -5.602  10.863  1.00  0.00     0.016 C 
HETATM   12  C   UNL     1      42.114  -7.652  12.363  1.00  0.00     0.012 C 
HETATM   13  C   UNL     1      40.129  -6.122  11.769  1.00  0.00     0.013 C 
HETATM   14  C   UNL     1      43.483  -8.212  11.904  1.00  0.00     0.055 C 
HETATM   15  C   UNL     1      41.161  -8.702  13.105  1.00  0.00     0.008 C 
HETATM   16  C   UNL     1      43.337  -8.851  10.574  1.00  0.00     0.012 C 
HETATM   17  C   UNL     1      42.304  -8.651   9.679  1.00  0.00     0.056 C 
HETATM   18  S   UNL     1      44.409 -10.040  10.000  1.00  0.00    -0.055 SA
HETATM   19  N   UNL     1      42.274  -9.570   8.638  1.00  0.00    -0.227 NA
HETATM   20  C   UNL     1      43.283 -10.395   8.766  1.00  0.00     0.174 C 
HETATM   21  C   UNL     1      41.684  -8.826  14.568  1.00  0.00     0.020 C 
HETATM   22  C   UNL     1      39.701  -8.160  13.182  1.00  0.00     0.128 C 
HETATM   23  C   UNL     1      39.659  -6.640  13.127  1.00  0.00     0.033 C 
BRANCH  20  24
HETATM   24  N   UNL     1      43.548 -11.583   8.154  1.00  0.00    -0.300 N 
HETATM   25  C   UNL     1      43.739 -11.691   6.797  1.00  0.00     0.281 C 
HETATM   26  O   UNL     1      44.073 -10.793   6.034  1.00  0.00    -0.265 OA
HETATM   27  H   UNL     1      43.267 -12.414   8.654  1.00  0.00     0.171 HD
BRANCH  25  28
HETATM   28  C   UNL     1      43.442 -13.037   6.330  1.00  0.00     0.142 A 
HETATM   29  O   UNL     1      43.057 -13.221   5.023  1.00  0.00    -0.317 OA
HETATM   30  C   UNL     1      42.906 -14.557   4.832  1.00  0.00     0.143 A 
HETATM   31  C   UNL     1      43.187 -15.243   5.989  1.00  0.00     0.027 A 
HETATM   32  C   UNL     1      43.526 -14.266   6.957  1.00  0.00     0.045 A 
ENDBRANCH  25  28
ENDBRANCH  20  24
BRANCH  15  33
HETATM   33  C   UNL     1      41.115 -10.139  12.516  1.00  0.00     0.176 C 
BRANCH  33  34
HETATM   34  O   UNL     1      40.177 -10.977  13.182  1.00  0.00    -0.400 OA
HETATM   35  H   UNL     1      40.662 -11.392  13.916  1.00  0.00     0.209 HD
ENDBRANCH  33  34
ENDBRANCH  15  33
BRANCH  22  36
HETATM   36  O   UNL     1      38.908  -8.691  12.122  1.00  0.00    -0.395 OA
HETATM   37  H   UNL     1      38.444  -9.486  12.438  1.00  0.00     0.210 HD
ENDBRANCH  22  36
ENDBRANCH   8   9
ENDBRANCH   5   8
ENDBRANCH   1   4
TORSDOF 8
ENDMDL
MODEL 8
REMARK VINA RESULT:      -7.2      4.119      7.438
REMARK  8 active torsions:
REMARK  status: ('A' for Active; 'I' for Inactive)
REMARK    1  A    between atoms: C_3  and  C_4 
REMARK    2  A    between atoms: C_4  and  C_5 
REMARK       I    between atoms: C_5  and  N_6 
REMARK    3  A    between atoms: N_6  and  C_7 
REMARK    4  A    between atoms: C_14  and  N_15 
REMARK       I    between atoms: N_15  and  C_16 
REMARK    5  A    between atoms: C_16  and  C_17 
REMARK    6  A    between atoms: C_26  and  C_27 
REMARK    7  A    between atoms: C_27  and  O_28 
REMARK    8  A    between atoms: C_30  and  O_31 
ROOT
HETATM    1  C   UNL     1      39.016  -7.986  13.498  1.00  0.00     0.216 C 
HETATM    2  C   UNL     1      40.315  -7.362  13.981  1.00  0.00    -0.098 C 
HETATM    3  C   UNL     1      41.430  -6.827  14.394  1.00  0.00     0.014 C 
ENDROOT
BRANCH   1   4
HETATM    4  N   UNL     1      38.951  -8.096  12.061  1.00  0.00    -0.351 N 
HETATM    5  C   UNL     1      39.389  -9.253  11.441  1.00  0.00     0.219 C 
HETATM    6  O   UNL     1      39.629 -10.279  12.069  1.00  0.00    -0.274 OA
HETATM    7  H   UNL     1      38.822  -7.252  11.520  1.00  0.00     0.163 HD
BRANCH   5   8
HETATM    8  C   UNL     1      39.490  -9.161   9.929  1.00  0.00     0.114 C 
BRANCH   8   9
HETATM    9  C   UNL     1      40.925  -9.346   9.350  1.00  0.00     0.056 C 
HETATM   10  C   UNL     1      42.020  -8.256   9.801  1.00  0.00    -0.030 C 
HETATM   11  C   UNL     1      41.370  -6.838   9.791  1.00  0.00     0.016 C 
HETATM   12  C   UNL     1      43.272  -8.234   8.810  1.00  0.00     0.012 C 
HETATM   13  C   UNL     1      42.527  -8.477  11.263  1.00  0.00     0.013 C 
HETATM   14  C   UNL     1      42.837  -7.873   7.368  1.00  0.00     0.055 C 
HETATM   15  C   UNL     1      44.282  -9.471   8.930  1.00  0.00     0.008 C 
HETATM   16  C   UNL     1      41.680  -8.712   6.974  1.00  0.00     0.012 C 
HETATM   17  C   UNL     1      40.842  -9.403   7.828  1.00  0.00     0.056 C 
HETATM   18  S   UNL     1      41.284  -9.033   5.351  1.00  0.00    -0.055 SA
HETATM   19  N   UNL     1      40.016 -10.317   7.189  1.00  0.00    -0.227 NA
HETATM   20  C   UNL     1      40.234 -10.264   5.898  1.00  0.00     0.174 C 
HETATM   21  C   UNL     1      45.696  -8.933   8.559  1.00  0.00     0.020 C 
HETATM   22  C   UNL     1      44.354  -9.979  10.402  1.00  0.00     0.128 C 
HETATM   23  C   UNL     1      43.993  -8.885  11.397  1.00  0.00     0.033 C 
BRANCH  20  24
HETATM   24  N   UNL     1      39.859 -11.104   4.894  1.00  0.00    -0.300 N 
HETATM   25  C   UNL     1      39.604 -12.438   5.100  1.00  0.00     0.281 C 
HETATM   26  O   UNL     1      39.304 -12.968   6.163  1.00  0.00    -0.265 OA
HETATM   27  H   UNL     1      40.101 -10.813   3.957  1.00  0.00     0.171 HD
BRANCH  25  28
HETATM   28  C   UNL     1      39.785 -13.204   3.875  1.00  0.00     0.142 A 
HETATM   29  O   UNL     1      40.535 -14.356   3.912  1.00  0.00    -0.317 OA
HETATM   30  C   UNL     1      40.490 -14.904   2.670  1.00  0.00     0.143 A 
HETATM   31  C   UNL     1      39.726 -14.130   1.830  1.00  0.00     0.027 A 
HETATM   32  C   UNL     1      39.276 -13.032   2.602  1.00  0.00     0.045 A 
ENDBRANCH  25  28
ENDBRANCH  20  24
BRANCH  15  33
HETATM   33  C   UNL     1      44.002 -10.689   8.007  1.00  0.00     0.176 C 
BRANCH  33  34
HETATM   34  O   UNL     1      45.089 -11.609   7.968  1.00  0.00    -0.400 OA
HETATM   35  H   UNL     1      45.430 -11.659   8.877  1.00  0.00     0.209 HD
ENDBRANCH  33  34
ENDBRANCH  15  33
BRANCH  22  36
HETATM   36  O   UNL     1      43.485 -11.095  10.594  1.00  0.00    -0.395 OA
HETATM   37  H   UNL     1      43.136 -11.380   9.731  1.00  0.00     0.210 HD
ENDBRANCH  22  36
ENDBRANCH   8   9
ENDBRANCH   5   8
ENDBRANCH   1   4
TORSDOF 8
ENDMDL
MODEL 9
REMARK VINA RESULT:      -7.2      8.855     13.370
REMARK  8 active torsions:
REMARK  status: ('A' for Active; 'I' for Inactive)
REMARK    1  A    between atoms: C_3  and  C_4 
REMARK    2  A    between atoms: C_4  and  C_5 
REMARK       I    between atoms: C_5  and  N_6 
REMARK    3  A    between atoms: N_6  and  C_7 
REMARK    4  A    between atoms: C_14  and  N_15 
REMARK       I    between atoms: N_15  and  C_16 
REMARK    5  A    between atoms: C_16  and  C_17 
REMARK    6  A    between atoms: C_26  and  C_27 
REMARK    7  A    between atoms: C_27  and  O_28 
REMARK    8  A    between atoms: C_30  and  O_31 
ROOT
HETATM    1  C   UNL     1      44.025 -10.219   9.696  1.00  0.00     0.216 C 
HETATM    2  C   UNL     1      45.195 -10.061   8.738  1.00  0.00    -0.098 C 
HETATM    3  C   UNL     1      46.198  -9.924   7.917  1.00  0.00     0.014 C 
ENDROOT
BRANCH   1   4
HETATM    4  N   UNL     1      43.999  -9.200  10.717  1.00  0.00    -0.351 N 
HETATM    5  C   UNL     1      43.280  -9.412  11.880  1.00  0.00     0.219 C 
HETATM    6  O   UNL     1      42.838 -10.515  12.182  1.00  0.00    -0.274 OA
HETATM    7  H   UNL     1      44.295  -8.265  10.470  1.00  0.00     0.163 HD
BRANCH   5   8
HETATM    8  C   UNL     1      43.136  -8.188  12.766  1.00  0.00     0.114 C 
BRANCH   8   9
HETATM    9  C   UNL     1      41.695  -7.601  12.855  1.00  0.00     0.056 C 
HETATM   10  C   UNL     1      41.340  -6.428  11.810  1.00  0.00    -0.030 C 
HETATM   11  C   UNL     1      42.553  -5.456  11.695  1.00  0.00     0.016 C 
HETATM   12  C   UNL     1      40.071  -5.582  12.285  1.00  0.00     0.012 C 
HETATM   13  C   UNL     1      41.088  -6.963  10.364  1.00  0.00     0.013 C 
HETATM   14  C   UNL     1      40.328  -4.909  13.656  1.00  0.00     0.055 C 
HETATM   15  C   UNL     1      38.651  -6.306  12.136  1.00  0.00     0.008 C 
HETATM   16  C   UNL     1      40.865  -5.910  14.608  1.00  0.00     0.012 C 
HETATM   17  C   UNL     1      41.440  -7.124  14.281  1.00  0.00     0.056 C 
HETATM   18  S   UNL     1      40.740  -5.739  16.295  1.00  0.00    -0.055 SA
HETATM   19  N   UNL     1      41.607  -7.977  15.363  1.00  0.00    -0.227 NA
HETATM   20  C   UNL     1      41.188  -7.380  16.450  1.00  0.00     0.174 C 
HETATM   21  C   UNL     1      37.602  -5.186  11.866  1.00  0.00     0.020 C 
HETATM   22  C   UNL     1      38.645  -7.251  10.896  1.00  0.00     0.128 C 
HETATM   23  C   UNL     1      39.657  -6.815   9.847  1.00  0.00     0.033 C 
BRANCH  20  24
HETATM   24  N   UNL     1      40.927  -7.869  17.694  1.00  0.00    -0.300 N 
HETATM   25  C   UNL     1      41.789  -7.706  18.751  1.00  0.00     0.281 C 
HETATM   26  O   UNL     1      42.653  -6.845  18.860  1.00  0.00    -0.265 OA
HETATM   27  H   UNL     1      40.266  -8.632  17.743  1.00  0.00     0.171 HD
BRANCH  25  28
HETATM   28  C   UNL     1      41.594  -8.743  19.754  1.00  0.00     0.142 A 
HETATM   29  O   UNL     1      40.331  -9.245  19.960  1.00  0.00    -0.317 OA
HETATM   30  C   UNL     1      40.436 -10.231  20.887  1.00  0.00     0.143 A 
HETATM   31  C   UNL     1      41.743 -10.378  21.286  1.00  0.00     0.027 A 
HETATM   32  C   UNL     1      42.490  -9.417  20.563  1.00  0.00     0.045 A 
ENDBRANCH  25  28
ENDBRANCH  20  24
BRANCH  15  33
HETATM   33  C   UNL     1      38.149  -7.112  13.365  1.00  0.00     0.176 C 
BRANCH  33  34
HETATM   34  O   UNL     1      37.461  -6.300  14.311  1.00  0.00    -0.400 OA
HETATM   35  H   UNL     1      37.823  -5.403  14.207  1.00  0.00     0.209 HD
ENDBRANCH  33  34
ENDBRANCH  15  33
BRANCH  22  36
HETATM   36  O   UNL     1      38.920  -8.596  11.284  1.00  0.00    -0.395 OA
HETATM   37  H   UNL     1      39.412  -8.591  12.124  1.00  0.00     0.210 HD
ENDBRANCH  22  36
ENDBRANCH   8   9
ENDBRANCH   5   8
ENDBRANCH   1   4
TORSDOF 8
ENDMDL
MODEL 10
REMARK VINA RESULT:      -7.1      3.631      5.777
REMARK  8 active torsions:
REMARK  status: ('A' for Active; 'I' for Inactive)
REMARK    1  A    between atoms: C_3  and  C_4 
REMARK    2  A    between atoms: C_4  and  C_5 
REMARK       I    between atoms: C_5  and  N_6 
REMARK    3  A    between atoms: N_6  and  C_7 
REMARK    4  A    between atoms: C_14  and  N_15 
REMARK       I    between atoms: N_15  and  C_16 
REMARK    5  A    between atoms: C_16  and  C_17 
REMARK    6  A    between atoms: C_26  and  C_27 
REMARK    7  A    between atoms: C_27  and  O_28 
REMARK    8  A    between atoms: C_30  and  O_31 
ROOT
HETATM    1  C   UNL     1      43.201  -7.090  -1.450  1.00  0.00     0.216 C 
HETATM    2  C   UNL     1      42.906  -7.094  -2.942  1.00  0.00    -0.098 C 
HETATM    3  C   UNL     1      42.653  -7.097  -4.220  1.00  0.00     0.014 C 
ENDROOT
BRANCH   1   4
HETATM    4  N   UNL     1      42.535  -8.161  -0.749  1.00  0.00    -0.351 N 
HETATM    5  C   UNL     1      41.418  -7.885   0.021  1.00  0.00     0.219 C 
HETATM    6  O   UNL     1      40.835  -6.808  -0.037  1.00  0.00    -0.274 OA
HETATM    7  H   UNL     1      43.026  -9.036  -0.630  1.00  0.00     0.163 HD
BRANCH   5   8
HETATM    8  C   UNL     1      40.949  -9.039   0.889  1.00  0.00     0.114 C 
BRANCH   8   9
HETATM    9  C   UNL     1      40.467 -10.299   0.110  1.00  0.00     0.056 C 
HETATM   10  C   UNL     1      39.025 -10.189  -0.597  1.00  0.00    -0.030 C 
HETATM   11  C   UNL     1      38.034  -9.460   0.363  1.00  0.00     0.016 C 
HETATM   12  C   UNL     1      38.420 -11.630  -0.930  1.00  0.00     0.012 C 
HETATM   13  C   UNL     1      39.055  -9.332  -1.903  1.00  0.00     0.013 C 
HETATM   14  C   UNL     1      38.233 -12.469   0.359  1.00  0.00     0.055 C 
HETATM   15  C   UNL     1      39.094 -12.404  -2.158  1.00  0.00     0.008 C 
HETATM   16  C   UNL     1      39.479 -12.430   1.162  1.00  0.00     0.012 C 
HETATM   17  C   UNL     1      40.498 -11.503   1.046  1.00  0.00     0.056 C 
HETATM   18  S   UNL     1      39.881 -13.628   2.300  1.00  0.00    -0.055 SA
HETATM   19  N   UNL     1      41.657 -11.854   1.724  1.00  0.00    -0.227 NA
HETATM   20  C   UNL     1      41.467 -12.995   2.339  1.00  0.00     0.174 C 
HETATM   21  C   UNL     1      37.978 -13.280  -2.802  1.00  0.00     0.020 C 
HETATM   22  C   UNL     1      39.574 -11.396  -3.246  1.00  0.00     0.128 C 
HETATM   23  C   UNL     1      38.785 -10.095  -3.198  1.00  0.00     0.033 C 
BRANCH  20  24
HETATM   24  N   UNL     1      42.348 -13.852   2.924  1.00  0.00    -0.300 N 
HETATM   25  C   UNL     1      42.732 -15.035   2.339  1.00  0.00     0.281 C 
HETATM   26  O   UNL     1      42.676 -15.309   1.146  1.00  0.00    -0.265 OA
HETATM   27  H   UNL     1      42.449 -13.772   3.926  1.00  0.00     0.171 HD
BRANCH  25  28
HETATM   28  C   UNL     1      43.186 -15.993   3.336  1.00  0.00     0.142 A 
HETATM   29  O   UNL     1      43.331 -15.582   4.640  1.00  0.00    -0.317 OA
HETATM   30  C   UNL     1      43.697 -16.669   5.366  1.00  0.00     0.143 A 
HETATM   31  C   UNL     1      43.792 -17.777   4.558  1.00  0.00     0.027 A 
HETATM   32  C   UNL     1      43.470 -17.342   3.249  1.00  0.00     0.045 A 
ENDBRANCH  25  28
ENDBRANCH  20  24
BRANCH  15  33
HETATM   33  C   UNL     1      40.277 -13.352  -1.818  1.00  0.00     0.176 C 
BRANCH  33  34
HETATM   34  O   UNL     1      40.949 -13.830  -2.979  1.00  0.00    -0.400 OA
HETATM   35  H   UNL     1      40.339 -13.681  -3.722  1.00  0.00     0.209 HD
ENDBRANCH  33  34
ENDBRANCH  15  33
BRANCH  22  36
HETATM   36  O   UNL     1      40.962 -11.110  -3.093  1.00  0.00    -0.395 OA
HETATM   37  H   UNL     1      41.283 -10.646  -3.886  1.00  0.00     0.210 HD
ENDBRANCH  22  36
ENDBRANCH   8   9
ENDBRANCH   5   8
ENDBRANCH   1   4
TORSDOF 8
ENDMDL
