MODEL 1
REMARK VINA RESULT:      -8.6      0.000      0.000
REMARK  7 active torsions:
REMARK  status: ('A' for Active; 'I' for Inactive)
REMARK    1  A    between atoms: C_11  and  N_12 
REMARK       I    between atoms: N_12  and  C_13 
REMARK    2  A    between atoms: C_13  and  C_14 
REMARK    3  A    between atoms: C_14  and  S_15 
REMARK    4  A    between atoms: S_15  and  C_16 
REMARK    5  A    between atoms: N_17  and  C_18 
REMARK    6  A    between atoms: C_18  and  C_19 
REMARK    7  A    between atoms: C_25  and  C_26 
ROOT
HETATM    1  N   UNL     1      40.885 -12.187   6.363  1.00  0.00    -0.326 N 
HETATM    2  C   UNL     1      39.535 -11.924   6.211  1.00  0.00     0.231 C 
HETATM    3  O   UNL     1      38.745 -12.638   5.591  1.00  0.00    -0.272 OA
HETATM    4  H   UNL     1      41.383 -11.585   7.010  1.00  0.00     0.169 HD
ENDROOT
BRANCH   2   5
HETATM    5  C   UNL     1      39.025 -10.617   6.794  1.00  0.00     0.185 C 
BRANCH   5   6
HETATM    6  S   UNL     1      40.252  -9.275   6.893  1.00  0.00    -0.081 SA
BRANCH   6   7
HETATM    7  C   UNL     1      40.494  -9.259   8.615  1.00  0.00     0.192 A 
HETATM    8  N   UNL     1      41.674  -8.960   9.258  1.00  0.00    -0.307 N 
HETATM    9  C   UNL     1      41.423  -9.209  10.592  1.00  0.00     0.135 A 
HETATM   10  N   UNL     1      40.147  -9.516  10.731  1.00  0.00    -0.134 NA
HETATM   11  N   UNL     1      39.572  -9.559   9.495  1.00  0.00    -0.123 NA
BRANCH   8  12
HETATM   12  C   UNL     1      42.808  -8.270   8.672  1.00  0.00     0.171 C 
BRANCH  12  13
HETATM   13  C   UNL     1      43.979  -9.148   8.309  1.00  0.00    -0.040 A 
HETATM   14  C   UNL     1      43.826 -10.434   7.769  1.00  0.00     0.009 A 
HETATM   15  C   UNL     1      44.944 -11.193   7.411  1.00  0.00     0.001 A 
HETATM   16  C   UNL     1      46.226 -10.673   7.571  1.00  0.00     0.000 A 
HETATM   17  C   UNL     1      46.396  -9.391   8.084  1.00  0.00     0.001 A 
HETATM   18  C   UNL     1      45.280  -8.632   8.443  1.00  0.00     0.009 A 
ENDBRANCH  12  13
ENDBRANCH   8  12
BRANCH   9  19
HETATM   19  C   UNL     1      42.298  -9.222  11.840  1.00  0.00     0.057 A 
HETATM   20  C   UNL     1      43.419 -10.233  11.940  1.00  0.00     0.013 A 
HETATM   21  C   UNL     1      43.735  -8.776  11.895  1.00  0.00     0.013 A 
ENDBRANCH   9  19
ENDBRANCH   6   7
ENDBRANCH   5   6
ENDBRANCH   2   5
BRANCH   1  22
HETATM   22  C   UNL     1      41.609 -13.256   5.784  1.00  0.00     0.037 A 
HETATM   23  C   UNL     1      42.234 -13.173   4.534  1.00  0.00     0.032 A 
HETATM   24  C   UNL     1      42.954 -14.253   4.015  1.00  0.00     0.041 A 
HETATM   25  C   UNL     1      43.071 -15.424   4.750  1.00  0.00     0.096 A 
HETATM   26  O   UNL     1      43.756 -16.452   4.162  1.00  0.00    -0.335 OA
HETATM   27  C   UNL     1      42.446 -15.526   5.994  1.00  0.00     0.070 A 
HETATM   28  C   UNL     1      44.220 -17.427   5.091  1.00  0.00     0.217 C 
HETATM   29  C   UNL     1      44.598 -18.671   4.297  1.00  0.00     0.050 C 
HETATM   30  C   UNL     1      43.271 -17.783   6.248  1.00  0.00     0.251 C 
HETATM   31  N   UNL     1      42.511 -16.732   6.699  1.00  0.00    -0.323 N 
HETATM   32  O   UNL     1      43.243 -18.871   6.818  1.00  0.00    -0.270 OA
HETATM   33  H   UNL     1      41.949 -16.892   7.523  1.00  0.00     0.169 HD
HETATM   34  C   UNL     1      41.719 -14.448   6.514  1.00  0.00     0.062 A 
ENDBRANCH   1  22
TORSDOF 7
ENDMDL
MODEL 2
REMARK VINA RESULT:      -8.6      2.567      4.176
REMARK  7 active torsions:
REMARK  status: ('A' for Active; 'I' for Inactive)
REMARK    1  A    between atoms: C_11  and  N_12 
REMARK       I    between atoms: N_12  and  C_13 
REMARK    2  A    between atoms: C_13  and  C_14 
REMARK    3  A    between atoms: C_14  and  S_15 
REMARK    4  A    between atoms: S_15  and  C_16 
REMARK    5  A    between atoms: N_17  and  C_18 
REMARK    6  A    between atoms: C_18  and  C_19 
REMARK    7  A    between atoms: C_25  and  C_26 
ROOT
HETATM    1  N   UNL     1      43.143 -13.112   6.977  1.00  0.00    -0.326 N 
HETATM    2  C   UNL     1      44.111 -12.148   7.194  1.00  0.00     0.231 C 
HETATM    3  O   UNL     1      45.129 -12.008   6.514  1.00  0.00    -0.272 OA
HETATM    4  H   UNL     1      42.297 -13.022   7.530  1.00  0.00     0.169 HD
ENDROOT
BRANCH   2   5
HETATM    5  C   UNL     1      43.924 -11.256   8.410  1.00  0.00     0.185 C 
BRANCH   5   6
HETATM    6  S   UNL     1      45.388 -10.288   8.899  1.00  0.00    -0.081 SA
BRANCH   6   7
HETATM    7  C   UNL     1      44.622  -8.745   9.138  1.00  0.00     0.192 A 
HETATM    8  N   UNL     1      43.768  -8.423  10.168  1.00  0.00    -0.307 N 
HETATM    9  C   UNL     1      43.312  -7.154   9.866  1.00  0.00     0.135 A 
HETATM   10  N   UNL     1      43.951  -6.720   8.797  1.00  0.00    -0.134 NA
HETATM   11  N   UNL     1      44.759  -7.718   8.336  1.00  0.00    -0.123 NA
BRANCH   8  12
HETATM   12  C   UNL     1      43.626  -9.154  11.413  1.00  0.00     0.171 C 
BRANCH  12  13
HETATM   13  C   UNL     1      42.206  -9.390  11.863  1.00  0.00    -0.040 A 
HETATM   14  C   UNL     1      41.173  -9.725  10.975  1.00  0.00     0.009 A 
HETATM   15  C   UNL     1      39.881  -9.974  11.448  1.00  0.00     0.001 A 
HETATM   16  C   UNL     1      39.609  -9.910  12.812  1.00  0.00     0.000 A 
HETATM   17  C   UNL     1      40.626  -9.601  13.709  1.00  0.00     0.001 A 
HETATM   18  C   UNL     1      41.917  -9.351  13.239  1.00  0.00     0.009 A 
ENDBRANCH  12  13
ENDBRANCH   8  12
BRANCH   9  19
HETATM   19  C   UNL     1      42.258  -6.244  10.484  1.00  0.00     0.057 A 
HETATM   20  C   UNL     1      42.446  -5.762  11.906  1.00  0.00     0.013 A 
HETATM   21  C   UNL     1      42.444  -4.780  10.783  1.00  0.00     0.013 A 
ENDBRANCH   9  19
ENDBRANCH   6   7
ENDBRANCH   5   6
ENDBRANCH   2   5
BRANCH   1  22
HETATM   22  C   UNL     1      43.177 -14.142   6.008  1.00  0.00     0.037 A 
HETATM   23  C   UNL     1      42.922 -13.927   4.648  1.00  0.00     0.032 A 
HETATM   24  C   UNL     1      42.986 -14.977   3.728  1.00  0.00     0.041 A 
HETATM   25  C   UNL     1      43.324 -16.254   4.156  1.00  0.00     0.096 A 
HETATM   26  O   UNL     1      43.328 -17.238   3.206  1.00  0.00    -0.335 OA
HETATM   27  C   UNL     1      43.572 -16.486   5.510  1.00  0.00     0.070 A 
HETATM   28  C   UNL     1      44.086 -18.384   3.583  1.00  0.00     0.217 C 
HETATM   29  C   UNL     1      43.691 -19.521   2.649  1.00  0.00     0.050 C 
HETATM   30  C   UNL     1      43.986 -18.823   5.054  1.00  0.00     0.251 C 
HETATM   31  N   UNL     1      43.845 -17.787   5.944  1.00  0.00    -0.323 N 
HETATM   32  O   UNL     1      44.126 -19.978   5.448  1.00  0.00    -0.270 OA
HETATM   33  H   UNL     1      43.878 -18.019   6.928  1.00  0.00     0.169 HD
HETATM   34  C   UNL     1      43.501 -15.438   6.435  1.00  0.00     0.062 A 
ENDBRANCH   1  22
TORSDOF 7
ENDMDL
MODEL 3
REMARK VINA RESULT:      -8.5      2.005      3.774
REMARK  7 active torsions:
REMARK  status: ('A' for Active; 'I' for Inactive)
REMARK    1  A    between atoms: C_11  and  N_12 
REMARK       I    between atoms: N_12  and  C_13 
REMARK    2  A    between atoms: C_13  and  C_14 
REMARK    3  A    between atoms: C_14  and  S_15 
REMARK    4  A    between atoms: S_15  and  C_16 
REMARK    5  A    between atoms: N_17  and  C_18 
REMARK    6  A    between atoms: C_18  and  C_19 
REMARK    7  A    between atoms: C_25  and  C_26 
ROOT
HETATM    1  N   UNL     1      41.107 -13.499   4.688  1.00  0.00    -0.326 N 
HETATM    2  C   UNL     1      40.293 -13.326   5.793  1.00  0.00     0.231 C 
HETATM    3  O   UNL     1      39.758 -14.240   6.423  1.00  0.00    -0.272 OA
HETATM    4  H   UNL     1      41.585 -12.668   4.356  1.00  0.00     0.169 HD
ENDROOT
BRANCH   2   5
HETATM    5  C   UNL     1      39.989 -11.894   6.199  1.00  0.00     0.185 C 
BRANCH   5   6
HETATM    6  S   UNL     1      41.099 -10.631   5.498  1.00  0.00    -0.081 SA
BRANCH   6   7
HETATM    7  C   UNL     1      42.531 -10.993   6.416  1.00  0.00     0.192 A 
HETATM    8  N   UNL     1      43.143 -10.151   7.316  1.00  0.00    -0.307 N 
HETATM    9  C   UNL     1      44.301 -10.807   7.684  1.00  0.00     0.135 A 
HETATM   10  N   UNL     1      44.302 -12.003   7.130  1.00  0.00    -0.134 NA
HETATM   11  N   UNL     1      43.203 -12.114   6.328  1.00  0.00    -0.123 NA
BRANCH   8  12
HETATM   12  C   UNL     1      42.540  -8.982   7.930  1.00  0.00     0.171 C 
BRANCH  12  13
HETATM   13  C   UNL     1      41.630  -9.265   9.098  1.00  0.00    -0.040 A 
HETATM   14  C   UNL     1      42.105  -9.458  10.403  1.00  0.00     0.009 A 
HETATM   15  C   UNL     1      41.216  -9.677  11.460  1.00  0.00     0.001 A 
HETATM   16  C   UNL     1      39.843  -9.688  11.230  1.00  0.00     0.000 A 
HETATM   17  C   UNL     1      39.352  -9.476   9.945  1.00  0.00     0.001 A 
HETATM   18  C   UNL     1      40.239  -9.258   8.889  1.00  0.00     0.009 A 
ENDBRANCH  12  13
ENDBRANCH   8  12
BRANCH   9  19
HETATM   19  C   UNL     1      45.505 -10.413   8.531  1.00  0.00     0.057 A 
HETATM   20  C   UNL     1      46.366  -9.251   8.089  1.00  0.00     0.013 A 
HETATM   21  C   UNL     1      45.605  -9.166   9.369  1.00  0.00     0.013 A 
ENDBRANCH   9  19
ENDBRANCH   6   7
ENDBRANCH   5   6
ENDBRANCH   2   5
BRANCH   1  22
HETATM   22  C   UNL     1      41.406 -14.721   4.041  1.00  0.00     0.037 A 
HETATM   23  C   UNL     1      40.832 -15.107   2.824  1.00  0.00     0.032 A 
HETATM   24  C   UNL     1      41.176 -16.318   2.216  1.00  0.00     0.041 A 
HETATM   25  C   UNL     1      42.113 -17.150   2.812  1.00  0.00     0.096 A 
HETATM   26  O   UNL     1      42.370 -18.336   2.181  1.00  0.00    -0.335 OA
HETATM   27  C   UNL     1      42.688 -16.784   4.031  1.00  0.00     0.070 A 
HETATM   28  C   UNL     1      43.610 -18.924   2.565  1.00  0.00     0.217 C 
HETATM   29  C   UNL     1      43.586 -20.378   2.113  1.00  0.00     0.050 C 
HETATM   30  C   UNL     1      43.992 -18.818   4.052  1.00  0.00     0.251 C 
HETATM   31  N   UNL     1      43.580 -17.658   4.659  1.00  0.00    -0.323 N 
HETATM   32  O   UNL     1      44.695 -19.629   4.650  1.00  0.00    -0.270 OA
HETATM   33  H   UNL     1      43.896 -17.499   5.606  1.00  0.00     0.169 HD
HETATM   34  C   UNL     1      42.340 -15.575   4.645  1.00  0.00     0.062 A 
ENDBRANCH   1  22
TORSDOF 7
ENDMDL
MODEL 4
REMARK VINA RESULT:      -8.5      5.489      8.886
REMARK  7 active torsions:
REMARK  status: ('A' for Active; 'I' for Inactive)
REMARK    1  A    between atoms: C_11  and  N_12 
REMARK       I    between atoms: N_12  and  C_13 
REMARK    2  A    between atoms: C_13  and  C_14 
REMARK    3  A    between atoms: C_14  and  S_15 
REMARK    4  A    between atoms: S_15  and  C_16 
REMARK    5  A    between atoms: N_17  and  C_18 
REMARK    6  A    between atoms: C_18  and  C_19 
REMARK    7  A    between atoms: C_25  and  C_26 
ROOT
HETATM    1  N   UNL     1      42.128 -13.423   2.834  1.00  0.00    -0.326 N 
HETATM    2  C   UNL     1      42.923 -12.301   2.983  1.00  0.00     0.231 C 
HETATM    3  O   UNL     1      44.138 -12.321   3.191  1.00  0.00    -0.272 OA
HETATM    4  H   UNL     1      41.174 -13.253   2.534  1.00  0.00     0.169 HD
ENDROOT
BRANCH   2   5
HETATM    5  C   UNL     1      42.216 -10.956   2.958  1.00  0.00     0.185 C 
BRANCH   5   6
HETATM    6  S   UNL     1      40.551 -10.962   2.221  1.00  0.00    -0.081 SA
BRANCH   6   7
HETATM    7  C   UNL     1      40.963 -10.416   0.622  1.00  0.00     0.192 A 
HETATM    8  N   UNL     1      40.276 -10.718  -0.532  1.00  0.00    -0.307 N 
HETATM    9  C   UNL     1      41.043 -10.185  -1.549  1.00  0.00     0.135 A 
HETATM   10  N   UNL     1      42.045  -9.514  -1.016  1.00  0.00    -0.134 NA
HETATM   11  N   UNL     1      42.002  -9.670   0.339  1.00  0.00    -0.123 NA
BRANCH   8  12
HETATM   12  C   UNL     1      38.919 -11.226  -0.604  1.00  0.00     0.171 C 
BRANCH  12  13
HETATM   13  C   UNL     1      38.765 -12.557  -1.296  1.00  0.00    -0.040 A 
HETATM   14  C   UNL     1      37.973 -12.732  -2.441  1.00  0.00     0.009 A 
HETATM   15  C   UNL     1      37.895 -13.977  -3.069  1.00  0.00     0.001 A 
HETATM   16  C   UNL     1      38.620 -15.059  -2.575  1.00  0.00     0.000 A 
HETATM   17  C   UNL     1      39.429 -14.899  -1.454  1.00  0.00     0.001 A 
HETATM   18  C   UNL     1      39.507 -13.655  -0.824  1.00  0.00     0.009 A 
ENDBRANCH  12  13
ENDBRANCH   8  12
BRANCH   9  19
HETATM   19  C   UNL     1      40.962 -10.254  -3.070  1.00  0.00     0.057 A 
HETATM   20  C   UNL     1      39.740  -9.698  -3.766  1.00  0.00     0.013 A 
HETATM   21  C   UNL     1      41.075  -9.074  -3.998  1.00  0.00     0.013 A 
ENDBRANCH   9  19
ENDBRANCH   6   7
ENDBRANCH   5   6
ENDBRANCH   2   5
BRANCH   1  22
HETATM   22  C   UNL     1      42.534 -14.772   2.970  1.00  0.00     0.037 A 
HETATM   23  C   UNL     1      42.909 -15.574   1.885  1.00  0.00     0.032 A 
HETATM   24  C   UNL     1      43.320 -16.896   2.075  1.00  0.00     0.041 A 
HETATM   25  C   UNL     1      43.378 -17.426   3.357  1.00  0.00     0.096 A 
HETATM   26  O   UNL     1      43.751 -18.738   3.462  1.00  0.00    -0.335 OA
HETATM   27  C   UNL     1      42.998 -16.642   4.448  1.00  0.00     0.070 A 
HETATM   28  C   UNL     1      44.215 -19.091   4.762  1.00  0.00     0.217 C 
HETATM   29  C   UNL     1      44.215 -20.612   4.850  1.00  0.00     0.050 C 
HETATM   30  C   UNL     1      43.462 -18.474   5.953  1.00  0.00     0.251 C 
HETATM   31  N   UNL     1      42.994 -17.203   5.728  1.00  0.00    -0.323 N 
HETATM   32  O   UNL     1      43.362 -18.996   7.061  1.00  0.00    -0.270 OA
HETATM   33  H   UNL     1      42.584 -16.719   6.515  1.00  0.00     0.169 HD
HETATM   34  C   UNL     1      42.580 -15.319   4.260  1.00  0.00     0.062 A 
ENDBRANCH   1  22
TORSDOF 7
ENDMDL
MODEL 5
REMARK VINA RESULT:      -8.2      1.757      2.434
REMARK  7 active torsions:
REMARK  status: ('A' for Active; 'I' for Inactive)
REMARK    1  A    between atoms: C_11  and  N_12 
REMARK       I    between atoms: N_12  and  C_13 
REMARK    2  A    between atoms: C_13  and  C_14 
REMARK    3  A    between atoms: C_14  and  S_15 
REMARK    4  A    between atoms: S_15  and  C_16 
REMARK    5  A    between atoms: N_17  and  C_18 
REMARK    6  A    between atoms: C_18  and  C_19 
REMARK    7  A    between atoms: C_25  and  C_26 
ROOT
HETATM    1  N   UNL     1      43.144 -13.330   5.558  1.00  0.00    -0.326 N 
HETATM    2  C   UNL     1      42.041 -12.603   5.968  1.00  0.00     0.231 C 
HETATM    3  O   UNL     1      40.871 -12.909   5.735  1.00  0.00    -0.272 OA
HETATM    4  H   UNL     1      44.037 -13.032   5.938  1.00  0.00     0.169 HD
ENDROOT
BRANCH   2   5
HETATM    5  C   UNL     1      42.317 -11.296   6.694  1.00  0.00     0.185 C 
BRANCH   5   6
HETATM    6  S   UNL     1      41.278  -9.889   6.188  1.00  0.00    -0.081 SA
BRANCH   6   7
HETATM    7  C   UNL     1      40.296  -9.752   7.617  1.00  0.00     0.192 A 
HETATM    8  N   UNL     1      40.642  -9.084   8.769  1.00  0.00    -0.307 N 
HETATM    9  C   UNL     1      39.624  -9.364   9.660  1.00  0.00     0.135 A 
HETATM   10  N   UNL     1      38.689 -10.049   9.030  1.00  0.00    -0.134 NA
HETATM   11  N   UNL     1      39.115 -10.302   7.759  1.00  0.00    -0.123 NA
BRANCH   8  12
HETATM   12  C   UNL     1      41.692  -8.090   8.891  1.00  0.00     0.171 C 
BRANCH  12  13
HETATM   13  C   UNL     1      43.070  -8.640   9.164  1.00  0.00    -0.040 A 
HETATM   14  C   UNL     1      44.195  -8.283   8.405  1.00  0.00     0.009 A 
HETATM   15  C   UNL     1      45.458  -8.789   8.724  1.00  0.00     0.001 A 
HETATM   16  C   UNL     1      45.618  -9.642   9.814  1.00  0.00     0.000 A 
HETATM   17  C   UNL     1      44.517  -9.989  10.591  1.00  0.00     0.001 A 
HETATM   18  C   UNL     1      43.254  -9.485  10.273  1.00  0.00     0.009 A 
ENDBRANCH  12  13
ENDBRANCH   8  12
BRANCH   9  19
HETATM   19  C   UNL     1      39.417  -9.070  11.141  1.00  0.00     0.057 A 
HETATM   20  C   UNL     1      39.767 -10.135  12.157  1.00  0.00     0.013 A 
HETATM   21  C   UNL     1      40.518  -8.847  12.143  1.00  0.00     0.013 A 
ENDBRANCH   9  19
ENDBRANCH   6   7
ENDBRANCH   5   6
ENDBRANCH   2   5
BRANCH   1  22
HETATM   22  C   UNL     1      43.139 -14.489   4.746  1.00  0.00     0.037 A 
HETATM   23  C   UNL     1      42.757 -14.482   3.399  1.00  0.00     0.032 A 
HETATM   24  C   UNL     1      42.788 -15.652   2.635  1.00  0.00     0.041 A 
HETATM   25  C   UNL     1      43.219 -16.841   3.206  1.00  0.00     0.096 A 
HETATM   26  O   UNL     1      43.185 -17.952   2.410  1.00  0.00    -0.335 OA
HETATM   27  C   UNL     1      43.595 -16.866   4.551  1.00  0.00     0.070 A 
HETATM   28  C   UNL     1      44.024 -19.006   2.874  1.00  0.00     0.217 C 
HETATM   29  C   UNL     1      43.601 -20.279   2.152  1.00  0.00     0.050 C 
HETATM   30  C   UNL     1      44.074 -19.229   4.395  1.00  0.00     0.251 C 
HETATM   31  N   UNL     1      43.964 -18.080   5.138  1.00  0.00    -0.323 N 
HETATM   32  O   UNL     1      44.299 -20.310   4.934  1.00  0.00    -0.270 OA
HETATM   33  H   UNL     1      44.094 -18.165   6.137  1.00  0.00     0.169 HD
HETATM   34  C   UNL     1      43.559 -15.697   5.320  1.00  0.00     0.062 A 
ENDBRANCH   1  22
TORSDOF 7
ENDMDL
MODEL 6
REMARK VINA RESULT:      -8.2      3.658      9.399
REMARK  7 active torsions:
REMARK  status: ('A' for Active; 'I' for Inactive)
REMARK    1  A    between atoms: C_11  and  N_12 
REMARK       I    between atoms: N_12  and  C_13 
REMARK    2  A    between atoms: C_13  and  C_14 
REMARK    3  A    between atoms: C_14  and  S_15 
REMARK    4  A    between atoms: S_15  and  C_16 
REMARK    5  A    between atoms: N_17  and  C_18 
REMARK    6  A    between atoms: C_18  and  C_19 
REMARK    7  A    between atoms: C_25  and  C_26 
ROOT
HETATM    1  N   UNL     1      43.460 -10.552   7.954  1.00  0.00    -0.326 N 
HETATM    2  C   UNL     1      44.639 -11.234   7.711  1.00  0.00     0.231 C 
HETATM    3  O   UNL     1      45.668 -11.119   8.379  1.00  0.00    -0.272 OA
HETATM    4  H   UNL     1      42.657 -10.847   7.408  1.00  0.00     0.169 HD
ENDROOT
BRANCH   2   5
HETATM    5  C   UNL     1      44.670 -12.127   6.482  1.00  0.00     0.185 C 
BRANCH   5   6
HETATM    6  S   UNL     1      43.388 -13.420   6.425  1.00  0.00    -0.081 SA
BRANCH   6   7
HETATM    7  C   UNL     1      42.849 -13.191   4.787  1.00  0.00     0.192 A 
HETATM    8  N   UNL     1      42.346 -14.171   3.962  1.00  0.00    -0.307 N 
HETATM    9  C   UNL     1      42.187 -13.555   2.737  1.00  0.00     0.135 A 
HETATM   10  N   UNL     1      42.464 -12.273   2.870  1.00  0.00    -0.134 NA
HETATM   11  N   UNL     1      42.889 -12.049   4.147  1.00  0.00    -0.123 NA
BRANCH   8  12
HETATM   12  C   UNL     1      41.841 -15.463   4.389  1.00  0.00     0.171 C 
BRANCH  12  13
HETATM   13  C   UNL     1      42.668 -16.650   3.963  1.00  0.00    -0.040 A 
HETATM   14  C   UNL     1      43.687 -17.192   4.760  1.00  0.00     0.009 A 
HETATM   15  C   UNL     1      44.398 -18.319   4.338  1.00  0.00     0.001 A 
HETATM   16  C   UNL     1      44.088 -18.930   3.125  1.00  0.00     0.000 A 
HETATM   17  C   UNL     1      43.065 -18.419   2.332  1.00  0.00     0.001 A 
HETATM   18  C   UNL     1      42.355 -17.293   2.752  1.00  0.00     0.009 A 
ENDBRANCH  12  13
ENDBRANCH   8  12
BRANCH   9  19
HETATM   19  C   UNL     1      41.806 -14.061   1.351  1.00  0.00     0.057 A 
HETATM   20  C   UNL     1      40.405 -14.584   1.118  1.00  0.00     0.013 A 
HETATM   21  C   UNL     1      40.871 -13.362   0.400  1.00  0.00     0.013 A 
ENDBRANCH   9  19
ENDBRANCH   6   7
ENDBRANCH   5   6
ENDBRANCH   2   5
BRANCH   1  22
HETATM   22  C   UNL     1      43.243  -9.562   8.941  1.00  0.00     0.037 A 
HETATM   23  C   UNL     1      43.287  -8.188   8.674  1.00  0.00     0.032 A 
HETATM   24  C   UNL     1      43.047  -7.250   9.682  1.00  0.00     0.041 A 
HETATM   25  C   UNL     1      42.743  -7.676  10.967  1.00  0.00     0.096 A 
HETATM   26  O   UNL     1      42.559  -6.703  11.909  1.00  0.00    -0.335 OA
HETATM   27  C   UNL     1      42.704  -9.043  11.252  1.00  0.00     0.070 A 
HETATM   28  C   UNL     1      41.835  -7.151  13.052  1.00  0.00     0.217 C 
HETATM   29  C   UNL     1      42.044  -6.123  14.157  1.00  0.00     0.050 C 
HETATM   30  C   UNL     1      42.152  -8.569  13.556  1.00  0.00     0.251 C 
HETATM   31  N   UNL     1      42.463  -9.465  12.562  1.00  0.00    -0.323 N 
HETATM   32  O   UNL     1      42.042  -8.935  14.723  1.00  0.00    -0.270 OA
HETATM   33  H   UNL     1      42.578 -10.431  12.835  1.00  0.00     0.169 HD
HETATM   34  C   UNL     1      42.950  -9.985  10.246  1.00  0.00     0.062 A 
ENDBRANCH   1  22
TORSDOF 7
ENDMDL
MODEL 7
REMARK VINA RESULT:      -8.2      2.231      3.875
REMARK  7 active torsions:
REMARK  status: ('A' for Active; 'I' for Inactive)
REMARK    1  A    between atoms: C_11  and  N_12 
REMARK       I    between atoms: N_12  and  C_13 
REMARK    2  A    between atoms: C_13  and  C_14 
REMARK    3  A    between atoms: C_14  and  S_15 
REMARK    4  A    between atoms: S_15  and  C_16 
REMARK    5  A    between atoms: N_17  and  C_18 
REMARK    6  A    between atoms: C_18  and  C_19 
REMARK    7  A    between atoms: C_25  and  C_26 
ROOT
HETATM    1  N   UNL     1      43.322 -12.922   7.049  1.00  0.00    -0.326 N 
HETATM    2  C   UNL     1      44.306 -11.960   7.189  1.00  0.00     0.231 C 
HETATM    3  O   UNL     1      45.247 -11.797   6.410  1.00  0.00    -0.272 OA
HETATM    4  H   UNL     1      42.539 -12.850   7.690  1.00  0.00     0.169 HD
ENDROOT
BRANCH   2   5
HETATM    5  C   UNL     1      44.247 -11.100   8.441  1.00  0.00     0.185 C 
BRANCH   5   6
HETATM    6  S   UNL     1      43.802  -9.355   8.169  1.00  0.00    -0.081 SA
BRANCH   6   7
HETATM    7  C   UNL     1      42.235  -9.357   8.924  1.00  0.00     0.192 A 
HETATM    8  N   UNL     1      41.995  -9.452  10.276  1.00  0.00    -0.307 N 
HETATM    9  C   UNL     1      40.622  -9.550  10.386  1.00  0.00     0.135 A 
HETATM   10  N   UNL     1      40.092  -9.400   9.188  1.00  0.00    -0.134 NA
HETATM   11  N   UNL     1      41.100  -9.292   8.274  1.00  0.00    -0.123 NA
BRANCH   8  12
HETATM   12  C   UNL     1      42.964  -9.211  11.329  1.00  0.00     0.171 C 
BRANCH  12  13
HETATM   13  C   UNL     1      42.757  -7.943  12.118  1.00  0.00    -0.040 A 
HETATM   14  C   UNL     1      43.024  -7.850  13.492  1.00  0.00     0.009 A 
HETATM   15  C   UNL     1      42.854  -6.640  14.170  1.00  0.00     0.001 A 
HETATM   16  C   UNL     1      42.434  -5.503  13.483  1.00  0.00     0.000 A 
HETATM   17  C   UNL     1      42.186  -5.572  12.115  1.00  0.00     0.001 A 
HETATM   18  C   UNL     1      42.354  -6.780  11.437  1.00  0.00     0.009 A 
ENDBRANCH  12  13
ENDBRANCH   8  12
BRANCH   9  19
HETATM   19  C   UNL     1      39.679  -9.812  11.554  1.00  0.00     0.057 A 
HETATM   20  C   UNL     1      40.248 -10.337  12.854  1.00  0.00     0.013 A 
HETATM   21  C   UNL     1      39.610  -8.990  12.813  1.00  0.00     0.013 A 
ENDBRANCH   9  19
ENDBRANCH   6   7
ENDBRANCH   5   6
ENDBRANCH   2   5
BRANCH   1  22
HETATM   22  C   UNL     1      43.256 -13.926   6.054  1.00  0.00     0.037 A 
HETATM   23  C   UNL     1      42.836 -13.680   4.741  1.00  0.00     0.032 A 
HETATM   24  C   UNL     1      42.806 -14.705   3.791  1.00  0.00     0.041 A 
HETATM   25  C   UNL     1      43.213 -15.985   4.139  1.00  0.00     0.096 A 
HETATM   26  O   UNL     1      43.119 -16.944   3.169  1.00  0.00    -0.335 OA
HETATM   27  C   UNL     1      43.625 -16.248   5.448  1.00  0.00     0.070 A 
HETATM   28  C   UNL     1      43.935 -18.085   3.421  1.00  0.00     0.217 C 
HETATM   29  C   UNL     1      43.449 -19.205   2.510  1.00  0.00     0.050 C 
HETATM   30  C   UNL     1      44.019 -18.564   4.880  1.00  0.00     0.251 C 
HETATM   31  N   UNL     1      43.969 -17.554   5.810  1.00  0.00    -0.323 N 
HETATM   32  O   UNL     1      44.223 -19.726   5.223  1.00  0.00    -0.270 OA
HETATM   33  H   UNL     1      44.123 -17.810   6.775  1.00  0.00     0.169 HD
HETATM   34  C   UNL     1      43.650 -15.225   6.403  1.00  0.00     0.062 A 
ENDBRANCH   1  22
TORSDOF 7
ENDMDL
MODEL 8
REMARK VINA RESULT:      -8.1      2.424      4.343
REMARK  7 active torsions:
REMARK  status: ('A' for Active; 'I' for Inactive)
REMARK    1  A    between atoms: C_11  and  N_12 
REMARK       I    between atoms: N_12  and  C_13 
REMARK    2  A    between atoms: C_13  and  C_14 
REMARK    3  A    between atoms: C_14  and  S_15 
REMARK    4  A    between atoms: S_15  and  C_16 
REMARK    5  A    between atoms: N_17  and  C_18 
REMARK    6  A    between atoms: C_18  and  C_19 
REMARK    7  A    between atoms: C_25  and  C_26 
ROOT
HETATM    1  N   UNL     1      42.804 -13.189   6.851  1.00  0.00    -0.326 N 
HETATM    2  C   UNL     1      43.737 -12.172   6.940  1.00  0.00     0.231 C 
HETATM    3  O   UNL     1      44.958 -12.329   6.873  1.00  0.00    -0.272 OA
HETATM    4  H   UNL     1      41.835 -12.897   6.787  1.00  0.00     0.169 HD
ENDROOT
BRANCH   2   5
HETATM    5  C   UNL     1      43.201 -10.777   7.217  1.00  0.00     0.185 C 
BRANCH   5   6
HETATM    6  S   UNL     1      43.882  -9.959   8.695  1.00  0.00    -0.081 SA
BRANCH   6   7
HETATM    7  C   UNL     1      42.514  -8.966   9.106  1.00  0.00     0.192 A 
HETATM    8  N   UNL     1      41.736  -9.097  10.233  1.00  0.00    -0.307 N 
HETATM    9  C   UNL     1      40.707  -8.193  10.059  1.00  0.00     0.135 A 
HETATM   10  N   UNL     1      40.937  -7.498   8.962  1.00  0.00    -0.134 NA
HETATM   11  N   UNL     1      42.059  -7.989   8.361  1.00  0.00    -0.123 NA
BRANCH   8  12
HETATM   12  C   UNL     1      42.101  -9.820  11.437  1.00  0.00     0.171 C 
BRANCH  12  13
HETATM   13  C   UNL     1      42.196  -8.983  12.688  1.00  0.00    -0.040 A 
HETATM   14  C   UNL     1      41.431  -9.241  13.835  1.00  0.00     0.009 A 
HETATM   15  C   UNL     1      41.585  -8.460  14.984  1.00  0.00     0.001 A 
HETATM   16  C   UNL     1      42.516  -7.425  15.008  1.00  0.00     0.000 A 
HETATM   17  C   UNL     1      43.299  -7.169  13.887  1.00  0.00     0.001 A 
HETATM   18  C   UNL     1      43.146  -7.948  12.739  1.00  0.00     0.009 A 
ENDBRANCH  12  13
ENDBRANCH   8  12
BRANCH   9  19
HETATM   19  C   UNL     1      39.429  -7.898  10.835  1.00  0.00     0.057 A 
HETATM   20  C   UNL     1      39.449  -6.829  11.905  1.00  0.00     0.013 A 
HETATM   21  C   UNL     1      38.598  -6.650  10.694  1.00  0.00     0.013 A 
ENDBRANCH   9  19
ENDBRANCH   6   7
ENDBRANCH   5   6
ENDBRANCH   2   5
BRANCH   1  22
HETATM   22  C   UNL     1      43.070 -14.575   6.747  1.00  0.00     0.037 A 
HETATM   23  C   UNL     1      43.104 -15.436   7.851  1.00  0.00     0.032 A 
HETATM   24  C   UNL     1      43.354 -16.802   7.692  1.00  0.00     0.041 A 
HETATM   25  C   UNL     1      43.556 -17.326   6.422  1.00  0.00     0.096 A 
HETATM   26  O   UNL     1      43.834 -18.663   6.348  1.00  0.00    -0.335 OA
HETATM   27  C   UNL     1      43.535 -16.479   5.313  1.00  0.00     0.070 A 
HETATM   28  C   UNL     1      43.595 -19.219   5.058  1.00  0.00     0.217 C 
HETATM   29  C   UNL     1      44.300 -20.569   5.004  1.00  0.00     0.050 C 
HETATM   30  C   UNL     1      43.982 -18.350   3.850  1.00  0.00     0.251 C 
HETATM   31  N   UNL     1      43.806 -17.002   4.045  1.00  0.00    -0.323 N 
HETATM   32  O   UNL     1      44.319 -18.790   2.753  1.00  0.00    -0.270 OA
HETATM   33  H   UNL     1      43.950 -16.400   3.245  1.00  0.00     0.169 HD
HETATM   34  C   UNL     1      43.292 -15.110   5.469  1.00  0.00     0.062 A 
ENDBRANCH   1  22
TORSDOF 7
ENDMDL
MODEL 9
REMARK VINA RESULT:      -8.1      2.515      3.673
REMARK  7 active torsions:
REMARK  status: ('A' for Active; 'I' for Inactive)
REMARK    1  A    between atoms: C_11  and  N_12 
REMARK       I    between atoms: N_12  and  C_13 
REMARK    2  A    between atoms: C_13  and  C_14 
REMARK    3  A    between atoms: C_14  and  S_15 
REMARK    4  A    between atoms: S_15  and  C_16 
REMARK    5  A    between atoms: N_17  and  C_18 
REMARK    6  A    between atoms: C_18  and  C_19 
REMARK    7  A    between atoms: C_25  and  C_26 
ROOT
HETATM    1  N   UNL     1      42.814 -13.373   5.965  1.00  0.00    -0.326 N 
HETATM    2  C   UNL     1      43.541 -12.200   5.864  1.00  0.00     0.231 C 
HETATM    3  O   UNL     1      44.316 -11.930   4.945  1.00  0.00    -0.272 OA
HETATM    4  H   UNL     1      42.117 -13.399   6.702  1.00  0.00     0.169 HD
ENDROOT
BRANCH   2   5
HETATM    5  C   UNL     1      43.417 -11.219   7.018  1.00  0.00     0.185 C 
BRANCH   5   6
HETATM    6  S   UNL     1      44.980 -10.789   7.848  1.00  0.00    -0.081 SA
BRANCH   6   7
HETATM    7  C   UNL     1      44.346 -10.358   9.409  1.00  0.00     0.192 A 
HETATM    8  N   UNL     1      44.124  -9.076   9.860  1.00  0.00    -0.307 N 
HETATM    9  C   UNL     1      43.754  -9.226  11.181  1.00  0.00     0.135 A 
HETATM   10  N   UNL     1      43.649 -10.514  11.447  1.00  0.00    -0.134 NA
HETATM   11  N   UNL     1      44.031 -11.219  10.343  1.00  0.00    -0.123 NA
BRANCH   8  12
HETATM   12  C   UNL     1      44.032  -7.889   9.031  1.00  0.00     0.171 C 
BRANCH  12  13
HETATM   13  C   UNL     1      42.647  -7.311   8.885  1.00  0.00    -0.040 A 
HETATM   14  C   UNL     1      42.368  -5.948   9.069  1.00  0.00     0.009 A 
HETATM   15  C   UNL     1      41.074  -5.455   8.883  1.00  0.00     0.001 A 
HETATM   16  C   UNL     1      40.046  -6.310   8.493  1.00  0.00     0.000 A 
HETATM   17  C   UNL     1      40.309  -7.661   8.284  1.00  0.00     0.001 A 
HETATM   18  C   UNL     1      41.602  -8.155   8.471  1.00  0.00     0.009 A 
ENDBRANCH  12  13
ENDBRANCH   8  12
BRANCH   9  19
HETATM   19  C   UNL     1      43.492  -8.242  12.315  1.00  0.00     0.057 A 
HETATM   20  C   UNL     1      42.134  -7.585  12.419  1.00  0.00     0.013 A 
HETATM   21  C   UNL     1      42.600  -8.501  13.500  1.00  0.00     0.013 A 
ENDBRANCH   9  19
ENDBRANCH   6   7
ENDBRANCH   5   6
ENDBRANCH   2   5
BRANCH   1  22
HETATM   22  C   UNL     1      42.882 -14.488   5.097  1.00  0.00     0.037 A 
HETATM   23  C   UNL     1      42.469 -14.447   3.760  1.00  0.00     0.032 A 
HETATM   24  C   UNL     1      42.575 -15.573   2.938  1.00  0.00     0.041 A 
HETATM   25  C   UNL     1      43.111 -16.750   3.442  1.00  0.00     0.096 A 
HETATM   26  O   UNL     1      43.146 -17.821   2.592  1.00  0.00    -0.335 OA
HETATM   27  C   UNL     1      43.519 -16.809   4.776  1.00  0.00     0.070 A 
HETATM   28  C   UNL     1      44.077 -18.826   2.987  1.00  0.00     0.217 C 
HETATM   29  C   UNL     1      43.738 -20.092   2.211  1.00  0.00     0.050 C 
HETATM   30  C   UNL     1      44.178 -19.117   4.494  1.00  0.00     0.251 C 
HETATM   31  N   UNL     1      43.995 -18.017   5.295  1.00  0.00    -0.323 N 
HETATM   32  O   UNL     1      44.500 -20.201   4.975  1.00  0.00    -0.270 OA
HETATM   33  H   UNL     1      44.154 -18.139   6.286  1.00  0.00     0.169 HD
HETATM   34  C   UNL     1      43.408 -15.685   5.603  1.00  0.00     0.062 A 
ENDBRANCH   1  22
TORSDOF 7
ENDMDL
MODEL 10
REMARK VINA RESULT:      -7.8      1.510      2.278
REMARK  7 active torsions:
REMARK  status: ('A' for Active; 'I' for Inactive)
REMARK    1  A    between atoms: C_11  and  N_12 
REMARK       I    between atoms: N_12  and  C_13 
REMARK    2  A    between atoms: C_13  and  C_14 
REMARK    3  A    between atoms: C_14  and  S_15 
REMARK    4  A    between atoms: S_15  and  C_16 
REMARK    5  A    between atoms: N_17  and  C_18 
REMARK    6  A    between atoms: C_18  and  C_19 
REMARK    7  A    between atoms: C_25  and  C_26 
ROOT
HETATM    1  N   UNL     1      39.596 -13.008   6.319  1.00  0.00    -0.326 N 
HETATM    2  C   UNL     1      39.951 -11.671   6.292  1.00  0.00     0.231 C 
HETATM    3  O   UNL     1      40.996 -11.231   5.811  1.00  0.00    -0.272 OA
HETATM    4  H   UNL     1      38.649 -13.208   6.623  1.00  0.00     0.169 HD
ENDROOT
BRANCH   2   5
HETATM    5  C   UNL     1      39.005 -10.700   6.978  1.00  0.00     0.185 C 
BRANCH   5   6
HETATM    6  S   UNL     1      39.666  -9.024   7.246  1.00  0.00    -0.081 SA
BRANCH   6   7
HETATM    7  C   UNL     1      40.292  -9.236   8.854  1.00  0.00     0.192 A 
HETATM    8  N   UNL     1      41.598  -9.035   9.241  1.00  0.00    -0.307 N 
HETATM    9  C   UNL     1      41.646  -9.456  10.555  1.00  0.00     0.135 A 
HETATM   10  N   UNL     1      40.425  -9.766  10.944  1.00  0.00    -0.134 NA
HETATM   11  N   UNL     1      39.582  -9.641   9.878  1.00  0.00    -0.123 NA
BRANCH   8  12
HETATM   12  C   UNL     1      42.596  -8.286   8.502  1.00  0.00     0.171 C 
BRANCH  12  13
HETATM   13  C   UNL     1      43.854  -9.046   8.164  1.00  0.00    -0.040 A 
HETATM   14  C   UNL     1      45.138  -8.551   8.438  1.00  0.00     0.009 A 
HETATM   15  C   UNL     1      46.272  -9.313   8.142  1.00  0.00     0.001 A 
HETATM   16  C   UNL     1      46.139 -10.583   7.587  1.00  0.00     0.000 A 
HETATM   17  C   UNL     1      44.873 -11.099   7.329  1.00  0.00     0.001 A 
HETATM   18  C   UNL     1      43.739 -10.339   7.623  1.00  0.00     0.009 A 
ENDBRANCH  12  13
ENDBRANCH   8  12
BRANCH   9  19
HETATM   19  C   UNL     1      42.780  -9.640  11.556  1.00  0.00     0.057 A 
HETATM   20  C   UNL     1      42.841  -8.742  12.772  1.00  0.00     0.013 A 
HETATM   21  C   UNL     1      42.629 -10.209  12.942  1.00  0.00     0.013 A 
ENDBRANCH   9  19
ENDBRANCH   6   7
ENDBRANCH   5   6
ENDBRANCH   2   5
BRANCH   1  22
HETATM   22  C   UNL     1      40.381 -14.101   5.881  1.00  0.00     0.037 A 
HETATM   23  C   UNL     1      40.694 -15.196   6.695  1.00  0.00     0.032 A 
HETATM   24  C   UNL     1      41.458 -16.260   6.208  1.00  0.00     0.041 A 
HETATM   25  C   UNL     1      41.905 -16.248   4.894  1.00  0.00     0.096 A 
HETATM   26  O   UNL     1      42.680 -17.303   4.500  1.00  0.00    -0.335 OA
HETATM   27  C   UNL     1      41.609 -15.158   4.073  1.00  0.00     0.070 A 
HETATM   28  C   UNL     1      42.733 -17.469   3.086  1.00  0.00     0.217 C 
HETATM   29  C   UNL     1      43.907 -18.390   2.777  1.00  0.00     0.050 C 
HETATM   30  C   UNL     1      42.810 -16.184   2.244  1.00  0.00     0.251 C 
HETATM   31  N   UNL     1      42.118 -15.121   2.772  1.00  0.00    -0.323 N 
HETATM   32  O   UNL     1      43.340 -16.105   1.138  1.00  0.00    -0.270 OA
HETATM   33  H   UNL     1      42.055 -14.287   2.204  1.00  0.00     0.169 HD
HETATM   34  C   UNL     1      40.849 -14.088   4.560  1.00  0.00     0.062 A 
ENDBRANCH   1  22
TORSDOF 7
ENDMDL
