MODEL 1
REMARK VINA RESULT:      -8.5      0.000      0.000
REMARK  6 active torsions:
REMARK  status: ('A' for Active; 'I' for Inactive)
REMARK    1  A    between atoms: C_4  and  O_5 
REMARK    2  A    between atoms: O_5  and  C_6 
REMARK    3  A    between atoms: C_6  and  C_7 
REMARK       I    between atoms: C_7  and  N_8 
REMARK    4  A    between atoms: N_8  and  C_9 
REMARK    5  A    between atoms: C_9  and  C_10 
REMARK       I    between atoms: C_10  and  N_11 
REMARK    6  A    between atoms: N_11  and  N_12 
ROOT
HETATM    1  C   UNL     1      39.829 -12.463   4.752  1.00  0.00     0.255 C 
HETATM    2  N   UNL     1      40.400 -13.204   3.735  1.00  0.00    -0.245 N 
HETATM    3  O   UNL     1      39.120 -11.468   4.582  1.00  0.00    -0.270 OA
HETATM    4  H   UNL     1      41.011 -13.987   3.974  1.00  0.00     0.192 HD
ENDROOT
BRANCH   1   5
HETATM    5  C   UNL     1      40.047 -13.029   6.159  1.00  0.00     0.227 C 
BRANCH   5   6
HETATM    6  N   UNL     1      41.156 -13.948   6.393  1.00  0.00    -0.350 N 
HETATM    7  C   UNL     1      40.883 -15.291   6.600  1.00  0.00     0.242 C 
HETATM    8  O   UNL     1      39.788 -15.692   6.983  1.00  0.00    -0.271 OA
HETATM    9  H   UNL     1      41.981 -13.778   5.828  1.00  0.00     0.163 HD
BRANCH   7  10
HETATM   10  C   UNL     1      42.053 -16.225   6.323  1.00  0.00     0.278 C 
BRANCH  10  11
HETATM   11  O   UNL     1      42.995 -15.467   5.561  1.00  0.00    -0.342 OA
BRANCH  11  12
HETATM   12  C   UNL     1      43.068 -15.890   4.261  1.00  0.00     0.069 A 
HETATM   13  C   UNL     1      43.012 -17.239   3.912  1.00  0.00     0.043 A 
HETATM   14  C   UNL     1      43.127 -17.623   2.569  1.00  0.00    -0.059 A 
HETATM   15  C   UNL     1      43.088 -19.070   2.174  1.00  0.00     0.048 C 
HETATM   16  C   UNL     1      43.315 -16.637   1.590  1.00  0.00     0.007 A 
HETATM   17  C   UNL     1      43.390 -15.290   1.946  1.00  0.00     0.003 A 
HETATM   18  C   UNL     1      43.277 -14.917   3.284  1.00  0.00     0.037 A 
ENDBRANCH  11  12
ENDBRANCH  10  11
ENDBRANCH   7  10
ENDBRANCH   5   6
ENDBRANCH   1   5
BRANCH   2  19
HETATM   19  N   UNL     1      40.390 -12.720   2.458  1.00  0.00    -0.166 NA
HETATM   20  C   UNL     1      40.174 -13.571   1.509  1.00  0.00     0.157 A 
HETATM   21  C   UNL     1      39.845 -15.064   1.609  1.00  0.00     0.277 A 
HETATM   22  C   UNL     1      40.185 -13.257   0.085  1.00  0.00     0.028 A 
HETATM   23  O   UNL     1      39.781 -15.701   2.639  1.00  0.00    -0.266 OA
HETATM   24  N   UNL     1      39.653 -15.484   0.308  1.00  0.00    -0.321 N 
HETATM   25  C   UNL     1      39.862 -14.436  -0.585  1.00  0.00     0.048 A 
HETATM   26  H   UNL     1      39.423 -16.435   0.062  1.00  0.00     0.169 HD
HETATM   27  C   UNL     1      39.798 -14.479  -1.961  1.00  0.00     0.032 A 
HETATM   28  C   UNL     1      40.085 -13.296  -2.656  1.00  0.00     0.021 A 
HETATM   29  C   UNL     1      40.423 -12.113  -1.964  1.00  0.00     0.012 A 
HETATM   30 BR   UNL     1      40.826 -10.549  -2.949  1.00  0.00    -0.051 Br
HETATM   31  C   UNL     1      40.474 -12.077  -0.571  1.00  0.00     0.035 A 
ENDBRANCH   2  19
TORSDOF 6
ENDMDL
MODEL 2
REMARK VINA RESULT:      -8.5      4.381      6.906
REMARK  6 active torsions:
REMARK  status: ('A' for Active; 'I' for Inactive)
REMARK    1  A    between atoms: C_4  and  O_5 
REMARK    2  A    between atoms: O_5  and  C_6 
REMARK    3  A    between atoms: C_6  and  C_7 
REMARK       I    between atoms: C_7  and  N_8 
REMARK    4  A    between atoms: N_8  and  C_9 
REMARK    5  A    between atoms: C_9  and  C_10 
REMARK       I    between atoms: C_10  and  N_11 
REMARK    6  A    between atoms: N_11  and  N_12 
ROOT
HETATM    1  C   UNL     1      39.876 -12.124   5.116  1.00  0.00     0.255 C 
HETATM    2  N   UNL     1      41.017 -11.348   5.036  1.00  0.00    -0.245 N 
HETATM    3  O   UNL     1      39.171 -12.233   6.122  1.00  0.00    -0.270 OA
HETATM    4  H   UNL     1      41.562 -11.356   4.173  1.00  0.00     0.192 HD
ENDROOT
BRANCH   1   5
HETATM    5  C   UNL     1      39.457 -12.787   3.799  1.00  0.00     0.227 C 
BRANCH   5   6
HETATM    6  N   UNL     1      39.820 -14.179   3.556  1.00  0.00    -0.350 N 
HETATM    7  C   UNL     1      40.167 -14.569   2.272  1.00  0.00     0.242 C 
HETATM    8  O   UNL     1      39.824 -13.941   1.275  1.00  0.00    -0.271 OA
HETATM    9  H   UNL     1      40.381 -14.610   4.283  1.00  0.00     0.163 HD
BRANCH   7  10
HETATM   10  C   UNL     1      41.001 -15.841   2.200  1.00  0.00     0.278 C 
BRANCH  10  11
HETATM   11  O   UNL     1      42.183 -15.586   2.962  1.00  0.00    -0.342 OA
BRANCH  11  12
HETATM   12  C   UNL     1      42.877 -16.733   3.238  1.00  0.00     0.069 A 
HETATM   13  C   UNL     1      42.816 -17.857   2.414  1.00  0.00     0.043 A 
HETATM   14  C   UNL     1      43.517 -19.020   2.760  1.00  0.00    -0.059 A 
HETATM   15  C   UNL     1      43.450 -20.246   1.898  1.00  0.00     0.048 C 
HETATM   16  C   UNL     1      44.261 -19.043   3.948  1.00  0.00     0.007 A 
HETATM   17  C   UNL     1      44.302 -17.922   4.779  1.00  0.00     0.003 A 
HETATM   18  C   UNL     1      43.601 -16.770   4.429  1.00  0.00     0.037 A 
ENDBRANCH  11  12
ENDBRANCH  10  11
ENDBRANCH   7  10
ENDBRANCH   5   6
ENDBRANCH   1   5
BRANCH   2  19
HETATM   19  N   UNL     1      41.561 -10.827   6.175  1.00  0.00    -0.166 NA
HETATM   20  C   UNL     1      42.843 -10.925   6.312  1.00  0.00     0.157 A 
HETATM   21  C   UNL     1      43.877 -11.485   5.330  1.00  0.00     0.277 A 
HETATM   22  C   UNL     1      43.596 -10.484   7.479  1.00  0.00     0.028 A 
HETATM   23  O   UNL     1      43.625 -11.981   4.252  1.00  0.00    -0.266 OA
HETATM   24  N   UNL     1      45.100 -11.300   5.942  1.00  0.00    -0.321 N 
HETATM   25  C   UNL     1      44.940 -10.727   7.201  1.00  0.00     0.048 A 
HETATM   26  H   UNL     1      45.976 -11.579   5.525  1.00  0.00     0.169 HD
HETATM   27  C   UNL     1      45.924 -10.428   8.120  1.00  0.00     0.032 A 
HETATM   28  C   UNL     1      45.515  -9.884   9.345  1.00  0.00     0.021 A 
HETATM   29  C   UNL     1      44.150  -9.655   9.617  1.00  0.00     0.012 A 
HETATM   30 BR   UNL     1      43.648  -8.943  11.297  1.00  0.00    -0.051 Br
HETATM   31  C   UNL     1      43.163  -9.951   8.677  1.00  0.00     0.035 A 
ENDBRANCH   2  19
TORSDOF 6
ENDMDL
MODEL 3
REMARK VINA RESULT:      -8.4      6.459      9.239
REMARK  6 active torsions:
REMARK  status: ('A' for Active; 'I' for Inactive)
REMARK    1  A    between atoms: C_4  and  O_5 
REMARK    2  A    between atoms: O_5  and  C_6 
REMARK    3  A    between atoms: C_6  and  C_7 
REMARK       I    between atoms: C_7  and  N_8 
REMARK    4  A    between atoms: N_8  and  C_9 
REMARK    5  A    between atoms: C_9  and  C_10 
REMARK       I    between atoms: C_10  and  N_11 
REMARK    6  A    between atoms: N_11  and  N_12 
ROOT
HETATM    1  C   UNL     1      44.612 -11.788   7.195  1.00  0.00     0.255 C 
HETATM    2  N   UNL     1      43.731 -12.843   7.349  1.00  0.00    -0.245 N 
HETATM    3  O   UNL     1      45.278 -11.573   6.180  1.00  0.00    -0.270 OA
HETATM    4  H   UNL     1      43.257 -12.966   8.245  1.00  0.00     0.192 HD
ENDROOT
BRANCH   1   5
HETATM    5  C   UNL     1      44.638 -10.799   8.366  1.00  0.00     0.227 C 
BRANCH   5   6
HETATM    6  N   UNL     1      43.402 -10.516   9.088  1.00  0.00    -0.350 N 
HETATM    7  C   UNL     1      43.421 -10.506  10.474  1.00  0.00     0.242 C 
HETATM    8  O   UNL     1      44.282 -11.087  11.128  1.00  0.00    -0.271 OA
HETATM    9  H   UNL     1      42.823  -9.791   8.679  1.00  0.00     0.163 HD
BRANCH   7  10
HETATM   10  C   UNL     1      42.284  -9.724  11.117  1.00  0.00     0.278 C 
BRANCH  10  11
HETATM   11  O   UNL     1      42.222 -10.157  12.478  1.00  0.00    -0.342 OA
BRANCH  11  12
HETATM   12  C   UNL     1      42.348  -9.116  13.357  1.00  0.00     0.069 A 
HETATM   13  C   UNL     1      41.558  -9.008  14.502  1.00  0.00     0.043 A 
HETATM   14  C   UNL     1      41.701  -7.903  15.352  1.00  0.00    -0.059 A 
HETATM   15  C   UNL     1      40.848  -7.757  16.578  1.00  0.00     0.048 C 
HETATM   16  C   UNL     1      42.633  -6.907  15.028  1.00  0.00     0.007 A 
HETATM   17  C   UNL     1      43.407  -7.010  13.872  1.00  0.00     0.003 A 
HETATM   18  C   UNL     1      43.257  -8.111  13.030  1.00  0.00     0.037 A 
ENDBRANCH  11  12
ENDBRANCH  10  11
ENDBRANCH   7  10
ENDBRANCH   5   6
ENDBRANCH   1   5
BRANCH   2  19
HETATM   19  N   UNL     1      43.727 -13.859   6.436  1.00  0.00    -0.166 NA
HETATM   20  C   UNL     1      42.709 -13.930   5.642  1.00  0.00     0.157 A 
HETATM   21  C   UNL     1      41.514 -12.980   5.519  1.00  0.00     0.277 A 
HETATM   22  C   UNL     1      42.497 -14.974   4.646  1.00  0.00     0.028 A 
HETATM   23  O   UNL     1      41.319 -12.004   6.212  1.00  0.00    -0.266 OA
HETATM   24  N   UNL     1      40.752 -13.484   4.485  1.00  0.00    -0.321 N 
HETATM   25  C   UNL     1      41.315 -14.654   3.980  1.00  0.00     0.048 A 
HETATM   26  H   UNL     1      39.889 -13.061   4.175  1.00  0.00     0.169 HD
HETATM   27  C   UNL     1      40.824 -15.458   2.974  1.00  0.00     0.032 A 
HETATM   28  C   UNL     1      41.553 -16.613   2.660  1.00  0.00     0.021 A 
HETATM   29  C   UNL     1      42.741 -16.930   3.352  1.00  0.00     0.012 A 
HETATM   30 BR   UNL     1      43.675 -18.515   2.908  1.00  0.00    -0.051 Br
HETATM   31  C   UNL     1      43.236 -16.104   4.361  1.00  0.00     0.035 A 
ENDBRANCH   2  19
TORSDOF 6
ENDMDL
MODEL 4
REMARK VINA RESULT:      -8.4      5.103      8.508
REMARK  6 active torsions:
REMARK  status: ('A' for Active; 'I' for Inactive)
REMARK    1  A    between atoms: C_4  and  O_5 
REMARK    2  A    between atoms: O_5  and  C_6 
REMARK    3  A    between atoms: C_6  and  C_7 
REMARK       I    between atoms: C_7  and  N_8 
REMARK    4  A    between atoms: N_8  and  C_9 
REMARK    5  A    between atoms: C_9  and  C_10 
REMARK       I    between atoms: C_10  and  N_11 
REMARK    6  A    between atoms: N_11  and  N_12 
ROOT
HETATM    1  C   UNL     1      42.126 -13.492   5.392  1.00  0.00     0.255 C 
HETATM    2  N   UNL     1      43.239 -14.299   5.530  1.00  0.00    -0.245 N 
HETATM    3  O   UNL     1      41.068 -13.840   4.863  1.00  0.00    -0.270 OA
HETATM    4  H   UNL     1      44.087 -13.907   5.943  1.00  0.00     0.192 HD
ENDROOT
BRANCH   1   5
HETATM    5  C   UNL     1      42.245 -12.115   6.056  1.00  0.00     0.227 C 
BRANCH   5   6
HETATM    6  N   UNL     1      43.130 -11.951   7.204  1.00  0.00    -0.350 N 
HETATM    7  C   UNL     1      44.391 -11.409   7.009  1.00  0.00     0.242 C 
HETATM    8  O   UNL     1      44.954 -11.420   5.919  1.00  0.00    -0.271 OA
HETATM    9  H   UNL     1      42.675 -11.640   8.056  1.00  0.00     0.163 HD
BRANCH   7  10
HETATM   10  C   UNL     1      45.022 -10.810   8.258  1.00  0.00     0.278 C 
BRANCH  10  11
HETATM   11  O   UNL     1      44.167 -11.167   9.347  1.00  0.00    -0.342 OA
BRANCH  11  12
HETATM   12  C   UNL     1      43.773 -10.075  10.073  1.00  0.00     0.069 A 
HETATM   13  C   UNL     1      43.627  -8.812   9.500  1.00  0.00     0.043 A 
HETATM   14  C   UNL     1      43.256  -7.719  10.294  1.00  0.00    -0.059 A 
HETATM   15  C   UNL     1      43.112  -6.348   9.702  1.00  0.00     0.048 C 
HETATM   16  C   UNL     1      43.051  -7.910  11.668  1.00  0.00     0.007 A 
HETATM   17  C   UNL     1      43.217  -9.172  12.240  1.00  0.00     0.003 A 
HETATM   18  C   UNL     1      43.588 -10.253  11.444  1.00  0.00     0.037 A 
ENDBRANCH  11  12
ENDBRANCH  10  11
ENDBRANCH   7  10
ENDBRANCH   5   6
ENDBRANCH   1   5
BRANCH   2  19
HETATM   19  N   UNL     1      43.299 -15.488   4.861  1.00  0.00    -0.166 NA
HETATM   20  C   UNL     1      43.387 -16.560   5.577  1.00  0.00     0.157 A 
HETATM   21  C   UNL     1      43.358 -16.708   7.101  1.00  0.00     0.277 A 
HETATM   22  C   UNL     1      43.521 -17.912   5.046  1.00  0.00     0.028 A 
HETATM   23  O   UNL     1      43.291 -15.792   7.893  1.00  0.00    -0.266 OA
HETATM   24  N   UNL     1      43.428 -18.065   7.339  1.00  0.00    -0.321 N 
HETATM   25  C   UNL     1      43.535 -18.771   6.143  1.00  0.00     0.048 A 
HETATM   26  H   UNL     1      43.431 -18.466   8.266  1.00  0.00     0.169 HD
HETATM   27  C   UNL     1      43.663 -20.134   5.979  1.00  0.00     0.032 A 
HETATM   28  C   UNL     1      43.791 -20.615   4.670  1.00  0.00     0.021 A 
HETATM   29  C   UNL     1      43.788 -19.732   3.570  1.00  0.00     0.012 A 
HETATM   30 BR   UNL     1      43.990 -20.430   1.823  1.00  0.00    -0.051 Br
HETATM   31  C   UNL     1      43.647 -18.356   3.745  1.00  0.00     0.035 A 
ENDBRANCH   2  19
TORSDOF 6
ENDMDL
MODEL 5
REMARK VINA RESULT:      -8.3      1.361      1.610
REMARK  6 active torsions:
REMARK  status: ('A' for Active; 'I' for Inactive)
REMARK    1  A    between atoms: C_4  and  O_5 
REMARK    2  A    between atoms: O_5  and  C_6 
REMARK    3  A    between atoms: C_6  and  C_7 
REMARK       I    between atoms: C_7  and  N_8 
REMARK    4  A    between atoms: N_8  and  C_9 
REMARK    5  A    between atoms: C_9  and  C_10 
REMARK       I    between atoms: C_10  and  N_11 
REMARK    6  A    between atoms: N_11  and  N_12 
ROOT
HETATM    1  C   UNL     1      41.891 -13.170   4.541  1.00  0.00     0.255 C 
HETATM    2  N   UNL     1      40.657 -12.963   3.953  1.00  0.00    -0.245 N 
HETATM    3  O   UNL     1      42.972 -12.870   4.029  1.00  0.00    -0.270 OA
HETATM    4  H   UNL     1      39.817 -13.286   4.434  1.00  0.00     0.192 HD
ENDROOT
BRANCH   1   5
HETATM    5  C   UNL     1      41.835 -13.721   5.971  1.00  0.00     0.227 C 
BRANCH   5   6
HETATM    6  N   UNL     1      42.863 -14.657   6.414  1.00  0.00    -0.350 N 
HETATM    7  C   UNL     1      42.482 -15.919   6.844  1.00  0.00     0.242 C 
HETATM    8  O   UNL     1      41.348 -16.167   7.243  1.00  0.00    -0.271 OA
HETATM    9  H   UNL     1      43.716 -14.650   5.864  1.00  0.00     0.163 HD
BRANCH   7  10
HETATM   10  C   UNL     1      43.586 -16.966   6.789  1.00  0.00     0.278 C 
BRANCH  10  11
HETATM   11  O   UNL     1      44.356 -16.673   5.621  1.00  0.00    -0.342 OA
BRANCH  11  12
HETATM   12  C   UNL     1      43.940 -17.393   4.534  1.00  0.00     0.069 A 
HETATM   13  C   UNL     1      44.118 -18.774   4.443  1.00  0.00     0.043 A 
HETATM   14  C   UNL     1      43.707 -19.461   3.293  1.00  0.00    -0.059 A 
HETATM   15  C   UNL     1      43.906 -20.942   3.167  1.00  0.00     0.048 C 
HETATM   16  C   UNL     1      43.134 -18.742   2.235  1.00  0.00     0.007 A 
HETATM   17  C   UNL     1      42.976 -17.358   2.323  1.00  0.00     0.003 A 
HETATM   18  C   UNL     1      43.389 -16.682   3.470  1.00  0.00     0.037 A 
ENDBRANCH  11  12
ENDBRANCH  10  11
ENDBRANCH   7  10
ENDBRANCH   5   6
ENDBRANCH   1   5
BRANCH   2  19
HETATM   19  N   UNL     1      40.588 -12.610   2.635  1.00  0.00    -0.166 NA
HETATM   20  C   UNL     1      40.306 -13.548   1.791  1.00  0.00     0.157 A 
HETATM   21  C   UNL     1      39.956 -15.015   2.060  1.00  0.00     0.277 A 
HETATM   22  C   UNL     1      40.246 -13.380   0.344  1.00  0.00     0.028 A 
HETATM   23  O   UNL     1      39.937 -15.542   3.152  1.00  0.00    -0.266 OA
HETATM   24  N   UNL     1      39.687 -15.560   0.821  1.00  0.00    -0.321 N 
HETATM   25  C   UNL     1      39.866 -14.613  -0.184  1.00  0.00     0.048 A 
HETATM   26  H   UNL     1      39.427 -16.526   0.685  1.00  0.00     0.169 HD
HETATM   27  C   UNL     1      39.728 -14.794  -1.544  1.00  0.00     0.032 A 
HETATM   28  C   UNL     1      39.998 -13.694  -2.370  1.00  0.00     0.021 A 
HETATM   29  C   UNL     1      40.394 -12.456  -1.821  1.00  0.00     0.012 A 
HETATM   30 BR   UNL     1      40.771 -11.010  -2.981  1.00  0.00    -0.051 Br
HETATM   31  C   UNL     1      40.520 -12.280  -0.444  1.00  0.00     0.035 A 
ENDBRANCH   2  19
TORSDOF 6
ENDMDL
MODEL 6
REMARK VINA RESULT:      -7.9      5.008      7.906
REMARK  6 active torsions:
REMARK  status: ('A' for Active; 'I' for Inactive)
REMARK    1  A    between atoms: C_4  and  O_5 
REMARK    2  A    between atoms: O_5  and  C_6 
REMARK    3  A    between atoms: C_6  and  C_7 
REMARK       I    between atoms: C_7  and  N_8 
REMARK    4  A    between atoms: N_8  and  C_9 
REMARK    5  A    between atoms: C_9  and  C_10 
REMARK       I    between atoms: C_10  and  N_11 
REMARK    6  A    between atoms: N_11  and  N_12 
ROOT
HETATM    1  C   UNL     1      42.210 -10.096   4.194  1.00  0.00     0.255 C 
HETATM    2  N   UNL     1      42.821 -10.639   5.309  1.00  0.00    -0.245 N 
HETATM    3  O   UNL     1      41.620  -9.013   4.174  1.00  0.00    -0.270 OA
HETATM    4  H   UNL     1      43.246 -11.564   5.240  1.00  0.00     0.192 HD
ENDROOT
BRANCH   1   5
HETATM    5  C   UNL     1      42.405 -10.898   2.902  1.00  0.00     0.227 C 
BRANCH   5   6
HETATM    6  N   UNL     1      43.001 -12.228   2.972  1.00  0.00    -0.350 N 
HETATM    7  C   UNL     1      42.265 -13.318   2.536  1.00  0.00     0.242 C 
HETATM    8  O   UNL     1      41.040 -13.303   2.466  1.00  0.00    -0.271 OA
HETATM    9  H   UNL     1      43.985 -12.270   2.725  1.00  0.00     0.163 HD
BRANCH   7  10
HETATM   10  C   UNL     1      43.098 -14.536   2.163  1.00  0.00     0.278 C 
BRANCH  10  11
HETATM   11  O   UNL     1      42.239 -15.669   2.315  1.00  0.00    -0.342 OA
BRANCH  11  12
HETATM   12  C   UNL     1      42.901 -16.754   2.823  1.00  0.00     0.069 A 
HETATM   13  C   UNL     1      42.970 -17.970   2.142  1.00  0.00     0.043 A 
HETATM   14  C   UNL     1      43.629 -19.063   2.721  1.00  0.00    -0.059 A 
HETATM   15  C   UNL     1      43.699 -20.384   2.014  1.00  0.00     0.048 C 
HETATM   16  C   UNL     1      44.200 -18.921   3.993  1.00  0.00     0.007 A 
HETATM   17  C   UNL     1      44.111 -17.709   4.679  1.00  0.00     0.003 A 
HETATM   18  C   UNL     1      43.452 -16.627   4.097  1.00  0.00     0.037 A 
ENDBRANCH  11  12
ENDBRANCH  10  11
ENDBRANCH   7  10
ENDBRANCH   5   6
ENDBRANCH   1   5
BRANCH   2  19
HETATM   19  N   UNL     1      42.596 -10.087   6.538  1.00  0.00    -0.166 NA
HETATM   20  C   UNL     1      43.539 -10.202   7.414  1.00  0.00     0.157 A 
HETATM   21  C   UNL     1      44.935 -10.814   7.255  1.00  0.00     0.277 A 
HETATM   22  C   UNL     1      43.462  -9.733   8.793  1.00  0.00     0.028 A 
HETATM   23  O   UNL     1      45.358 -11.343   6.249  1.00  0.00    -0.266 OA
HETATM   24  N   UNL     1      45.557 -10.629   8.472  1.00  0.00    -0.321 N 
HETATM   25  C   UNL     1      44.697 -10.009   9.377  1.00  0.00     0.048 A 
HETATM   26  H   UNL     1      46.498 -10.938   8.667  1.00  0.00     0.169 HD
HETATM   27  C   UNL     1      44.949  -9.695  10.695  1.00  0.00     0.032 A 
HETATM   28  C   UNL     1      43.909  -9.102  11.424  1.00  0.00     0.021 A 
HETATM   29  C   UNL     1      42.660  -8.840  10.823  1.00  0.00     0.012 A 
HETATM   30 BR   UNL     1      41.281  -8.061  11.858  1.00  0.00    -0.051 Br
HETATM   31  C   UNL     1      42.419  -9.152   9.485  1.00  0.00     0.035 A 
ENDBRANCH   2  19
TORSDOF 6
ENDMDL
MODEL 7
REMARK VINA RESULT:      -7.6      5.540      8.808
REMARK  6 active torsions:
REMARK  status: ('A' for Active; 'I' for Inactive)
REMARK    1  A    between atoms: C_4  and  O_5 
REMARK    2  A    between atoms: O_5  and  C_6 
REMARK    3  A    between atoms: C_6  and  C_7 
REMARK       I    between atoms: C_7  and  N_8 
REMARK    4  A    between atoms: N_8  and  C_9 
REMARK    5  A    between atoms: C_9  and  C_10 
REMARK       I    between atoms: C_10  and  N_11 
REMARK    6  A    between atoms: N_11  and  N_12 
ROOT
HETATM    1  C   UNL     1      42.508 -10.759   6.479  1.00  0.00     0.255 C 
HETATM    2  N   UNL     1      43.070  -9.820   7.322  1.00  0.00    -0.245 N 
HETATM    3  O   UNL     1      41.311 -11.058   6.460  1.00  0.00    -0.270 OA
HETATM    4  H   UNL     1      44.080  -9.672   7.297  1.00  0.00     0.192 HD
ENDROOT
BRANCH   1   5
HETATM    5  C   UNL     1      43.474 -11.359   5.451  1.00  0.00     0.227 C 
BRANCH   5   6
HETATM    6  N   UNL     1      43.079 -12.558   4.717  1.00  0.00    -0.350 N 
HETATM    7  C   UNL     1      43.137 -12.548   3.333  1.00  0.00     0.242 C 
HETATM    8  O   UNL     1      43.118 -11.510   2.678  1.00  0.00    -0.271 OA
HETATM    9  H   UNL     1      43.376 -13.434   5.136  1.00  0.00     0.163 HD
BRANCH   7  10
HETATM   10  C   UNL     1      43.216 -13.926   2.692  1.00  0.00     0.278 C 
BRANCH  10  11
HETATM   11  O   UNL     1      42.432 -14.794   3.516  1.00  0.00    -0.342 OA
BRANCH  11  12
HETATM   12  C   UNL     1      43.035 -16.008   3.706  1.00  0.00     0.069 A 
HETATM   13  C   UNL     1      42.883 -17.064   2.808  1.00  0.00     0.043 A 
HETATM   14  C   UNL     1      43.491 -18.300   3.067  1.00  0.00    -0.059 A 
HETATM   15  C   UNL     1      43.326 -19.454   2.123  1.00  0.00     0.048 C 
HETATM   16  C   UNL     1      44.236 -18.462   4.243  1.00  0.00     0.007 A 
HETATM   17  C   UNL     1      44.368 -17.408   5.149  1.00  0.00     0.003 A 
HETATM   18  C   UNL     1      43.758 -16.183   4.885  1.00  0.00     0.037 A 
ENDBRANCH  11  12
ENDBRANCH  10  11
ENDBRANCH   7  10
ENDBRANCH   5   6
ENDBRANCH   1   5
BRANCH   2  19
HETATM   19  N   UNL     1      42.341  -9.326   8.366  1.00  0.00    -0.166 NA
HETATM   20  C   UNL     1      42.698  -9.687   9.555  1.00  0.00     0.157 A 
HETATM   21  C   UNL     1      43.890 -10.548   9.984  1.00  0.00     0.277 A 
HETATM   22  C   UNL     1      42.009  -9.314  10.784  1.00  0.00     0.028 A 
HETATM   23  O   UNL     1      44.681 -11.076   9.231  1.00  0.00    -0.266 OA
HETATM   24  N   UNL     1      43.842 -10.578  11.363  1.00  0.00    -0.321 N 
HETATM   25  C   UNL     1      42.740  -9.869  11.834  1.00  0.00     0.048 A 
HETATM   26  H   UNL     1      44.510 -11.079  11.930  1.00  0.00     0.169 HD
HETATM   27  C   UNL     1      42.341  -9.706  13.144  1.00  0.00     0.032 A 
HETATM   28  C   UNL     1      41.168  -8.975  13.373  1.00  0.00     0.021 A 
HETATM   29  C   UNL     1      40.433  -8.430  12.300  1.00  0.00     0.012 A 
HETATM   30 BR   UNL     1      38.842  -7.471  12.661  1.00  0.00    -0.051 Br
HETATM   31  C   UNL     1      40.850  -8.590  10.979  1.00  0.00     0.035 A 
ENDBRANCH   2  19
TORSDOF 6
ENDMDL
MODEL 8
REMARK VINA RESULT:      -7.4      4.447      8.381
REMARK  6 active torsions:
REMARK  status: ('A' for Active; 'I' for Inactive)
REMARK    1  A    between atoms: C_4  and  O_5 
REMARK    2  A    between atoms: O_5  and  C_6 
REMARK    3  A    between atoms: C_6  and  C_7 
REMARK       I    between atoms: C_7  and  N_8 
REMARK    4  A    between atoms: N_8  and  C_9 
REMARK    5  A    between atoms: C_9  and  C_10 
REMARK       I    between atoms: C_10  and  N_11 
REMARK    6  A    between atoms: N_11  and  N_12 
ROOT
HETATM    1  C   UNL     1      39.906 -13.795   0.251  1.00  0.00     0.255 C 
HETATM    2  N   UNL     1      39.862 -14.432   1.477  1.00  0.00    -0.245 N 
HETATM    3  O   UNL     1      40.366 -14.290  -0.781  1.00  0.00    -0.270 OA
HETATM    4  H   UNL     1      39.504 -13.924   2.287  1.00  0.00     0.192 HD
ENDROOT
BRANCH   1   5
HETATM    5  C   UNL     1      39.229 -12.420   0.216  1.00  0.00     0.227 C 
BRANCH   5   6
HETATM    6  N   UNL     1      39.685 -11.426  -0.749  1.00  0.00    -0.350 N 
HETATM    7  C   UNL     1      40.798 -10.657  -0.448  1.00  0.00     0.242 C 
HETATM    8  O   UNL     1      41.186 -10.479   0.702  1.00  0.00    -0.271 OA
HETATM    9  H   UNL     1      39.635 -11.716  -1.720  1.00  0.00     0.163 HD
BRANCH   7  10
HETATM   10  C   UNL     1      41.493 -10.048  -1.658  1.00  0.00     0.278 C 
BRANCH  10  11
HETATM   11  O   UNL     1      42.598  -9.298  -1.147  1.00  0.00    -0.342 OA
BRANCH  11  12
HETATM   12  C   UNL     1      42.717  -8.077  -1.754  1.00  0.00     0.069 A 
HETATM   13  C   UNL     1      43.364  -7.002  -1.144  1.00  0.00     0.043 A 
HETATM   14  C   UNL     1      43.428  -5.761  -1.793  1.00  0.00    -0.059 A 
HETATM   15  C   UNL     1      44.102  -4.587  -1.147  1.00  0.00     0.048 C 
HETATM   16  C   UNL     1      42.823  -5.614  -3.049  1.00  0.00     0.007 A 
HETATM   17  C   UNL     1      42.160  -6.687  -3.646  1.00  0.00     0.003 A 
HETATM   18  C   UNL     1      42.099  -7.917  -2.993  1.00  0.00     0.037 A 
ENDBRANCH  11  12
ENDBRANCH  10  11
ENDBRANCH   7  10
ENDBRANCH   5   6
ENDBRANCH   1   5
BRANCH   2  19
HETATM   19  N   UNL     1      40.555 -15.594   1.660  1.00  0.00    -0.166 NA
HETATM   20  C   UNL     1      41.434 -15.610   2.607  1.00  0.00     0.157 A 
HETATM   21  C   UNL     1      41.772 -14.519   3.629  1.00  0.00     0.277 A 
HETATM   22  C   UNL     1      42.311 -16.734   2.916  1.00  0.00     0.028 A 
HETATM   23  O   UNL     1      41.270 -13.416   3.667  1.00  0.00    -0.266 OA
HETATM   24  N   UNL     1      42.738 -15.069   4.446  1.00  0.00    -0.321 N 
HETATM   25  C   UNL     1      43.064 -16.357   4.027  1.00  0.00     0.048 A 
HETATM   26  H   UNL     1      43.158 -14.573   5.218  1.00  0.00     0.169 HD
HETATM   27  C   UNL     1      44.007 -17.204   4.569  1.00  0.00     0.032 A 
HETATM   28  C   UNL     1      44.186 -18.448   3.950  1.00  0.00     0.021 A 
HETATM   29  C   UNL     1      43.424 -18.810   2.819  1.00  0.00     0.012 A 
HETATM   30 BR   UNL     1      43.721 -20.492   2.004  1.00  0.00    -0.051 Br
HETATM   31  C   UNL     1      42.465 -17.951   2.284  1.00  0.00     0.035 A 
ENDBRANCH   2  19
TORSDOF 6
ENDMDL
MODEL 9
REMARK VINA RESULT:      -7.3      6.250      9.395
REMARK  6 active torsions:
REMARK  status: ('A' for Active; 'I' for Inactive)
REMARK    1  A    between atoms: C_4  and  O_5 
REMARK    2  A    between atoms: O_5  and  C_6 
REMARK    3  A    between atoms: C_6  and  C_7 
REMARK       I    between atoms: C_7  and  N_8 
REMARK    4  A    between atoms: N_8  and  C_9 
REMARK    5  A    between atoms: C_9  and  C_10 
REMARK       I    between atoms: C_10  and  N_11 
REMARK    6  A    between atoms: N_11  and  N_12 
ROOT
HETATM    1  C   UNL     1      43.996 -10.215   7.945  1.00  0.00     0.255 C 
HETATM    2  N   UNL     1      44.426  -9.667   9.139  1.00  0.00    -0.245 N 
HETATM    3  O   UNL     1      42.982  -9.865   7.337  1.00  0.00    -0.270 OA
HETATM    4  H   UNL     1      45.255 -10.053   9.592  1.00  0.00     0.192 HD
ENDROOT
BRANCH   1   5
HETATM    5  C   UNL     1      44.946 -11.252   7.337  1.00  0.00     0.227 C 
BRANCH   5   6
HETATM    6  N   UNL     1      44.516 -12.015   6.169  1.00  0.00    -0.350 N 
HETATM    7  C   UNL     1      43.721 -13.136   6.354  1.00  0.00     0.242 C 
HETATM    8  O   UNL     1      43.679 -13.748   7.417  1.00  0.00    -0.271 OA
HETATM    9  H   UNL     1      44.257 -11.455   5.363  1.00  0.00     0.163 HD
BRANCH   7  10
HETATM   10  C   UNL     1      42.915 -13.549   5.131  1.00  0.00     0.278 C 
BRANCH  10  11
HETATM   11  O   UNL     1      42.373 -14.838   5.428  1.00  0.00    -0.342 OA
BRANCH  11  12
HETATM   12  C   UNL     1      42.738 -15.778   4.502  1.00  0.00     0.069 A 
HETATM   13  C   UNL     1      43.275 -17.013   4.865  1.00  0.00     0.043 A 
HETATM   14  C   UNL     1      43.666 -17.927   3.877  1.00  0.00    -0.059 A 
HETATM   15  C   UNL     1      44.263 -19.253   4.245  1.00  0.00     0.048 C 
HETATM   16  C   UNL     1      43.527 -17.576   2.527  1.00  0.00     0.007 A 
HETATM   17  C   UNL     1      43.008 -16.330   2.169  1.00  0.00     0.003 A 
HETATM   18  C   UNL     1      42.623 -15.427   3.157  1.00  0.00     0.037 A 
ENDBRANCH  11  12
ENDBRANCH  10  11
ENDBRANCH   7  10
ENDBRANCH   5   6
ENDBRANCH   1   5
BRANCH   2  19
HETATM   19  N   UNL     1      43.595  -8.840   9.841  1.00  0.00    -0.166 NA
HETATM   20  C   UNL     1      43.097  -9.303  10.940  1.00  0.00     0.157 A 
HETATM   21  C   UNL     1      43.364 -10.645  11.630  1.00  0.00     0.277 A 
HETATM   22  C   UNL     1      42.149  -8.596  11.792  1.00  0.00     0.028 A 
HETATM   23  O   UNL     1      44.079 -11.525  11.199  1.00  0.00    -0.266 OA
HETATM   24  N   UNL     1      42.626 -10.610  12.795  1.00  0.00    -0.321 N 
HETATM   25  C   UNL     1      41.906  -9.421  12.889  1.00  0.00     0.048 A 
HETATM   26  H   UNL     1      42.604 -11.370  13.460  1.00  0.00     0.169 HD
HETATM   27  C   UNL     1      41.034  -9.043  13.887  1.00  0.00     0.032 A 
HETATM   28  C   UNL     1      40.393  -7.804  13.745  1.00  0.00     0.021 A 
HETATM   29  C   UNL     1      40.639  -6.985  12.623  1.00  0.00     0.012 A 
HETATM   30 BR   UNL     1      39.729  -5.334  12.467  1.00  0.00    -0.051 Br
HETATM   31  C   UNL     1      41.532  -7.372  11.624  1.00  0.00     0.035 A 
ENDBRANCH   2  19
TORSDOF 6
ENDMDL
MODEL 10
REMARK VINA RESULT:      -7.3      4.487      7.692
REMARK  6 active torsions:
REMARK  status: ('A' for Active; 'I' for Inactive)
REMARK    1  A    between atoms: C_4  and  O_5 
REMARK    2  A    between atoms: O_5  and  C_6 
REMARK    3  A    between atoms: C_6  and  C_7 
REMARK       I    between atoms: C_7  and  N_8 
REMARK    4  A    between atoms: N_8  and  C_9 
REMARK    5  A    between atoms: C_9  and  C_10 
REMARK       I    between atoms: C_10  and  N_11 
REMARK    6  A    between atoms: N_11  and  N_12 
ROOT
HETATM    1  C   UNL     1      41.154 -13.122   3.486  1.00  0.00     0.255 C 
HETATM    2  N   UNL     1      42.392 -13.701   3.690  1.00  0.00    -0.245 N 
HETATM    3  O   UNL     1      40.123 -13.744   3.218  1.00  0.00    -0.270 OA
HETATM    4  H   UNL     1      43.199 -13.100   3.862  1.00  0.00     0.192 HD
ENDROOT
BRANCH   1   5
HETATM    5  C   UNL     1      41.107 -11.608   3.725  1.00  0.00     0.227 C 
BRANCH   5   6
HETATM    6  N   UNL     1      42.176 -10.974   4.490  1.00  0.00    -0.350 N 
HETATM    7  C   UNL     1      42.086 -10.945   5.873  1.00  0.00     0.242 C 
HETATM    8  O   UNL     1      41.019 -11.058   6.469  1.00  0.00    -0.271 OA
HETATM    9  H   UNL     1      43.113 -11.146   4.141  1.00  0.00     0.163 HD
BRANCH   7  10
HETATM   10  C   UNL     1      43.416 -10.753   6.589  1.00  0.00     0.278 C 
BRANCH  10  11
HETATM   11  O   UNL     1      43.333  -9.488   7.251  1.00  0.00    -0.342 OA
BRANCH  11  12
HETATM   12  C   UNL     1      43.592  -9.589   8.591  1.00  0.00     0.069 A 
HETATM   13  C   UNL     1      42.578  -9.579   9.549  1.00  0.00     0.043 A 
HETATM   14  C   UNL     1      42.897  -9.648  10.911  1.00  0.00    -0.059 A 
HETATM   15  C   UNL     1      41.823  -9.620  11.959  1.00  0.00     0.048 C 
HETATM   16  C   UNL     1      44.244  -9.710  11.296  1.00  0.00     0.007 A 
HETATM   17  C   UNL     1      45.256  -9.699  10.334  1.00  0.00     0.003 A 
HETATM   18  C   UNL     1      44.930  -9.628   8.981  1.00  0.00     0.037 A 
ENDBRANCH  11  12
ENDBRANCH  10  11
ENDBRANCH   7  10
ENDBRANCH   5   6
ENDBRANCH   1   5
BRANCH   2  19
HETATM   19  N   UNL     1      42.584 -15.015   3.369  1.00  0.00    -0.166 NA
HETATM   20  C   UNL     1      42.978 -15.799   4.319  1.00  0.00     0.157 A 
HETATM   21  C   UNL     1      43.195 -15.484   5.802  1.00  0.00     0.277 A 
HETATM   22  C   UNL     1      43.292 -17.214   4.159  1.00  0.00     0.028 A 
HETATM   23  O   UNL     1      43.066 -14.392   6.313  1.00  0.00    -0.266 OA
HETATM   24  N   UNL     1      43.558 -16.682   6.382  1.00  0.00    -0.321 N 
HETATM   25  C   UNL     1      43.628 -17.692   5.425  1.00  0.00     0.048 A 
HETATM   26  H   UNL     1      43.770 -16.782   7.363  1.00  0.00     0.169 HD
HETATM   27  C   UNL     1      43.991 -19.008   5.616  1.00  0.00     0.032 A 
HETATM   28  C   UNL     1      44.022 -19.838   4.486  1.00  0.00     0.021 A 
HETATM   29  C   UNL     1      43.692 -19.335   3.210  1.00  0.00     0.012 A 
HETATM   30 BR   UNL     1      43.774 -20.490   1.713  1.00  0.00    -0.051 Br
HETATM   31  C   UNL     1      43.315 -18.005   3.028  1.00  0.00     0.035 A 
ENDBRANCH   2  19
TORSDOF 6
ENDMDL
