MODEL 1
REMARK VINA RESULT:      -8.4      0.000      0.000
REMARK  4 active torsions:
REMARK  status: ('A' for Active; 'I' for Inactive)
REMARK    1  A    between atoms: C_9  and  N_10 
REMARK    2  A    between atoms: N_10  and  C_12 
REMARK    3  A    between atoms: C_12  and  C_13 
REMARK    4  A    between atoms: C_14  and  C_15 
ROOT
HETATM    1  C   UNL     1      42.018 -12.562   4.224  1.00  0.00     0.016 A 
HETATM    2  C   UNL     1      42.800 -11.433   4.630  1.00  0.00     0.096 A 
HETATM    3  N   UNL     1      42.737 -10.456   3.716  1.00  0.00    -0.174 NA
HETATM    4  N   UNL     1      41.929 -10.916   2.761  1.00  0.00    -0.288 N 
HETATM    5  H   UNL     1      41.730 -10.310   1.968  1.00  0.00     0.188 HD
HETATM    6  C   UNL     1      41.459 -12.173   3.017  1.00  0.00     0.120 A 
ENDROOT
BRANCH   1   7
HETATM    7  C   UNL     1      41.798 -13.818   4.993  1.00  0.00     0.277 C 
BRANCH   7   8
HETATM    8  N   UNL     1      42.937 -14.811   4.911  1.00  0.00    -0.065 N 
HETATM    9  H   UNL     1      43.647 -14.417   4.281  1.00  0.00     0.280 HD
HETATM   10  C   UNL     1      43.565 -15.092   6.250  1.00  0.00     0.270 C 
BRANCH   8  11
HETATM   11  C   UNL     1      42.408 -16.110   4.382  1.00  0.00     0.205 C 
HETATM   12  C   UNL     1      42.258 -16.203   2.776  1.00  0.00     0.008 C 
HETATM   13  C   UNL     1      43.199 -15.423   1.857  1.00  0.00     0.020 C 
HETATM   14  C   UNL     1      40.810 -16.080   2.289  1.00  0.00     0.020 C 
HETATM   15  C   UNL     1      42.639 -17.677   3.018  1.00  0.00     0.137 C 
HETATM   16  C   UNL     1      43.528 -17.192   4.200  1.00  0.00     0.049 C 
HETATM   17  O   UNL     1      43.489 -18.511   2.233  1.00  0.00    -0.385 OA
HETATM   18  C   UNL     1      43.921 -18.616   4.571  1.00  0.00     0.035 C 
HETATM   19  C   UNL     1      44.324 -19.214   3.189  1.00  0.00     0.168 C 
ENDBRANCH   8  11
ENDBRANCH   7   8
ENDBRANCH   1   7
BRANCH   2  20
HETATM   20  C   UNL     1      43.552 -11.231   5.865  1.00  0.00    -0.002 A 
HETATM   21  C   UNL     1      42.908 -10.668   6.977  1.00  0.00     0.053 A 
HETATM   22  C   UNL     1      43.602 -10.479   8.171  1.00  0.00     0.103 A 
HETATM   23  C   UNL     1      44.952 -10.824   8.255  1.00  0.00     0.102 A 
HETATM   24  O   UNL     1      42.895  -9.938   9.212  1.00  0.00    -0.346 OA
HETATM   25  O   UNL     1      45.704 -10.636   9.386  1.00  0.00    -0.346 OA
HETATM   26  C   UNL     1      45.600 -11.385   7.157  1.00  0.00     0.040 A 
HETATM   27  C   UNL     1      45.073  -9.704  10.275  1.00  0.00     0.202 C 
HETATM   28  C   UNL     1      43.603 -10.047  10.454  1.00  0.00     0.202 C 
HETATM   29  C   UNL     1      44.907 -11.578   5.959  1.00  0.00     0.017 A 
ENDBRANCH   2  20
TORSDOF 4
ENDMDL
MODEL 2
REMARK VINA RESULT:      -8.2      1.721      2.539
REMARK  4 active torsions:
REMARK  status: ('A' for Active; 'I' for Inactive)
REMARK    1  A    between atoms: C_9  and  N_10 
REMARK    2  A    between atoms: N_10  and  C_12 
REMARK    3  A    between atoms: C_12  and  C_13 
REMARK    4  A    between atoms: C_14  and  C_15 
ROOT
HETATM    1  C   UNL     1      41.487 -13.608   4.475  1.00  0.00     0.016 A 
HETATM    2  C   UNL     1      41.545 -12.641   5.529  1.00  0.00     0.096 A 
HETATM    3  N   UNL     1      40.317 -12.327   5.956  1.00  0.00    -0.174 NA
HETATM    4  N   UNL     1      39.486 -13.074   5.229  1.00  0.00    -0.288 N 
HETATM    5  H   UNL     1      38.488 -12.999   5.412  1.00  0.00     0.188 HD
HETATM    6  C   UNL     1      40.135 -13.872   4.329  1.00  0.00     0.120 A 
ENDROOT
BRANCH   1   7
HETATM    7  C   UNL     1      42.643 -14.241   3.780  1.00  0.00     0.277 C 
BRANCH   7   8
HETATM    8  N   UNL     1      42.392 -15.658   3.312  1.00  0.00    -0.065 N 
HETATM    9  H   UNL     1      41.538 -15.991   3.775  1.00  0.00     0.280 HD
HETATM   10  C   UNL     1      42.217 -15.759   1.820  1.00  0.00     0.270 C 
BRANCH   8  11
HETATM   11  C   UNL     1      43.573 -16.504   3.683  1.00  0.00     0.205 C 
HETATM   12  C   UNL     1      43.638 -16.978   5.226  1.00  0.00     0.008 C 
HETATM   13  C   UNL     1      42.356 -17.204   6.029  1.00  0.00     0.020 C 
HETATM   14  C   UNL     1      44.663 -16.203   6.061  1.00  0.00     0.020 C 
HETATM   15  C   UNL     1      44.266 -18.244   4.611  1.00  0.00     0.137 C 
HETATM   16  C   UNL     1      43.351 -18.025   3.371  1.00  0.00     0.049 C 
HETATM   17  O   UNL     1      44.061 -19.605   4.986  1.00  0.00    -0.385 OA
HETATM   18  C   UNL     1      43.949 -19.221   2.641  1.00  0.00     0.035 C 
HETATM   19  C   UNL     1      43.907 -20.328   3.738  1.00  0.00     0.168 C 
ENDBRANCH   8  11
ENDBRANCH   7   8
ENDBRANCH   1   7
BRANCH   2  20
HETATM   20  C   UNL     1      42.715 -12.050   6.172  1.00  0.00    -0.002 A 
HETATM   21  C   UNL     1      42.588 -10.820   6.835  1.00  0.00     0.053 A 
HETATM   22  C   UNL     1      43.688 -10.244   7.468  1.00  0.00     0.103 A 
HETATM   23  C   UNL     1      44.930 -10.879   7.423  1.00  0.00     0.102 A 
HETATM   24  O   UNL     1      43.474  -9.050   8.104  1.00  0.00    -0.346 OA
HETATM   25  O   UNL     1      46.061 -10.355   7.995  1.00  0.00    -0.346 OA
HETATM   26  C   UNL     1      45.067 -12.102   6.770  1.00  0.00     0.040 A 
HETATM   27  C   UNL     1      45.902  -8.955   8.262  1.00  0.00     0.202 C 
HETATM   28  C   UNL     1      44.573  -8.689   8.950  1.00  0.00     0.202 C 
HETATM   29  C   UNL     1      43.966 -12.683   6.134  1.00  0.00     0.017 A 
ENDBRANCH   2  20
TORSDOF 4
ENDMDL
MODEL 3
REMARK VINA RESULT:      -8.1      4.048      6.967
REMARK  4 active torsions:
REMARK  status: ('A' for Active; 'I' for Inactive)
REMARK    1  A    between atoms: C_9  and  N_10 
REMARK    2  A    between atoms: N_10  and  C_12 
REMARK    3  A    between atoms: C_12  and  C_13 
REMARK    4  A    between atoms: C_14  and  C_15 
ROOT
HETATM    1  C   UNL     1      41.523 -13.562   4.052  1.00  0.00     0.016 A 
HETATM    2  C   UNL     1      40.435 -13.283   3.164  1.00  0.00     0.096 A 
HETATM    3  N   UNL     1      39.423 -12.701   3.818  1.00  0.00    -0.174 NA
HETATM    4  N   UNL     1      39.837 -12.583   5.079  1.00  0.00    -0.288 N 
HETATM    5  H   UNL     1      39.212 -12.142   5.750  1.00  0.00     0.188 HD
HETATM    6  C   UNL     1      41.096 -13.074   5.276  1.00  0.00     0.120 A 
ENDROOT
BRANCH   1   7
HETATM    7  C   UNL     1      42.841 -14.156   3.691  1.00  0.00     0.277 C 
BRANCH   7   8
HETATM    8  N   UNL     1      42.809 -15.649   3.446  1.00  0.00    -0.065 N 
HETATM    9  H   UNL     1      41.831 -15.954   3.522  1.00  0.00     0.280 HD
HETATM   10  C   UNL     1      43.344 -16.031   2.092  1.00  0.00     0.270 C 
BRANCH   8  11
HETATM   11  C   UNL     1      43.667 -16.324   4.474  1.00  0.00     0.205 C 
HETATM   12  C   UNL     1      43.002 -16.500   5.936  1.00  0.00     0.008 C 
HETATM   13  C   UNL     1      41.489 -16.666   6.091  1.00  0.00     0.020 C 
HETATM   14  C   UNL     1      43.541 -15.511   6.976  1.00  0.00     0.020 C 
HETATM   15  C   UNL     1      43.816 -17.808   5.939  1.00  0.00     0.137 C 
HETATM   16  C   UNL     1      43.582 -17.888   4.401  1.00  0.00     0.049 C 
HETATM   17  O   UNL     1      43.432 -19.088   6.438  1.00  0.00    -0.385 OA
HETATM   18  C   UNL     1      44.424 -19.152   4.276  1.00  0.00     0.035 C 
HETATM   19  C   UNL     1      43.857 -20.038   5.427  1.00  0.00     0.168 C 
ENDBRANCH   8  11
ENDBRANCH   7   8
ENDBRANCH   1   7
BRANCH   2  20
HETATM   20  C   UNL     1      40.346 -13.498   1.722  1.00  0.00    -0.002 A 
HETATM   21  C   UNL     1      40.676 -12.449   0.850  1.00  0.00     0.053 A 
HETATM   22  C   UNL     1      40.612 -12.635  -0.530  1.00  0.00     0.103 A 
HETATM   23  C   UNL     1      40.193 -13.861  -1.050  1.00  0.00     0.102 A 
HETATM   24  O   UNL     1      40.963 -11.566  -1.311  1.00  0.00    -0.346 OA
HETATM   25  O   UNL     1      40.075 -14.104  -2.394  1.00  0.00    -0.346 OA
HETATM   26  C   UNL     1      39.865 -14.909  -0.193  1.00  0.00     0.040 A 
HETATM   27  C   UNL     1      40.032 -12.878  -3.138  1.00  0.00     0.202 C 
HETATM   28  C   UNL     1      41.137 -11.939  -2.684  1.00  0.00     0.202 C 
HETATM   29  C   UNL     1      39.930 -14.726   1.192  1.00  0.00     0.017 A 
ENDBRANCH   2  20
TORSDOF 4
ENDMDL
MODEL 4
REMARK VINA RESULT:      -8.0      3.218      5.353
REMARK  4 active torsions:
REMARK  status: ('A' for Active; 'I' for Inactive)
REMARK    1  A    between atoms: C_9  and  N_10 
REMARK    2  A    between atoms: N_10  and  C_12 
REMARK    3  A    between atoms: C_12  and  C_13 
REMARK    4  A    between atoms: C_14  and  C_15 
ROOT
HETATM    1  C   UNL     1      43.203 -13.347   6.029  1.00  0.00     0.016 A 
HETATM    2  C   UNL     1      42.728 -12.317   5.155  1.00  0.00     0.096 A 
HETATM    3  N   UNL     1      43.406 -11.180   5.345  1.00  0.00    -0.174 NA
HETATM    4  N   UNL     1      44.305 -11.456   6.289  1.00  0.00    -0.288 N 
HETATM    5  H   UNL     1      44.945 -10.718   6.574  1.00  0.00     0.188 HD
HETATM    6  C   UNL     1      44.236 -12.748   6.730  1.00  0.00     0.120 A 
ENDROOT
BRANCH   1   7
HETATM    7  C   UNL     1      42.736 -14.761   6.079  1.00  0.00     0.277 C 
BRANCH   7   8
HETATM    8  N   UNL     1      43.668 -15.752   5.417  1.00  0.00    -0.065 N 
HETATM    9  H   UNL     1      44.243 -15.234   4.743  1.00  0.00     0.280 HD
HETATM   10  C   UNL     1      44.568 -16.454   6.399  1.00  0.00     0.270 C 
BRANCH   8  11
HETATM   11  C   UNL     1      42.846 -16.802   4.732  1.00  0.00     0.205 C 
HETATM   12  C   UNL     1      42.419 -16.474   3.209  1.00  0.00     0.008 C 
HETATM   13  C   UNL     1      43.313 -15.613   2.315  1.00  0.00     0.020 C 
HETATM   14  C   UNL     1      40.952 -16.054   3.063  1.00  0.00     0.020 C 
HETATM   15  C   UNL     1      42.581 -17.997   3.037  1.00  0.00     0.137 C 
HETATM   16  C   UNL     1      43.723 -17.936   4.093  1.00  0.00     0.049 C 
HETATM   17  O   UNL     1      43.136 -18.709   1.933  1.00  0.00    -0.385 OA
HETATM   18  C   UNL     1      43.925 -19.445   4.053  1.00  0.00     0.035 C 
HETATM   19  C   UNL     1      43.987 -19.726   2.521  1.00  0.00     0.168 C 
ENDBRANCH   8  11
ENDBRANCH   7   8
ENDBRANCH   1   7
BRANCH   2  20
HETATM   20  C   UNL     1      41.700 -12.390   4.120  1.00  0.00    -0.002 A 
HETATM   21  C   UNL     1      42.074 -12.280   2.772  1.00  0.00     0.053 A 
HETATM   22  C   UNL     1      41.112 -12.362   1.766  1.00  0.00     0.103 A 
HETATM   23  C   UNL     1      39.767 -12.526   2.099  1.00  0.00     0.102 A 
HETATM   24  O   UNL     1      41.562 -12.259   0.476  1.00  0.00    -0.346 OA
HETATM   25  O   UNL     1      38.764 -12.581   1.165  1.00  0.00    -0.346 OA
HETATM   26  C   UNL     1      39.385 -12.638   3.434  1.00  0.00     0.040 A 
HETATM   27  C   UNL     1      39.205 -12.054  -0.094  1.00  0.00     0.202 C 
HETATM   28  C   UNL     1      40.557 -12.634  -0.474  1.00  0.00     0.202 C 
HETATM   29  C   UNL     1      40.347 -12.559   4.446  1.00  0.00     0.017 A 
ENDBRANCH   2  20
TORSDOF 4
ENDMDL
MODEL 5
REMARK VINA RESULT:      -7.8      2.127      7.169
REMARK  4 active torsions:
REMARK  status: ('A' for Active; 'I' for Inactive)
REMARK    1  A    between atoms: C_9  and  N_10 
REMARK    2  A    between atoms: N_10  and  C_12 
REMARK    3  A    between atoms: C_12  and  C_13 
REMARK    4  A    between atoms: C_14  and  C_15 
ROOT
HETATM    1  C   UNL     1      40.764 -14.543   2.530  1.00  0.00     0.016 A 
HETATM    2  C   UNL     1      41.782 -15.429   2.050  1.00  0.00     0.096 A 
HETATM    3  N   UNL     1      42.091 -15.154   0.777  1.00  0.00    -0.174 NA
HETATM    4  N   UNL     1      41.325 -14.116   0.442  1.00  0.00    -0.288 N 
HETATM    5  H   UNL     1      41.419 -13.733  -0.496  1.00  0.00     0.188 HD
HETATM    6  C   UNL     1      40.514 -13.700   1.460  1.00  0.00     0.120 A 
ENDROOT
BRANCH   1   7
HETATM    7  C   UNL     1      40.194 -14.502   3.906  1.00  0.00     0.277 C 
BRANCH   7   8
HETATM    8  N   UNL     1      40.554 -13.263   4.696  1.00  0.00    -0.065 N 
HETATM    9  H   UNL     1      39.999 -12.484   4.321  1.00  0.00     0.280 HD
HETATM   10  C   UNL     1      40.275 -13.406   6.167  1.00  0.00     0.270 C 
BRANCH   8  11
HETATM   11  C   UNL     1      42.023 -13.003   4.541  1.00  0.00     0.205 C 
HETATM   12  C   UNL     1      42.436 -11.468   4.255  1.00  0.00     0.008 C 
HETATM   13  C   UNL     1      41.592 -10.316   4.803  1.00  0.00     0.020 C 
HETATM   14  C   UNL     1      42.824 -11.201   2.796  1.00  0.00     0.020 C 
HETATM   15  C   UNL     1      43.670 -11.843   5.098  1.00  0.00     0.137 C 
HETATM   16  C   UNL     1      42.749 -12.795   5.916  1.00  0.00     0.049 C 
HETATM   17  O   UNL     1      44.347 -11.054   6.075  1.00  0.00    -0.385 OA
HETATM   18  C   UNL     1      43.911 -13.289   6.768  1.00  0.00     0.035 C 
HETATM   19  C   UNL     1      44.600 -11.954   7.186  1.00  0.00     0.168 C 
ENDBRANCH   8  11
ENDBRANCH   7   8
ENDBRANCH   1   7
BRANCH   2  20
HETATM   20  C   UNL     1      42.500 -16.480   2.765  1.00  0.00    -0.002 A 
HETATM   21  C   UNL     1      42.472 -17.792   2.268  1.00  0.00     0.053 A 
HETATM   22  C   UNL     1      43.162 -18.808   2.927  1.00  0.00     0.103 A 
HETATM   23  C   UNL     1      43.862 -18.529   4.101  1.00  0.00     0.102 A 
HETATM   24  O   UNL     1      43.094 -20.057   2.368  1.00  0.00    -0.346 OA
HETATM   25  O   UNL     1      44.535 -19.485   4.818  1.00  0.00    -0.346 OA
HETATM   26  C   UNL     1      43.898 -17.229   4.602  1.00  0.00     0.040 A 
HETATM   27  C   UNL     1      44.097 -20.802   4.458  1.00  0.00     0.202 C 
HETATM   28  C   UNL     1      44.050 -20.955   2.946  1.00  0.00     0.202 C 
HETATM   29  C   UNL     1      43.209 -16.207   3.943  1.00  0.00     0.017 A 
ENDBRANCH   2  20
TORSDOF 4
ENDMDL
MODEL 6
REMARK VINA RESULT:      -7.8      3.854      6.863
REMARK  4 active torsions:
REMARK  status: ('A' for Active; 'I' for Inactive)
REMARK    1  A    between atoms: C_9  and  N_10 
REMARK    2  A    between atoms: N_10  and  C_12 
REMARK    3  A    between atoms: C_12  and  C_13 
REMARK    4  A    between atoms: C_14  and  C_15 
ROOT
HETATM    1  C   UNL     1      41.729 -12.442   3.504  1.00  0.00     0.016 A 
HETATM    2  C   UNL     1      41.436 -11.734   2.294  1.00  0.00     0.096 A 
HETATM    3  N   UNL     1      42.262 -10.692   2.140  1.00  0.00    -0.174 NA
HETATM    4  N   UNL     1      43.078 -10.727   3.192  1.00  0.00    -0.288 N 
HETATM    5  H   UNL     1      43.806 -10.020   3.259  1.00  0.00     0.188 HD
HETATM    6  C   UNL     1      42.811 -11.764   4.041  1.00  0.00     0.120 A 
ENDROOT
BRANCH   1   7
HETATM    7  C   UNL     1      41.064 -13.681   3.995  1.00  0.00     0.277 C 
BRANCH   7   8
HETATM    8  N   UNL     1      41.961 -14.594   4.802  1.00  0.00    -0.065 N 
HETATM    9  H   UNL     1      42.921 -14.240   4.717  1.00  0.00     0.280 HD
HETATM   10  C   UNL     1      41.581 -14.649   6.258  1.00  0.00     0.270 C 
BRANCH   8  11
HETATM   11  C   UNL     1      41.848 -15.986   4.256  1.00  0.00     0.205 C 
HETATM   12  C   UNL     1      42.270 -16.168   2.708  1.00  0.00     0.008 C 
HETATM   13  C   UNL     1      43.337 -15.271   2.078  1.00  0.00     0.020 C 
HETATM   14  C   UNL     1      41.073 -16.321   1.762  1.00  0.00     0.020 C 
HETATM   15  C   UNL     1      42.766 -17.540   3.202  1.00  0.00     0.137 C 
HETATM   16  C   UNL     1      43.115 -16.860   4.558  1.00  0.00     0.049 C 
HETATM   17  O   UNL     1      43.950 -18.242   2.825  1.00  0.00    -0.385 OA
HETATM   18  C   UNL     1      43.571 -18.178   5.173  1.00  0.00     0.035 C 
HETATM   19  C   UNL     1      44.507 -18.749   4.065  1.00  0.00     0.168 C 
ENDBRANCH   8  11
ENDBRANCH   7   8
ENDBRANCH   1   7
BRANCH   2  20
HETATM   20  C   UNL     1      40.446 -12.040   1.265  1.00  0.00    -0.002 A 
HETATM   21  C   UNL     1      40.745 -13.002   0.289  1.00  0.00     0.053 A 
HETATM   22  C   UNL     1      39.809 -13.321  -0.694  1.00  0.00     0.103 A 
HETATM   23  C   UNL     1      38.579 -12.662  -0.727  1.00  0.00     0.102 A 
HETATM   24  O   UNL     1      40.175 -14.282  -1.600  1.00  0.00    -0.346 OA
HETATM   25  O   UNL     1      37.626 -12.901  -1.684  1.00  0.00    -0.346 OA
HETATM   26  C   UNL     1      38.272 -11.706   0.238  1.00  0.00     0.040 A 
HETATM   27  C   UNL     1      38.193 -13.566  -2.821  1.00  0.00     0.202 C 
HETATM   28  C   UNL     1      39.060 -14.734  -2.380  1.00  0.00     0.202 C 
HETATM   29  C   UNL     1      39.207 -11.385   1.227  1.00  0.00     0.017 A 
ENDBRANCH   2  20
TORSDOF 4
ENDMDL
MODEL 7
REMARK VINA RESULT:      -7.7      1.649      3.088
REMARK  4 active torsions:
REMARK  status: ('A' for Active; 'I' for Inactive)
REMARK    1  A    between atoms: C_9  and  N_10 
REMARK    2  A    between atoms: N_10  and  C_12 
REMARK    3  A    between atoms: C_12  and  C_13 
REMARK    4  A    between atoms: C_14  and  C_15 
ROOT
HETATM    1  C   UNL     1      40.583 -12.379   2.436  1.00  0.00     0.016 A 
HETATM    2  C   UNL     1      41.653 -11.499   2.799  1.00  0.00     0.096 A 
HETATM    3  N   UNL     1      42.148 -10.879   1.721  1.00  0.00    -0.174 NA
HETATM    4  N   UNL     1      41.419 -11.317   0.695  1.00  0.00    -0.288 N 
HETATM    5  H   UNL     1      41.624 -10.948  -0.231  1.00  0.00     0.188 HD
HETATM    6  C   UNL     1      40.456 -12.212   1.067  1.00  0.00     0.120 A 
ENDROOT
BRANCH   1   7
HETATM    7  C   UNL     1      39.751 -13.200   3.359  1.00  0.00     0.277 C 
BRANCH   7   8
HETATM    8  N   UNL     1      40.062 -14.681   3.332  1.00  0.00    -0.065 N 
HETATM    9  H   UNL     1      39.426 -15.143   3.993  1.00  0.00     0.280 HD
HETATM   10  C   UNL     1      39.886 -15.290   1.968  1.00  0.00     0.270 C 
BRANCH   8  11
HETATM   11  C   UNL     1      41.493 -14.880   3.731  1.00  0.00     0.205 C 
HETATM   12  C   UNL     1      41.733 -15.425   5.233  1.00  0.00     0.008 C 
HETATM   13  C   UNL     1      40.702 -16.330   5.910  1.00  0.00     0.020 C 
HETATM   14  C   UNL     1      42.216 -14.344   6.206  1.00  0.00     0.020 C 
HETATM   15  C   UNL     1      42.922 -16.152   4.575  1.00  0.00     0.137 C 
HETATM   16  C   UNL     1      42.058 -16.274   3.286  1.00  0.00     0.049 C 
HETATM   17  O   UNL     1      43.400 -17.472   4.826  1.00  0.00    -0.385 OA
HETATM   18  C   UNL     1      43.190 -16.942   2.516  1.00  0.00     0.035 C 
HETATM   19  C   UNL     1      43.662 -18.040   3.516  1.00  0.00     0.168 C 
ENDBRANCH   8  11
ENDBRANCH   7   8
ENDBRANCH   1   7
BRANCH   2  20
HETATM   20  C   UNL     1      42.180 -11.190   4.126  1.00  0.00    -0.002 A 
HETATM   21  C   UNL     1      43.525 -11.469   4.413  1.00  0.00     0.053 A 
HETATM   22  C   UNL     1      44.054 -11.169   5.667  1.00  0.00     0.103 A 
HETATM   23  C   UNL     1      43.238 -10.614   6.654  1.00  0.00     0.102 A 
HETATM   24  O   UNL     1      45.379 -11.461   5.860  1.00  0.00    -0.346 OA
HETATM   25  O   UNL     1      43.682 -10.325   7.918  1.00  0.00    -0.346 OA
HETATM   26  C   UNL     1      41.902 -10.331   6.379  1.00  0.00     0.040 A 
HETATM   27  C   UNL     1      44.904 -11.018   8.206  1.00  0.00     0.202 C 
HETATM   28  C   UNL     1      45.889 -10.864   7.060  1.00  0.00     0.202 C 
HETATM   29  C   UNL     1      41.368 -10.629   5.121  1.00  0.00     0.017 A 
ENDBRANCH   2  20
TORSDOF 4
ENDMDL
MODEL 8
REMARK VINA RESULT:      -7.7      3.426      5.661
REMARK  4 active torsions:
REMARK  status: ('A' for Active; 'I' for Inactive)
REMARK    1  A    between atoms: C_9  and  N_10 
REMARK    2  A    between atoms: N_10  and  C_12 
REMARK    3  A    between atoms: C_12  and  C_13 
REMARK    4  A    between atoms: C_14  and  C_15 
ROOT
HETATM    1  C   UNL     1      42.627 -13.150   6.018  1.00  0.00     0.016 A 
HETATM    2  C   UNL     1      43.090 -12.303   4.960  1.00  0.00     0.096 A 
HETATM    3  N   UNL     1      44.273 -11.760   5.266  1.00  0.00    -0.174 NA
HETATM    4  N   UNL     1      44.587 -12.247   6.466  1.00  0.00    -0.288 N 
HETATM    5  H   UNL     1      45.474 -11.969   6.881  1.00  0.00     0.188 HD
HETATM    6  C   UNL     1      43.639 -13.096   6.963  1.00  0.00     0.120 A 
ENDROOT
BRANCH   1   7
HETATM    7  C   UNL     1      41.381 -13.966   6.029  1.00  0.00     0.277 C 
BRANCH   7   8
HETATM    8  N   UNL     1      41.613 -15.462   6.042  1.00  0.00    -0.065 N 
HETATM    9  H   UNL     1      41.798 -15.738   7.014  1.00  0.00     0.280 HD
HETATM   10  C   UNL     1      40.434 -16.240   5.523  1.00  0.00     0.270 C 
BRANCH   8  11
HETATM   11  C   UNL     1      42.782 -15.776   5.158  1.00  0.00     0.205 C 
HETATM   12  C   UNL     1      43.779 -16.927   5.699  1.00  0.00     0.008 C 
HETATM   13  C   UNL     1      43.255 -18.069   6.571  1.00  0.00     0.020 C 
HETATM   14  C   UNL     1      45.094 -16.380   6.266  1.00  0.00     0.020 C 
HETATM   15  C   UNL     1      43.913 -17.249   4.198  1.00  0.00     0.137 C 
HETATM   16  C   UNL     1      42.430 -16.808   4.031  1.00  0.00     0.049 C 
HETATM   17  O   UNL     1      43.992 -18.528   3.570  1.00  0.00    -0.385 OA
HETATM   18  C   UNL     1      42.469 -17.029   2.524  1.00  0.00     0.035 C 
HETATM   19  C   UNL     1      43.114 -18.443   2.418  1.00  0.00     0.168 C 
ENDBRANCH   8  11
ENDBRANCH   7   8
ENDBRANCH   1   7
BRANCH   2  20
HETATM   20  C   UNL     1      42.478 -12.038   3.661  1.00  0.00    -0.002 A 
HETATM   21  C   UNL     1      42.153 -13.114   2.821  1.00  0.00     0.053 A 
HETATM   22  C   UNL     1      41.556 -12.885   1.583  1.00  0.00     0.103 A 
HETATM   23  C   UNL     1      41.303 -11.579   1.161  1.00  0.00     0.102 A 
HETATM   24  O   UNL     1      41.258 -13.992   0.832  1.00  0.00    -0.346 OA
HETATM   25  O   UNL     1      40.749 -11.279  -0.057  1.00  0.00    -0.346 OA
HETATM   26  C   UNL     1      41.620 -10.503   1.987  1.00  0.00     0.040 A 
HETATM   27  C   UNL     1      40.850 -12.391  -0.957  1.00  0.00     0.202 C 
HETATM   28  C   UNL     1      40.404 -13.674  -0.275  1.00  0.00     0.202 C 
HETATM   29  C   UNL     1      42.218 -10.729   3.231  1.00  0.00     0.017 A 
ENDBRANCH   2  20
TORSDOF 4
ENDMDL
MODEL 9
REMARK VINA RESULT:      -7.6      1.866      3.099
REMARK  4 active torsions:
REMARK  status: ('A' for Active; 'I' for Inactive)
REMARK    1  A    between atoms: C_9  and  N_10 
REMARK    2  A    between atoms: N_10  and  C_12 
REMARK    3  A    between atoms: C_12  and  C_13 
REMARK    4  A    between atoms: C_14  and  C_15 
ROOT
HETATM    1  C   UNL     1      41.202 -13.806   3.300  1.00  0.00     0.016 A 
HETATM    2  C   UNL     1      40.720 -12.727   4.109  1.00  0.00     0.096 A 
HETATM    3  N   UNL     1      39.403 -12.556   3.941  1.00  0.00    -0.174 NA
HETATM    4  N   UNL     1      39.031 -13.499   3.075  1.00  0.00    -0.288 N 
HETATM    5  H   UNL     1      38.047 -13.556   2.821  1.00  0.00     0.188 HD
HETATM    6  C   UNL     1      40.069 -14.286   2.664  1.00  0.00     0.120 A 
ENDROOT
BRANCH   1   7
HETATM    7  C   UNL     1      42.595 -14.331   3.251  1.00  0.00     0.277 C 
BRANCH   7   8
HETATM    8  N   UNL     1      42.694 -15.821   3.005  1.00  0.00    -0.065 N 
HETATM    9  H   UNL     1      41.751 -16.215   3.106  1.00  0.00     0.280 HD
HETATM   10  C   UNL     1      43.225 -16.154   1.637  1.00  0.00     0.270 C 
BRANCH   8  11
HETATM   11  C   UNL     1      43.638 -16.413   4.009  1.00  0.00     0.205 C 
HETATM   12  C   UNL     1      43.097 -16.471   5.530  1.00  0.00     0.008 C 
HETATM   13  C   UNL     1      41.603 -16.621   5.823  1.00  0.00     0.020 C 
HETATM   14  C   UNL     1      43.716 -15.403   6.439  1.00  0.00     0.020 C 
HETATM   15  C   UNL     1      43.915 -17.776   5.569  1.00  0.00     0.137 C 
HETATM   16  C   UNL     1      43.554 -17.979   4.069  1.00  0.00     0.049 C 
HETATM   17  O   UNL     1      43.580 -19.011   6.200  1.00  0.00    -0.385 OA
HETATM   18  C   UNL     1      44.389 -19.249   3.975  1.00  0.00     0.035 C 
HETATM   19  C   UNL     1      43.923 -20.039   5.236  1.00  0.00     0.168 C 
ENDBRANCH   8  11
ENDBRANCH   7   8
ENDBRANCH   1   7
BRANCH   2  20
HETATM   20  C   UNL     1      41.448 -11.897   5.064  1.00  0.00    -0.002 A 
HETATM   21  C   UNL     1      42.710 -12.313   5.514  1.00  0.00     0.053 A 
HETATM   22  C   UNL     1      43.430 -11.530   6.415  1.00  0.00     0.103 A 
HETATM   23  C   UNL     1      42.884 -10.339   6.895  1.00  0.00     0.102 A 
HETATM   24  O   UNL     1      44.660 -12.002   6.792  1.00  0.00    -0.346 OA
HETATM   25  O   UNL     1      43.521  -9.536   7.806  1.00  0.00    -0.346 OA
HETATM   26  C   UNL     1      41.633  -9.915   6.453  1.00  0.00     0.040 A 
HETATM   27  C   UNL     1      44.566 -10.251   8.480  1.00  0.00     0.202 C 
HETATM   28  C   UNL     1      45.426 -11.007   7.482  1.00  0.00     0.202 C 
HETATM   29  C   UNL     1      40.908 -10.697   5.549  1.00  0.00     0.017 A 
ENDBRANCH   2  20
TORSDOF 4
ENDMDL
MODEL 10
REMARK VINA RESULT:      -7.5      4.058      7.024
REMARK  4 active torsions:
REMARK  status: ('A' for Active; 'I' for Inactive)
REMARK    1  A    between atoms: C_9  and  N_10 
REMARK    2  A    between atoms: N_10  and  C_12 
REMARK    3  A    between atoms: C_12  and  C_13 
REMARK    4  A    between atoms: C_14  and  C_15 
ROOT
HETATM    1  C   UNL     1      40.887 -12.059   2.590  1.00  0.00     0.016 A 
HETATM    2  C   UNL     1      42.185 -12.649   2.723  1.00  0.00     0.096 A 
HETATM    3  N   UNL     1      43.124 -11.707   2.872  1.00  0.00    -0.174 NA
HETATM    4  N   UNL     1      42.467 -10.547   2.861  1.00  0.00    -0.288 N 
HETATM    5  H   UNL     1      43.004  -9.691   2.981  1.00  0.00     0.188 HD
HETATM    6  C   UNL     1      41.118 -10.698   2.704  1.00  0.00     0.120 A 
ENDROOT
BRANCH   1   7
HETATM    7  C   UNL     1      39.589 -12.778   2.458  1.00  0.00     0.277 C 
BRANCH   7   8
HETATM    8  N   UNL     1      38.866 -12.531   1.151  1.00  0.00    -0.065 N 
HETATM    9  H   UNL     1      38.057 -13.163   1.121  1.00  0.00     0.280 HD
HETATM   10  C   UNL     1      38.392 -11.110   1.006  1.00  0.00     0.270 C 
BRANCH   8  11
HETATM   11  C   UNL     1      39.809 -12.807   0.019  1.00  0.00     0.205 C 
HETATM   12  C   UNL     1      39.132 -13.369  -1.336  1.00  0.00     0.008 C 
HETATM   13  C   UNL     1      37.703 -12.977  -1.716  1.00  0.00     0.020 C 
HETATM   14  C   UNL     1      39.350 -14.870  -1.551  1.00  0.00     0.020 C 
HETATM   15  C   UNL     1      40.247 -12.543  -2.008  1.00  0.00     0.137 C 
HETATM   16  C   UNL     1      40.123 -11.529  -0.834  1.00  0.00     0.049 C 
HETATM   17  O   UNL     1      40.169 -11.751  -3.192  1.00  0.00    -0.385 OA
HETATM   18  C   UNL     1      41.260 -10.670  -1.374  1.00  0.00     0.035 C 
HETATM   19  C   UNL     1      40.872 -10.521  -2.876  1.00  0.00     0.168 C 
ENDBRANCH   8  11
ENDBRANCH   7   8
ENDBRANCH   1   7
BRANCH   2  20
HETATM   20  C   UNL     1      42.554 -14.061   2.765  1.00  0.00    -0.002 A 
HETATM   21  C   UNL     1      42.876 -14.650   3.998  1.00  0.00     0.053 A 
HETATM   22  C   UNL     1      43.217 -16.000   4.065  1.00  0.00     0.103 A 
HETATM   23  C   UNL     1      43.266 -16.766   2.899  1.00  0.00     0.102 A 
HETATM   24  O   UNL     1      43.504 -16.499   5.308  1.00  0.00    -0.346 OA
HETATM   25  O   UNL     1      43.625 -18.089   2.886  1.00  0.00    -0.346 OA
HETATM   26  C   UNL     1      42.946 -16.191   1.670  1.00  0.00     0.040 A 
HETATM   27  C   UNL     1      44.312 -18.448   4.093  1.00  0.00     0.202 C 
HETATM   28  C   UNL     1      43.562 -17.931   5.309  1.00  0.00     0.202 C 
HETATM   29  C   UNL     1      42.602 -14.838   1.600  1.00  0.00     0.017 A 
ENDBRANCH   2  20
TORSDOF 4
ENDMDL
