MODEL 1
REMARK VINA RESULT:     -10.0      0.000      0.000
REMARK  6 active torsions:
REMARK  status: ('A' for Active; 'I' for Inactive)
REMARK    1  A    between atoms: C_2  and  C_3 
REMARK    2  A    between atoms: N_6  and  C_8 
REMARK    3  A    between atoms: C_8  and  C_9 
REMARK    4  A    between atoms: C_12  and  C_13 
REMARK    5  A    between atoms: C_13  and  O_14 
REMARK    6  A    between atoms: N_24  and  C_25 
ROOT
HETATM    1  C   UNL     1      40.020 -15.486   6.774  1.00  0.00     0.049 C 
HETATM    2  C   UNL     1      40.620 -14.597   5.678  1.00  0.00     0.116 C 
HETATM    3  N   UNL     1      40.130 -15.008   4.386  1.00  0.00    -0.324 N 
HETATM    4  C   UNL     1      41.070 -15.742   3.687  1.00  0.00     0.326 C 
HETATM    5  O   UNL     1      40.794 -16.254   2.619  1.00  0.00    -0.247 OA
HETATM    6  N   UNL     1      42.238 -15.746   4.381  1.00  0.00    -0.263 N 
HETATM    7  C   UNL     1      42.102 -14.991   5.515  1.00  0.00     0.256 C 
HETATM    8  O   UNL     1      42.990 -14.673   6.293  1.00  0.00    -0.270 OA
HETATM    9  H   UNL     1      39.171 -15.271   4.184  1.00  0.00     0.165 HD
ENDROOT
BRANCH   2  10
HETATM   10  C   UNL     1      40.455 -13.074   5.965  1.00  0.00     0.026 C 
HETATM   11  C   UNL     1      39.316 -12.397   5.185  1.00  0.00     0.035 C 
HETATM   12  C   UNL     1      39.643 -12.101   3.726  1.00  0.00     0.235 C 
HETATM   13  N   UNL     1      40.918 -11.303   3.611  1.00  0.00    -0.067 N 
HETATM   14  H   UNL     1      40.734 -10.387   4.040  1.00  0.00     0.280 HD
HETATM   15  C   UNL     1      42.086 -11.926   4.336  1.00  0.00     0.235 C 
HETATM   16  C   UNL     1      41.729 -12.222   5.784  1.00  0.00     0.035 C 
BRANCH  13  17
HETATM   17  C   UNL     1      41.313 -11.019   2.167  1.00  0.00     0.273 C 
BRANCH  17  18
HETATM   18  C   UNL     1      40.701 -11.953   1.158  1.00  0.00    -0.033 A 
HETATM   19  C   UNL     1      41.170 -13.265   1.008  1.00  0.00     0.010 A 
HETATM   20  C   UNL     1      40.621 -14.102   0.031  1.00  0.00     0.018 A 
HETATM   21  C   UNL     1      39.599 -13.643  -0.811  1.00  0.00     0.039 A 
HETATM   22  C   UNL     1      39.120 -12.338  -0.655  1.00  0.00     0.018 A 
HETATM   23  C   UNL     1      39.665 -11.501   0.322  1.00  0.00     0.010 A 
BRANCH  21  24
HETATM   24  C   UNL     1      39.067 -14.569  -1.848  1.00  0.00     0.292 C 
HETATM   25  O   UNL     1      38.990 -15.776  -1.687  1.00  0.00    -0.259 OA
BRANCH  24  26
HETATM   26  O   UNL     1      38.720 -13.885  -2.964  1.00  0.00    -0.323 OA
HETATM   27  C   UNL     1      37.973 -14.653  -3.911  1.00  0.00     0.213 C 
ENDBRANCH  24  26
ENDBRANCH  21  24
ENDBRANCH  17  18
ENDBRANCH  13  17
ENDBRANCH   2  10
BRANCH   6  28
HETATM   28  C   UNL     1      43.527 -16.295   3.941  1.00  0.00     0.106 C 
HETATM   29  C   UNL     1      44.148 -17.329   4.911  1.00  0.00     0.065 C 
HETATM   30  C   UNL     1      43.949 -18.625   4.190  1.00  0.00    -0.050 A 
HETATM   31  C   UNL     1      43.548 -18.423   2.868  1.00  0.00    -0.050 A 
HETATM   32  C   UNL     1      44.174 -19.901   4.681  1.00  0.00     0.007 A 
HETATM   33  C   UNL     1      43.425 -16.968   2.550  1.00  0.00     0.065 C 
HETATM   34  C   UNL     1      43.374 -19.494   2.005  1.00  0.00     0.007 A 
HETATM   35  C   UNL     1      43.595 -20.784   2.493  1.00  0.00     0.001 A 
HETATM   36  C   UNL     1      43.991 -20.986   3.823  1.00  0.00     0.001 A 
ENDBRANCH   6  28
TORSDOF 6
ENDMDL
MODEL 2
REMARK VINA RESULT:      -9.6      3.992      8.056
REMARK  6 active torsions:
REMARK  status: ('A' for Active; 'I' for Inactive)
REMARK    1  A    between atoms: C_2  and  C_3 
REMARK    2  A    between atoms: N_6  and  C_8 
REMARK    3  A    between atoms: C_8  and  C_9 
REMARK    4  A    between atoms: C_12  and  C_13 
REMARK    5  A    between atoms: C_13  and  O_14 
REMARK    6  A    between atoms: N_24  and  C_25 
ROOT
HETATM    1  C   UNL     1      42.530 -12.659   6.358  1.00  0.00     0.049 C 
HETATM    2  C   UNL     1      43.197 -11.399   5.794  1.00  0.00     0.116 C 
HETATM    3  N   UNL     1      44.558 -11.688   5.416  1.00  0.00    -0.324 N 
HETATM    4  C   UNL     1      45.464 -11.214   6.346  1.00  0.00     0.326 C 
HETATM    5  O   UNL     1      46.651 -11.454   6.240  1.00  0.00    -0.247 OA
HETATM    6  N   UNL     1      44.800 -10.491   7.286  1.00  0.00    -0.263 N 
HETATM    7  C   UNL     1      43.468 -10.444   6.974  1.00  0.00     0.256 C 
HETATM    8  O   UNL     1      42.611  -9.771   7.529  1.00  0.00    -0.270 OA
HETATM    9  H   UNL     1      44.863 -12.530   4.939  1.00  0.00     0.165 HD
ENDROOT
BRANCH   2  10
HETATM   10  C   UNL     1      42.359 -10.711   4.674  1.00  0.00     0.026 C 
HETATM   11  C   UNL     1      40.842 -10.930   4.786  1.00  0.00     0.035 C 
HETATM   12  C   UNL     1      40.368 -12.301   4.318  1.00  0.00     0.235 C 
HETATM   13  N   UNL     1      40.847 -12.586   2.917  1.00  0.00    -0.067 N 
HETATM   14  H   UNL     1      40.378 -11.911   2.299  1.00  0.00     0.280 HD
HETATM   15  C   UNL     1      42.336 -12.414   2.742  1.00  0.00     0.235 C 
HETATM   16  C   UNL     1      42.783 -11.044   3.228  1.00  0.00     0.035 C 
BRANCH  13  17
HETATM   17  C   UNL     1      40.437 -13.966   2.417  1.00  0.00     0.273 C 
BRANCH  17  18
HETATM   18  C   UNL     1      41.400 -15.068   2.770  1.00  0.00    -0.033 A 
HETATM   19  C   UNL     1      42.247 -15.626   1.802  1.00  0.00     0.010 A 
HETATM   20  C   UNL     1      43.100 -16.682   2.137  1.00  0.00     0.018 A 
HETATM   21  C   UNL     1      43.120 -17.199   3.440  1.00  0.00     0.039 A 
HETATM   22  C   UNL     1      42.284 -16.636   4.410  1.00  0.00     0.018 A 
HETATM   23  C   UNL     1      41.434 -15.578   4.079  1.00  0.00     0.010 A 
BRANCH  21  24
HETATM   24  C   UNL     1      44.031 -18.338   3.735  1.00  0.00     0.292 C 
HETATM   25  O   UNL     1      44.508 -18.541   4.839  1.00  0.00    -0.259 OA
BRANCH  24  26
HETATM   26  O   UNL     1      44.255 -19.070   2.617  1.00  0.00    -0.323 OA
HETATM   27  C   UNL     1      43.586 -20.334   2.602  1.00  0.00     0.213 C 
ENDBRANCH  24  26
ENDBRANCH  21  24
ENDBRANCH  17  18
ENDBRANCH  13  17
ENDBRANCH   2  10
BRANCH   6  28
HETATM   28  C   UNL     1      45.390  -9.705   8.377  1.00  0.00     0.106 C 
HETATM   29  C   UNL     1      44.807  -8.279   8.527  1.00  0.00     0.065 C 
HETATM   30  C   UNL     1      43.972  -8.387   9.764  1.00  0.00    -0.050 A 
HETATM   31  C   UNL     1      44.217  -9.579  10.448  1.00  0.00    -0.050 A 
HETATM   32  C   UNL     1      43.092  -7.442  10.267  1.00  0.00     0.007 A 
HETATM   33  C   UNL     1      45.240 -10.412   9.746  1.00  0.00     0.065 C 
HETATM   34  C   UNL     1      43.595  -9.846  11.658  1.00  0.00     0.007 A 
HETATM   35  C   UNL     1      42.704  -8.900  12.171  1.00  0.00     0.001 A 
HETATM   36  C   UNL     1      42.453  -7.707  11.479  1.00  0.00     0.001 A 
ENDBRANCH   6  28
TORSDOF 6
ENDMDL
MODEL 3
REMARK VINA RESULT:      -9.5      2.105      2.778
REMARK  6 active torsions:
REMARK  status: ('A' for Active; 'I' for Inactive)
REMARK    1  A    between atoms: C_2  and  C_3 
REMARK    2  A    between atoms: N_6  and  C_8 
REMARK    3  A    between atoms: C_8  and  C_9 
REMARK    4  A    between atoms: C_12  and  C_13 
REMARK    5  A    between atoms: C_13  and  O_14 
REMARK    6  A    between atoms: N_24  and  C_25 
ROOT
HETATM    1  C   UNL     1      40.203 -14.097   6.132  1.00  0.00     0.049 C 
HETATM    2  C   UNL     1      40.729 -13.878   4.709  1.00  0.00     0.116 C 
HETATM    3  N   UNL     1      40.229 -14.909   3.833  1.00  0.00    -0.324 N 
HETATM    4  C   UNL     1      41.186 -15.869   3.564  1.00  0.00     0.326 C 
HETATM    5  O   UNL     1      40.909 -16.864   2.923  1.00  0.00    -0.247 OA
HETATM    6  N   UNL     1      42.370 -15.481   4.106  1.00  0.00    -0.263 N 
HETATM    7  C   UNL     1      42.225 -14.255   4.700  1.00  0.00     0.256 C 
HETATM    8  O   UNL     1      43.116 -13.557   5.162  1.00  0.00    -0.270 OA
HETATM    9  H   UNL     1      39.279 -15.267   3.841  1.00  0.00     0.165 HD
ENDROOT
BRANCH   2  10
HETATM   10  C   UNL     1      40.495 -12.430   4.184  1.00  0.00     0.026 C 
HETATM   11  C   UNL     1      39.138 -12.212   3.495  1.00  0.00     0.035 C 
HETATM   12  C   UNL     1      39.061 -12.755   2.073  1.00  0.00     0.235 C 
HETATM   13  N   UNL     1      40.184 -12.209   1.227  1.00  0.00    -0.067 N 
HETATM   14  H   UNL     1      40.025 -11.197   1.141  1.00  0.00     0.280 HD
HETATM   15  C   UNL     1      41.550 -12.412   1.835  1.00  0.00     0.235 C 
HETATM   16  C   UNL     1      41.595 -11.874   3.256  1.00  0.00     0.035 C 
BRANCH  13  17
HETATM   17  C   UNL     1      40.178 -12.757  -0.195  1.00  0.00     0.273 C 
BRANCH  17  18
HETATM   18  C   UNL     1      39.048 -12.253  -1.052  1.00  0.00    -0.033 A 
HETATM   19  C   UNL     1      38.685 -10.899  -1.047  1.00  0.00     0.010 A 
HETATM   20  C   UNL     1      37.601 -10.458  -1.814  1.00  0.00     0.018 A 
HETATM   21  C   UNL     1      36.862 -11.359  -2.592  1.00  0.00     0.039 A 
HETATM   22  C   UNL     1      37.231 -12.708  -2.608  1.00  0.00     0.018 A 
HETATM   23  C   UNL     1      38.315 -13.151  -1.847  1.00  0.00     0.010 A 
BRANCH  21  24
HETATM   24  C   UNL     1      35.705 -10.838  -3.370  1.00  0.00     0.292 C 
HETATM   25  O   UNL     1      35.490  -9.648  -3.529  1.00  0.00    -0.259 OA
BRANCH  24  26
HETATM   26  O   UNL     1      34.944 -11.860  -3.832  1.00  0.00    -0.323 OA
HETATM   27  C   UNL     1      33.549 -11.557  -3.918  1.00  0.00     0.213 C 
ENDBRANCH  24  26
ENDBRANCH  21  24
ENDBRANCH  17  18
ENDBRANCH  13  17
ENDBRANCH   2  10
BRANCH   6  28
HETATM   28  C   UNL     1      43.673 -16.138   3.947  1.00  0.00     0.106 C 
HETATM   29  C   UNL     1      44.082 -17.044   5.134  1.00  0.00     0.065 C 
HETATM   30  C   UNL     1      43.912 -18.422   4.576  1.00  0.00    -0.050 A 
HETATM   31  C   UNL     1      43.721 -18.399   3.193  1.00  0.00    -0.050 A 
HETATM   32  C   UNL     1      43.985 -19.622   5.267  1.00  0.00     0.007 A 
HETATM   33  C   UNL     1      43.734 -17.001   2.663  1.00  0.00     0.065 C 
HETATM   34  C   UNL     1      43.609 -19.576   2.470  1.00  0.00     0.007 A 
HETATM   35  C   UNL     1      43.678 -20.789   3.158  1.00  0.00     0.001 A 
HETATM   36  C   UNL     1      43.863 -20.812   4.548  1.00  0.00     0.001 A 
ENDBRANCH   6  28
TORSDOF 6
ENDMDL
MODEL 4
REMARK VINA RESULT:      -9.5      2.154      7.096
REMARK  6 active torsions:
REMARK  status: ('A' for Active; 'I' for Inactive)
REMARK    1  A    between atoms: C_2  and  C_3 
REMARK    2  A    between atoms: N_6  and  C_8 
REMARK    3  A    between atoms: C_8  and  C_9 
REMARK    4  A    between atoms: C_12  and  C_13 
REMARK    5  A    between atoms: C_13  and  O_14 
REMARK    6  A    between atoms: N_24  and  C_25 
ROOT
HETATM    1  C   UNL     1      43.581 -11.580   3.327  1.00  0.00     0.049 C 
HETATM    2  C   UNL     1      42.055 -11.701   3.238  1.00  0.00     0.116 C 
HETATM    3  N   UNL     1      41.691 -13.001   2.732  1.00  0.00    -0.324 N 
HETATM    4  C   UNL     1      41.321 -12.953   1.402  1.00  0.00     0.326 C 
HETATM    5  O   UNL     1      41.077 -13.971   0.784  1.00  0.00    -0.247 OA
HETATM    6  N   UNL     1      41.283 -11.656   0.997  1.00  0.00    -0.263 N 
HETATM    7  C   UNL     1      41.585 -10.836   2.051  1.00  0.00     0.256 C 
HETATM    8  O   UNL     1      41.511  -9.616   2.072  1.00  0.00    -0.270 OA
HETATM    9  H   UNL     1      42.131 -13.875   3.004  1.00  0.00     0.165 HD
ENDROOT
BRANCH   2  10
HETATM   10  C   UNL     1      41.332 -11.309   4.562  1.00  0.00     0.026 C 
HETATM   11  C   UNL     1      42.112 -11.650   5.842  1.00  0.00     0.035 C 
HETATM   12  C   UNL     1      42.063 -13.122   6.234  1.00  0.00     0.235 C 
HETATM   13  N   UNL     1      40.638 -13.606   6.332  1.00  0.00    -0.067 N 
HETATM   14  H   UNL     1      40.206 -13.101   7.117  1.00  0.00     0.280 HD
HETATM   15  C   UNL     1      39.819 -13.324   5.096  1.00  0.00     0.235 C 
HETATM   16  C   UNL     1      39.896 -11.853   4.720  1.00  0.00     0.035 C 
BRANCH  13  17
HETATM   17  C   UNL     1      40.535 -15.086   6.679  1.00  0.00     0.273 C 
BRANCH  17  18
HETATM   18  C   UNL     1      41.473 -15.974   5.906  1.00  0.00    -0.033 A 
HETATM   19  C   UNL     1      41.376 -16.089   4.512  1.00  0.00     0.010 A 
HETATM   20  C   UNL     1      42.225 -16.956   3.817  1.00  0.00     0.018 A 
HETATM   21  C   UNL     1      43.179 -17.723   4.500  1.00  0.00     0.039 A 
HETATM   22  C   UNL     1      43.286 -17.600   5.889  1.00  0.00     0.018 A 
HETATM   23  C   UNL     1      42.442 -16.732   6.586  1.00  0.00     0.010 A 
BRANCH  21  24
HETATM   24  C   UNL     1      44.041 -18.646   3.712  1.00  0.00     0.292 C 
HETATM   25  O   UNL     1      45.075 -19.126   4.146  1.00  0.00    -0.259 OA
BRANCH  24  26
HETATM   26  O   UNL     1      43.524 -18.839   2.475  1.00  0.00    -0.323 OA
HETATM   27  C   UNL     1      43.519 -20.205   2.050  1.00  0.00     0.213 C 
ENDBRANCH  24  26
ENDBRANCH  21  24
ENDBRANCH  17  18
ENDBRANCH  13  17
ENDBRANCH   2  10
BRANCH   6  28
HETATM   28  C   UNL     1      40.814 -11.147  -0.298  1.00  0.00     0.106 C 
HETATM   29  C   UNL     1      41.314 -11.952  -1.522  1.00  0.00     0.065 C 
HETATM   30  C   UNL     1      40.087 -12.686  -1.963  1.00  0.00    -0.050 A 
HETATM   31  C   UNL     1      38.942 -12.206  -1.324  1.00  0.00    -0.050 A 
HETATM   32  C   UNL     1      40.004 -13.683  -2.922  1.00  0.00     0.007 A 
HETATM   33  C   UNL     1      39.269 -11.098  -0.376  1.00  0.00     0.065 C 
HETATM   34  C   UNL     1      37.688 -12.705  -1.641  1.00  0.00     0.007 A 
HETATM   35  C   UNL     1      37.596 -13.712  -2.604  1.00  0.00     0.001 A 
HETATM   36  C   UNL     1      38.747 -14.199  -3.240  1.00  0.00     0.001 A 
ENDBRANCH   6  28
TORSDOF 6
ENDMDL
MODEL 5
REMARK VINA RESULT:      -9.4      2.457      6.155
REMARK  6 active torsions:
REMARK  status: ('A' for Active; 'I' for Inactive)
REMARK    1  A    between atoms: C_2  and  C_3 
REMARK    2  A    between atoms: N_6  and  C_8 
REMARK    3  A    between atoms: C_8  and  C_9 
REMARK    4  A    between atoms: C_12  and  C_13 
REMARK    5  A    between atoms: C_13  and  O_14 
REMARK    6  A    between atoms: N_24  and  C_25 
ROOT
HETATM    1  C   UNL     1      41.290 -11.647  -1.555  1.00  0.00     0.049 C 
HETATM    2  C   UNL     1      40.482 -11.884  -0.273  1.00  0.00     0.116 C 
HETATM    3  N   UNL     1      41.322 -11.690   0.883  1.00  0.00    -0.324 N 
HETATM    4  C   UNL     1      41.720 -12.890   1.440  1.00  0.00     0.326 C 
HETATM    5  O   UNL     1      42.512 -12.918   2.363  1.00  0.00    -0.247 OA
HETATM    6  N   UNL     1      41.086 -13.909   0.802  1.00  0.00    -0.263 N 
HETATM    7  C   UNL     1      40.240 -13.402  -0.147  1.00  0.00     0.256 C 
HETATM    8  O   UNL     1      39.423 -14.028  -0.807  1.00  0.00    -0.270 OA
HETATM    9  H   UNL     1      42.000 -10.943   0.990  1.00  0.00     0.165 HD
ENDROOT
BRANCH   2  10
HETATM   10  C   UNL     1      39.148 -11.081  -0.232  1.00  0.00     0.026 C 
HETATM   11  C   UNL     1      39.300  -9.611   0.193  1.00  0.00     0.035 C 
HETATM   12  C   UNL     1      39.487  -9.406   1.692  1.00  0.00     0.235 C 
HETATM   13  N   UNL     1      38.380 -10.075   2.468  1.00  0.00    -0.067 N 
HETATM   14  H   UNL     1      37.511  -9.579   2.232  1.00  0.00     0.280 HD
HETATM   15  C   UNL     1      38.192 -11.531   2.117  1.00  0.00     0.235 C 
HETATM   16  C   UNL     1      38.021 -11.707   0.616  1.00  0.00     0.035 C 
BRANCH  13  17
HETATM   17  C   UNL     1      38.545  -9.937   3.977  1.00  0.00     0.273 C 
BRANCH  17  18
HETATM   18  C   UNL     1      39.806 -10.551   4.525  1.00  0.00    -0.033 A 
HETATM   19  C   UNL     1      41.019  -9.848   4.509  1.00  0.00     0.010 A 
HETATM   20  C   UNL     1      42.189 -10.453   4.977  1.00  0.00     0.018 A 
HETATM   21  C   UNL     1      42.169 -11.767   5.465  1.00  0.00     0.039 A 
HETATM   22  C   UNL     1      40.957 -12.466   5.494  1.00  0.00     0.018 A 
HETATM   23  C   UNL     1      39.786 -11.862   5.030  1.00  0.00     0.010 A 
BRANCH  21  24
HETATM   24  C   UNL     1      43.448 -12.370   5.930  1.00  0.00     0.292 C 
HETATM   25  O   UNL     1      43.499 -13.338   6.670  1.00  0.00    -0.259 OA
BRANCH  24  26
HETATM   26  O   UNL     1      44.505 -11.679   5.438  1.00  0.00    -0.323 OA
HETATM   27  C   UNL     1      45.534 -11.425   6.398  1.00  0.00     0.213 C 
ENDBRANCH  24  26
ENDBRANCH  21  24
ENDBRANCH  17  18
ENDBRANCH  13  17
ENDBRANCH   2  10
BRANCH   6  28
HETATM   28  C   UNL     1      41.120 -15.333   1.159  1.00  0.00     0.106 C 
HETATM   29  C   UNL     1      42.515 -15.856   1.577  1.00  0.00     0.065 C 
HETATM   30  C   UNL     1      42.378 -16.031   3.057  1.00  0.00    -0.050 A 
HETATM   31  C   UNL     1      41.047 -15.928   3.466  1.00  0.00    -0.050 A 
HETATM   32  C   UNL     1      43.384 -16.324   3.964  1.00  0.00     0.007 A 
HETATM   33  C   UNL     1      40.138 -15.665   2.309  1.00  0.00     0.065 C 
HETATM   34  C   UNL     1      40.692 -16.127   4.791  1.00  0.00     0.007 A 
HETATM   35  C   UNL     1      41.700 -16.419   5.713  1.00  0.00     0.001 A 
HETATM   36  C   UNL     1      43.037 -16.515   5.303  1.00  0.00     0.001 A 
ENDBRANCH   6  28
TORSDOF 6
ENDMDL
MODEL 6
REMARK VINA RESULT:      -9.3      2.507      3.215
REMARK  6 active torsions:
REMARK  status: ('A' for Active; 'I' for Inactive)
REMARK    1  A    between atoms: C_2  and  C_3 
REMARK    2  A    between atoms: N_6  and  C_8 
REMARK    3  A    between atoms: C_8  and  C_9 
REMARK    4  A    between atoms: C_12  and  C_13 
REMARK    5  A    between atoms: C_13  and  O_14 
REMARK    6  A    between atoms: N_24  and  C_25 
ROOT
HETATM    1  C   UNL     1      40.212 -14.356   6.232  1.00  0.00     0.049 C 
HETATM    2  C   UNL     1      40.777 -14.025   4.845  1.00  0.00     0.116 C 
HETATM    3  N   UNL     1      40.278 -14.964   3.871  1.00  0.00    -0.324 N 
HETATM    4  C   UNL     1      41.223 -15.917   3.541  1.00  0.00     0.326 C 
HETATM    5  O   UNL     1      40.943 -16.846   2.808  1.00  0.00    -0.247 OA
HETATM    6  N   UNL     1      42.401 -15.602   4.141  1.00  0.00    -0.263 N 
HETATM    7  C   UNL     1      42.264 -14.431   4.837  1.00  0.00     0.256 C 
HETATM    8  O   UNL     1      43.157 -13.794   5.379  1.00  0.00    -0.270 OA
HETATM    9  H   UNL     1      39.322 -15.302   3.826  1.00  0.00     0.165 HD
ENDROOT
BRANCH   2  10
HETATM   10  C   UNL     1      40.583 -12.531   4.445  1.00  0.00     0.026 C 
HETATM   11  C   UNL     1      39.150 -12.164   4.024  1.00  0.00     0.035 C 
HETATM   12  C   UNL     1      38.776 -12.606   2.614  1.00  0.00     0.235 C 
HETATM   13  N   UNL     1      39.777 -12.095   1.607  1.00  0.00    -0.067 N 
HETATM   14  H   UNL     1      39.696 -11.070   1.601  1.00  0.00     0.280 HD
HETATM   15  C   UNL     1      41.206 -12.443   1.947  1.00  0.00     0.235 C 
HETATM   16  C   UNL     1      41.547 -12.004   3.362  1.00  0.00     0.035 C 
BRANCH  13  17
HETATM   17  C   UNL     1      39.472 -12.548   0.184  1.00  0.00     0.273 C 
BRANCH  17  18
HETATM   18  C   UNL     1      39.861 -11.559  -0.881  1.00  0.00    -0.033 A 
HETATM   19  C   UNL     1      39.454 -10.219  -0.808  1.00  0.00     0.010 A 
HETATM   20  C   UNL     1      39.784  -9.326  -1.833  1.00  0.00     0.018 A 
HETATM   21  C   UNL     1      40.522  -9.754  -2.945  1.00  0.00     0.039 A 
HETATM   22  C   UNL     1      40.941 -11.088  -3.013  1.00  0.00     0.018 A 
HETATM   23  C   UNL     1      40.615 -11.981  -1.989  1.00  0.00     0.010 A 
BRANCH  21  24
HETATM   24  C   UNL     1      40.826  -8.767  -4.016  1.00  0.00     0.292 C 
HETATM   25  O   UNL     1      40.541  -8.946  -5.188  1.00  0.00    -0.259 OA
BRANCH  24  26
HETATM   26  O   UNL     1      41.469  -7.691  -3.502  1.00  0.00    -0.323 OA
HETATM   27  C   UNL     1      42.755  -7.448  -4.079  1.00  0.00     0.213 C 
ENDBRANCH  24  26
ENDBRANCH  21  24
ENDBRANCH  17  18
ENDBRANCH  13  17
ENDBRANCH   2  10
BRANCH   6  28
HETATM   28  C   UNL     1      43.695 -16.271   3.955  1.00  0.00     0.106 C 
HETATM   29  C   UNL     1      44.119 -17.184   5.130  1.00  0.00     0.065 C 
HETATM   30  C   UNL     1      43.926 -18.559   4.572  1.00  0.00    -0.050 A 
HETATM   31  C   UNL     1      43.708 -18.529   3.193  1.00  0.00    -0.050 A 
HETATM   32  C   UNL     1      44.002 -19.761   5.257  1.00  0.00     0.007 A 
HETATM   33  C   UNL     1      43.723 -17.130   2.667  1.00  0.00     0.065 C 
HETATM   34  C   UNL     1      43.572 -19.703   2.468  1.00  0.00     0.007 A 
HETATM   35  C   UNL     1      43.643 -20.919   3.151  1.00  0.00     0.001 A 
HETATM   36  C   UNL     1      43.855 -20.948   4.537  1.00  0.00     0.001 A 
ENDBRANCH   6  28
TORSDOF 6
ENDMDL
MODEL 7
REMARK VINA RESULT:      -9.2      4.216      8.113
REMARK  6 active torsions:
REMARK  status: ('A' for Active; 'I' for Inactive)
REMARK    1  A    between atoms: C_2  and  C_3 
REMARK    2  A    between atoms: N_6  and  C_8 
REMARK    3  A    between atoms: C_8  and  C_9 
REMARK    4  A    between atoms: C_12  and  C_13 
REMARK    5  A    between atoms: C_13  and  O_14 
REMARK    6  A    between atoms: N_24  and  C_25 
ROOT
HETATM    1  C   UNL     1      41.616 -11.393   2.302  1.00  0.00     0.049 C 
HETATM    2  C   UNL     1      41.050 -11.788   3.671  1.00  0.00     0.116 C 
HETATM    3  N   UNL     1      42.124 -12.157   4.561  1.00  0.00    -0.324 N 
HETATM    4  C   UNL     1      42.230 -13.527   4.703  1.00  0.00     0.326 C 
HETATM    5  O   UNL     1      43.142 -14.020   5.338  1.00  0.00    -0.247 OA
HETATM    6  N   UNL     1      41.194 -14.123   4.057  1.00  0.00    -0.263 N 
HETATM    7  C   UNL     1      40.376 -13.166   3.519  1.00  0.00     0.256 C 
HETATM    8  O   UNL     1      39.288 -13.348   2.991  1.00  0.00    -0.270 OA
HETATM    9  H   UNL     1      43.009 -11.666   4.638  1.00  0.00     0.165 HD
ENDROOT
BRANCH   2  10
HETATM   10  C   UNL     1      40.073 -10.728   4.261  1.00  0.00     0.026 C 
HETATM   11  C   UNL     1      40.576  -9.278   4.176  1.00  0.00     0.035 C 
HETATM   12  C   UNL     1      41.625  -8.914   5.221  1.00  0.00     0.235 C 
HETATM   13  N   UNL     1      41.129  -9.227   6.611  1.00  0.00    -0.067 N 
HETATM   14  H   UNL     1      40.335  -8.599   6.792  1.00  0.00     0.280 HD
HETATM   15  C   UNL     1      40.641 -10.646   6.772  1.00  0.00     0.235 C 
HETATM   16  C   UNL     1      39.607 -10.986   5.709  1.00  0.00     0.035 C 
BRANCH  13  17
HETATM   17  C   UNL     1      42.159  -8.922   7.692  1.00  0.00     0.273 C 
BRANCH  17  18
HETATM   18  C   UNL     1      41.667  -9.132   9.099  1.00  0.00    -0.033 A 
HETATM   19  C   UNL     1      42.504  -9.669  10.086  1.00  0.00     0.010 A 
HETATM   20  C   UNL     1      42.014  -9.902  11.375  1.00  0.00     0.018 A 
HETATM   21  C   UNL     1      40.682  -9.606  11.698  1.00  0.00     0.039 A 
HETATM   22  C   UNL     1      39.848  -9.058  10.717  1.00  0.00     0.018 A 
HETATM   23  C   UNL     1      40.337  -8.821   9.430  1.00  0.00     0.010 A 
BRANCH  21  24
HETATM   24  C   UNL     1      40.207  -9.895  13.078  1.00  0.00     0.292 C 
HETATM   25  O   UNL     1      39.795 -10.989  13.425  1.00  0.00    -0.259 OA
BRANCH  24  26
HETATM   26  O   UNL     1      40.281  -8.784  13.849  1.00  0.00    -0.323 OA
HETATM   27  C   UNL     1      41.447  -8.721  14.674  1.00  0.00     0.213 C 
ENDBRANCH  24  26
ENDBRANCH  21  24
ENDBRANCH  17  18
ENDBRANCH  13  17
ENDBRANCH   2  10
BRANCH   6  28
HETATM   28  C   UNL     1      40.851 -15.551   4.064  1.00  0.00     0.106 C 
HETATM   29  C   UNL     1      41.230 -16.307   2.768  1.00  0.00     0.065 C 
HETATM   30  C   UNL     1      42.407 -17.129   3.191  1.00  0.00    -0.050 A 
HETATM   31  C   UNL     1      42.563 -17.128   4.578  1.00  0.00    -0.050 A 
HETATM   32  C   UNL     1      43.245 -17.876   2.378  1.00  0.00     0.007 A 
HETATM   33  C   UNL     1      41.513 -16.300   5.246  1.00  0.00     0.065 C 
HETATM   34  C   UNL     1      43.554 -17.884   5.184  1.00  0.00     0.007 A 
HETATM   35  C   UNL     1      44.405 -18.637   4.372  1.00  0.00     0.001 A 
HETATM   36  C   UNL     1      44.253 -18.632   2.979  1.00  0.00     0.001 A 
ENDBRANCH   6  28
TORSDOF 6
ENDMDL
MODEL 8
REMARK VINA RESULT:      -8.8      5.486      9.820
REMARK  6 active torsions:
REMARK  status: ('A' for Active; 'I' for Inactive)
REMARK    1  A    between atoms: C_2  and  C_3 
REMARK    2  A    between atoms: N_6  and  C_8 
REMARK    3  A    between atoms: C_8  and  C_9 
REMARK    4  A    between atoms: C_12  and  C_13 
REMARK    5  A    between atoms: C_13  and  O_14 
REMARK    6  A    between atoms: N_24  and  C_25 
ROOT
HETATM    1  C   UNL     1      41.108  -8.369   6.743  1.00  0.00     0.049 C 
HETATM    2  C   UNL     1      42.231  -9.147   7.441  1.00  0.00     0.116 C 
HETATM    3  N   UNL     1      41.676 -10.018   8.447  1.00  0.00    -0.324 N 
HETATM    4  C   UNL     1      41.841  -9.507   9.721  1.00  0.00     0.326 C 
HETATM    5  O   UNL     1      41.349 -10.061  10.685  1.00  0.00    -0.247 OA
HETATM    6  N   UNL     1      42.604  -8.385   9.654  1.00  0.00    -0.263 N 
HETATM    7  C   UNL     1      42.983  -8.162   8.358  1.00  0.00     0.256 C 
HETATM    8  O   UNL     1      43.778  -7.321   7.963  1.00  0.00    -0.270 OA
HETATM    9  H   UNL     1      40.835 -10.575   8.335  1.00  0.00     0.165 HD
ENDROOT
BRANCH   2  10
HETATM   10  C   UNL     1      43.193  -9.860   6.444  1.00  0.00     0.026 C 
HETATM   11  C   UNL     1      42.575 -10.173   5.072  1.00  0.00     0.035 C 
HETATM   12  C   UNL     1      41.646 -11.381   5.062  1.00  0.00     0.235 C 
HETATM   13  N   UNL     1      42.339 -12.597   5.626  1.00  0.00    -0.067 N 
HETATM   14  H   UNL     1      43.100 -12.833   4.976  1.00  0.00     0.280 HD
HETATM   15  C   UNL     1      42.949 -12.366   6.987  1.00  0.00     0.235 C 
HETATM   16  C   UNL     1      43.860 -11.148   6.971  1.00  0.00     0.035 C 
BRANCH  13  17
HETATM   17  C   UNL     1      41.437 -13.824   5.679  1.00  0.00     0.273 C 
BRANCH  17  18
HETATM   18  C   UNL     1      42.095 -15.101   5.232  1.00  0.00    -0.033 A 
HETATM   19  C   UNL     1      42.246 -16.183   6.111  1.00  0.00     0.010 A 
HETATM   20  C   UNL     1      42.905 -17.344   5.691  1.00  0.00     0.018 A 
HETATM   21  C   UNL     1      43.425 -17.442   4.393  1.00  0.00     0.039 A 
HETATM   22  C   UNL     1      43.264 -16.368   3.511  1.00  0.00     0.018 A 
HETATM   23  C   UNL     1      42.603 -15.209   3.926  1.00  0.00     0.010 A 
BRANCH  21  24
HETATM   24  C   UNL     1      44.136 -18.691   4.008  1.00  0.00     0.292 C 
HETATM   25  O   UNL     1      44.397 -18.980   2.852  1.00  0.00    -0.259 OA
BRANCH  24  26
HETATM   26  O   UNL     1      44.412 -19.438   5.104  1.00  0.00    -0.323 OA
HETATM   27  C   UNL     1      43.995 -20.803   5.001  1.00  0.00     0.213 C 
ENDBRANCH  24  26
ENDBRANCH  21  24
ENDBRANCH  17  18
ENDBRANCH  13  17
ENDBRANCH   2  10
BRANCH   6  28
HETATM   28  C   UNL     1      43.129  -7.604  10.782  1.00  0.00     0.106 C 
HETATM   29  C   UNL     1      42.147  -6.546  11.340  1.00  0.00     0.065 C 
HETATM   30  C   UNL     1      41.715  -7.145  12.642  1.00  0.00    -0.050 A 
HETATM   31  C   UNL     1      42.505  -8.240  12.992  1.00  0.00    -0.050 A 
HETATM   32  C   UNL     1      40.710  -6.691  13.481  1.00  0.00     0.007 A 
HETATM   33  C   UNL     1      43.556  -8.508  11.964  1.00  0.00     0.065 C 
HETATM   34  C   UNL     1      42.315  -8.900  14.197  1.00  0.00     0.007 A 
HETATM   35  C   UNL     1      41.302  -8.451  15.048  1.00  0.00     0.001 A 
HETATM   36  C   UNL     1      40.504  -7.355  14.692  1.00  0.00     0.001 A 
ENDBRANCH   6  28
TORSDOF 6
ENDMDL
MODEL 9
REMARK VINA RESULT:      -8.8      3.078      6.963
REMARK  6 active torsions:
REMARK  status: ('A' for Active; 'I' for Inactive)
REMARK    1  A    between atoms: C_2  and  C_3 
REMARK    2  A    between atoms: N_6  and  C_8 
REMARK    3  A    between atoms: C_8  and  C_9 
REMARK    4  A    between atoms: C_12  and  C_13 
REMARK    5  A    between atoms: C_13  and  O_14 
REMARK    6  A    between atoms: N_24  and  C_25 
ROOT
HETATM    1  C   UNL     1      39.995 -10.147   5.172  1.00  0.00     0.049 C 
HETATM    2  C   UNL     1      40.824 -11.125   4.331  1.00  0.00     0.116 C 
HETATM    3  N   UNL     1      40.493 -12.483   4.684  1.00  0.00    -0.324 N 
HETATM    4  C   UNL     1      41.455 -13.056   5.494  1.00  0.00     0.326 C 
HETATM    5  O   UNL     1      41.293 -14.164   5.969  1.00  0.00    -0.247 OA
HETATM    6  N   UNL     1      42.505 -12.202   5.610  1.00  0.00    -0.263 N 
HETATM    7  C   UNL     1      42.273 -11.082   4.857  1.00  0.00     0.256 C 
HETATM    8  O   UNL     1      43.065 -10.178   4.628  1.00  0.00    -0.270 OA
HETATM    9  H   UNL     1      39.553 -12.826   4.857  1.00  0.00     0.165 HD
ENDROOT
BRANCH   2  10
HETATM   10  C   UNL     1      40.755 -10.830   2.802  1.00  0.00     0.026 C 
HETATM   11  C   UNL     1      39.435 -11.244   2.131  1.00  0.00     0.035 C 
HETATM   12  C   UNL     1      39.306 -12.739   1.865  1.00  0.00     0.235 C 
HETATM   13  N   UNL     1      40.488 -13.248   1.078  1.00  0.00    -0.067 N 
HETATM   14  H   UNL     1      40.443 -12.802   0.152  1.00  0.00     0.280 HD
HETATM   15  C   UNL     1      41.820 -12.898   1.695  1.00  0.00     0.235 C 
HETATM   16  C   UNL     1      41.916 -11.404   1.962  1.00  0.00     0.035 C 
BRANCH  13  17
HETATM   17  C   UNL     1      40.430 -14.750   0.822  1.00  0.00     0.273 C 
BRANCH  17  18
HETATM   18  C   UNL     1      41.287 -15.572   1.746  1.00  0.00    -0.033 A 
HETATM   19  C   UNL     1      40.814 -15.979   3.001  1.00  0.00     0.010 A 
HETATM   20  C   UNL     1      41.643 -16.702   3.865  1.00  0.00     0.018 A 
HETATM   21  C   UNL     1      42.955 -17.027   3.494  1.00  0.00     0.039 A 
HETATM   22  C   UNL     1      43.424 -16.632   2.236  1.00  0.00     0.018 A 
HETATM   23  C   UNL     1      42.597 -15.914   1.369  1.00  0.00     0.010 A 
BRANCH  21  24
HETATM   24  C   UNL     1      43.799 -17.777   4.462  1.00  0.00     0.292 C 
HETATM   25  O   UNL     1      43.935 -18.989   4.428  1.00  0.00    -0.259 OA
BRANCH  24  26
HETATM   26  O   UNL     1      44.351 -16.933   5.366  1.00  0.00    -0.323 OA
HETATM   27  C   UNL     1      43.901 -17.139   6.708  1.00  0.00     0.213 C 
ENDBRANCH  24  26
ENDBRANCH  21  24
ENDBRANCH  17  18
ENDBRANCH  13  17
ENDBRANCH   2  10
BRANCH   6  28
HETATM   28  C   UNL     1      43.791 -12.464   6.270  1.00  0.00     0.106 C 
HETATM   29  C   UNL     1      44.901 -11.438   5.940  1.00  0.00     0.065 C 
HETATM   30  C   UNL     1      45.014 -10.648   7.206  1.00  0.00    -0.050 A 
HETATM   31  C   UNL     1      44.317 -11.254   8.254  1.00  0.00    -0.050 A 
HETATM   32  C   UNL     1      45.747  -9.491   7.411  1.00  0.00     0.007 A 
HETATM   33  C   UNL     1      43.651 -12.516   7.811  1.00  0.00     0.065 C 
HETATM   34  C   UNL     1      44.349 -10.719   9.533  1.00  0.00     0.007 A 
HETATM   35  C   UNL     1      45.083  -9.550   9.747  1.00  0.00     0.001 A 
HETATM   36  C   UNL     1      45.776  -8.939   8.693  1.00  0.00     0.001 A 
ENDBRANCH   6  28
TORSDOF 6
ENDMDL
MODEL 10
REMARK VINA RESULT:      -8.6      4.354      8.764
REMARK  6 active torsions:
REMARK  status: ('A' for Active; 'I' for Inactive)
REMARK    1  A    between atoms: C_2  and  C_3 
REMARK    2  A    between atoms: N_6  and  C_8 
REMARK    3  A    between atoms: C_8  and  C_9 
REMARK    4  A    between atoms: C_12  and  C_13 
REMARK    5  A    between atoms: C_13  and  O_14 
REMARK    6  A    between atoms: N_24  and  C_25 
ROOT
HETATM    1  C   UNL     1      40.481  -9.362   4.585  1.00  0.00     0.049 C 
HETATM    2  C   UNL     1      41.082 -10.014   5.836  1.00  0.00     0.116 C 
HETATM    3  N   UNL     1      40.091 -10.834   6.489  1.00  0.00    -0.324 N 
HETATM    4  C   UNL     1      39.563 -10.216   7.606  1.00  0.00     0.326 C 
HETATM    5  O   UNL     1      38.645 -10.720   8.223  1.00  0.00    -0.247 OA
HETATM    6  N   UNL     1      40.238  -9.059   7.835  1.00  0.00    -0.263 N 
HETATM    7  C   UNL     1      41.236  -8.917   6.908  1.00  0.00     0.256 C 
HETATM    8  O   UNL     1      42.112  -8.065   6.903  1.00  0.00    -0.270 OA
HETATM    9  H   UNL     1      39.438 -11.448   6.012  1.00  0.00     0.165 HD
ENDROOT
BRANCH   2  10
HETATM   10  C   UNL     1      42.430 -10.746   5.559  1.00  0.00     0.026 C 
HETATM   11  C   UNL     1      42.775 -10.907   4.069  1.00  0.00     0.035 C 
HETATM   12  C   UNL     1      42.009 -12.019   3.363  1.00  0.00     0.235 C 
HETATM   13  N   UNL     1      42.169 -13.330   4.094  1.00  0.00    -0.067 N 
HETATM   14  H   UNL     1      43.160 -13.592   4.019  1.00  0.00     0.280 HD
HETATM   15  C   UNL     1      41.822 -13.249   5.560  1.00  0.00     0.235 C 
HETATM   16  C   UNL     1      42.589 -12.123   6.236  1.00  0.00     0.035 C 
BRANCH  13  17
HETATM   17  C   UNL     1      41.385 -14.468   3.452  1.00  0.00     0.273 C 
BRANCH  17  18
HETATM   18  C   UNL     1      42.115 -15.783   3.412  1.00  0.00    -0.033 A 
HETATM   19  C   UNL     1      42.165 -16.548   2.239  1.00  0.00     0.010 A 
HETATM   20  C   UNL     1      42.808 -17.791   2.235  1.00  0.00     0.018 A 
HETATM   21  C   UNL     1      43.406 -18.290   3.400  1.00  0.00     0.039 A 
HETATM   22  C   UNL     1      43.368 -17.522   4.569  1.00  0.00     0.018 A 
HETATM   23  C   UNL     1      42.730 -16.279   4.575  1.00  0.00     0.010 A 
BRANCH  21  24
HETATM   24  C   UNL     1      44.056 -19.628   3.345  1.00  0.00     0.292 C 
HETATM   25  O   UNL     1      43.955 -20.378   2.389  1.00  0.00    -0.259 OA
BRANCH  24  26
HETATM   26  O   UNL     1      44.729 -19.877   4.493  1.00  0.00    -0.323 OA
HETATM   27  C   UNL     1      44.183 -20.947   5.270  1.00  0.00     0.213 C 
ENDBRANCH  24  26
ENDBRANCH  21  24
ENDBRANCH  17  18
ENDBRANCH  13  17
ENDBRANCH   2  10
BRANCH   6  28
HETATM   28  C   UNL     1      40.090  -8.162   8.989  1.00  0.00     0.106 C 
HETATM   29  C   UNL     1      39.052  -8.632  10.036  1.00  0.00     0.065 C 
HETATM   30  C   UNL     1      39.909  -9.092  11.174  1.00  0.00    -0.050 A 
HETATM   31  C   UNL     1      41.240  -8.706  11.005  1.00  0.00    -0.050 A 
HETATM   32  C   UNL     1      39.499  -9.764  12.315  1.00  0.00     0.007 A 
HETATM   33  C   UNL     1      41.432  -7.948   9.731  1.00  0.00     0.065 C 
HETATM   34  C   UNL     1      42.188  -8.974  11.979  1.00  0.00     0.007 A 
HETATM   35  C   UNL     1      41.785  -9.653  13.131  1.00  0.00     0.001 A 
HETATM   36  C   UNL     1      40.450 -10.047  13.297  1.00  0.00     0.001 A 
ENDBRANCH   6  28
TORSDOF 6
ENDMDL
