MODEL 1
REMARK VINA RESULT:      -8.3      0.000      0.000
REMARK  8 active torsions:
REMARK  status: ('A' for Active; 'I' for Inactive)
REMARK    1  A    between atoms: CG_8  and  CB_9 
REMARK    2  A    between atoms: CB_9  and  CA_10 
REMARK    3  A    between atoms: CA_10  and  N_11 
REMARK    4  A    between atoms: CA_10  and  C_14 
REMARK    5  A    between atoms: N_11  and  C_19 
REMARK    6  A    between atoms: C_14  and  O_15 
REMARK    7  A    between atoms: C_19  and  C_20 
REMARK    8  A    between atoms: C_22  and  C_23 
ROOT
ATOM      1  CA  TRP A   1      41.457 -15.043   2.394  1.00  0.00     0.214 C 
ENDROOT
BRANCH   1   2
ATOM      2  CB  TRP A   1      42.699 -15.878   2.027  1.00  0.00     0.076 C 
BRANCH   2   3
ATOM      3  CG  TRP A   1      43.225 -16.783   3.103  1.00  0.00    -0.028 A 
ATOM      4  CD2 TRP A   1      43.433 -18.204   3.080  1.00  0.00    -0.002 A 
ATOM      5  CE3 TRP A   1      43.265 -19.224   2.118  1.00  0.00     0.014 A 
ATOM      6  CE2 TRP A   1      43.897 -18.571   4.346  1.00  0.00     0.042 A 
ATOM      7  CZ3 TRP A   1      43.525 -20.557   2.465  1.00  0.00     0.001 A 
ATOM      8  CH2 TRP A   1      43.967 -20.886   3.741  1.00  0.00     0.002 A 
ATOM      9  CZ2 TRP A   1      44.172 -19.896   4.704  1.00  0.00     0.030 A 
ATOM     10  NE1 TRP A   1      44.036 -17.423   5.086  1.00  0.00    -0.365 N 
ATOM     11  HE1 TRP A   1      44.402 -17.388   6.029  1.00  0.00     0.165 HD
ATOM     12  CD1 TRP A   1      43.615 -16.346   4.356  1.00  0.00     0.096 A 
ENDBRANCH   2   3
ENDBRANCH   1   2
BRANCH   1  13
ATOM     13  N   TRP A   1      41.617 -13.611   1.921  1.00  0.00    -0.064 N 
ATOM     14  H1  TRP A   1      42.559 -13.451   1.536  1.00  0.00     0.278 HD
ATOM     15  H2  TRP A   1      40.956 -13.498   1.131  1.00  0.00     0.278 HD
BRANCH  13  16
HETATM   16  C   UNK A   0      41.333 -12.576   2.947  1.00  0.00     0.280 C 
BRANCH  16  17
HETATM   17  C   UNK A   0      42.500 -12.288   3.813  1.00  0.00     0.027 A 
HETATM   18  S   UNK A   0      42.567 -12.854   5.434  1.00  0.00    -0.076 SA
HETATM   19  C   UNK A   0      44.030 -11.987   5.663  1.00  0.00     0.079 A 
HETATM   20  N   UNK A   0      44.491 -11.370   4.598  1.00  0.00    -0.257 NA
HETATM   21  C   UNK A   0      43.625 -11.537   3.542  1.00  0.00     0.133 A 
BRANCH  19  22
HETATM   22  C   UNK A   0      44.722 -11.906   7.024  1.00  0.00     0.045 C 
HETATM   23  C   UNK A   0      45.958 -10.961   7.088  1.00  0.00     0.011 C 
HETATM   24  C   UNK A   0      45.458 -10.509   8.472  1.00  0.00     0.002 C 
HETATM   25  C   UNK A   0      44.046 -10.878   7.985  1.00  0.00     0.011 C 
ENDBRANCH  19  22
ENDBRANCH  16  17
ENDBRANCH  13  16
ENDBRANCH   1  13
BRANCH   1  26
ATOM     26  C   TRP A   1      40.201 -15.619   1.705  1.00  0.00     0.197 C 
BRANCH  26  27
ATOM     27  O   TRP A   1      39.080 -15.388   2.566  1.00  0.00    -0.399 OA
ATOM     28  H   TRP A   1      38.511 -16.184   2.521  1.00  0.00     0.209 HD
ENDBRANCH  26  27
ENDBRANCH   1  26
TORSDOF 8
ENDMDL
MODEL 2
REMARK VINA RESULT:      -7.7      2.265      3.247
REMARK  8 active torsions:
REMARK  status: ('A' for Active; 'I' for Inactive)
REMARK    1  A    between atoms: CG_8  and  CB_9 
REMARK    2  A    between atoms: CB_9  and  CA_10 
REMARK    3  A    between atoms: CA_10  and  N_11 
REMARK    4  A    between atoms: CA_10  and  C_14 
REMARK    5  A    between atoms: N_11  and  C_19 
REMARK    6  A    between atoms: C_14  and  O_15 
REMARK    7  A    between atoms: C_19  and  C_20 
REMARK    8  A    between atoms: C_22  and  C_23 
ROOT
ATOM      1  CA  TRP A   1      41.528 -13.058   5.433  1.00  0.00     0.214 C 
ENDROOT
BRANCH   1   2
ATOM      2  CB  TRP A   1      42.199 -13.852   4.296  1.00  0.00     0.076 C 
BRANCH   2   3
ATOM      3  CG  TRP A   1      42.945 -15.088   4.708  1.00  0.00    -0.028 A 
ATOM      4  CD2 TRP A   1      43.181 -16.299   3.974  1.00  0.00    -0.002 A 
ATOM      5  CE3 TRP A   1      42.857 -16.765   2.680  1.00  0.00     0.014 A 
ATOM      6  CE2 TRP A   1      43.889 -17.159   4.817  1.00  0.00     0.042 A 
ATOM      7  CZ3 TRP A   1      43.212 -18.066   2.299  1.00  0.00     0.001 A 
ATOM      8  CH2 TRP A   1      43.900 -18.899   3.174  1.00  0.00     0.002 A 
ATOM      9  CZ2 TRP A   1      44.262 -18.457   4.447  1.00  0.00     0.030 A 
ATOM     10  NE1 TRP A   1      44.139 -16.482   5.985  1.00  0.00    -0.365 N 
ATOM     11  HE1 TRP A   1      44.678 -16.849   6.759  1.00  0.00     0.165 HD
ATOM     12  CD1 TRP A   1      43.558 -15.244   5.938  1.00  0.00     0.096 A 
ENDBRANCH   2   3
ENDBRANCH   1   2
BRANCH   1  13
ATOM     13  N   TRP A   1      41.877 -11.585   5.334  1.00  0.00    -0.064 N 
ATOM     14  H1  TRP A   1      41.392 -11.142   4.541  1.00  0.00     0.278 HD
ATOM     15  H2  TRP A   1      41.495 -11.146   6.191  1.00  0.00     0.278 HD
BRANCH  13  16
HETATM   16  C   UNK A   0      43.329 -11.289   5.238  1.00  0.00     0.280 C 
BRANCH  16  17
HETATM   17  C   UNK A   0      43.965 -11.085   6.560  1.00  0.00     0.027 A 
HETATM   18  S   UNK A   0      43.201 -10.147   7.780  1.00  0.00    -0.076 SA
HETATM   19  C   UNK A   0      44.597 -10.313   8.764  1.00  0.00     0.079 A 
HETATM   20  N   UNK A   0      45.550 -11.070   8.266  1.00  0.00    -0.257 NA
HETATM   21  C   UNK A   0      45.196 -11.511   7.011  1.00  0.00     0.133 A 
BRANCH  19  22
HETATM   22  C   UNK A   0      44.735  -9.594  10.106  1.00  0.00     0.045 C 
HETATM   23  C   UNK A   0      43.750  -8.408  10.331  1.00  0.00     0.011 C 
HETATM   24  C   UNK A   0      43.597  -8.898  11.783  1.00  0.00     0.002 C 
HETATM   25  C   UNK A   0      43.947 -10.300  11.254  1.00  0.00     0.011 C 
ENDBRANCH  19  22
ENDBRANCH  16  17
ENDBRANCH  13  16
ENDBRANCH   1  13
BRANCH   1  26
ATOM     26  C   TRP A   1      39.992 -13.175   5.334  1.00  0.00     0.197 C 
BRANCH  26  27
ATOM     27  O   TRP A   1      39.548 -14.054   6.375  1.00  0.00    -0.399 OA
ATOM     28  H   TRP A   1      40.240 -14.057   7.067  1.00  0.00     0.209 HD
ENDBRANCH  26  27
ENDBRANCH   1  26
TORSDOF 8
ENDMDL
MODEL 3
REMARK VINA RESULT:      -7.4      2.894      6.224
REMARK  8 active torsions:
REMARK  status: ('A' for Active; 'I' for Inactive)
REMARK    1  A    between atoms: CG_8  and  CB_9 
REMARK    2  A    between atoms: CB_9  and  CA_10 
REMARK    3  A    between atoms: CA_10  and  N_11 
REMARK    4  A    between atoms: CA_10  and  C_14 
REMARK    5  A    between atoms: N_11  and  C_19 
REMARK    6  A    between atoms: C_14  and  O_15 
REMARK    7  A    between atoms: C_19  and  C_20 
REMARK    8  A    between atoms: C_22  and  C_23 
ROOT
ATOM      1  CA  TRP A   1      43.055 -13.254   4.282  1.00  0.00     0.214 C 
ENDROOT
BRANCH   1   2
ATOM      2  CB  TRP A   1      42.246 -14.525   4.604  1.00  0.00     0.076 C 
BRANCH   2   3
ATOM      3  CG  TRP A   1      43.046 -15.775   4.827  1.00  0.00    -0.028 A 
ATOM      4  CD2 TRP A   1      43.202 -16.923   3.978  1.00  0.00    -0.002 A 
ATOM      5  CE3 TRP A   1      42.730 -17.294   2.699  1.00  0.00     0.014 A 
ATOM      6  CE2 TRP A   1      44.014 -17.832   4.662  1.00  0.00     0.042 A 
ATOM      7  CZ3 TRP A   1      43.047 -18.555   2.179  1.00  0.00     0.001 A 
ATOM      8  CH2 TRP A   1      43.842 -19.441   2.899  1.00  0.00     0.002 A 
ATOM      9  CZ2 TRP A   1      44.350 -19.091   4.150  1.00  0.00     0.030 A 
ATOM     10  NE1 TRP A   1      44.396 -17.241   5.840  1.00  0.00    -0.365 N 
ATOM     11  HE1 TRP A   1      45.027 -17.657   6.514  1.00  0.00     0.165 HD
ATOM     12  CD1 TRP A   1      43.803 -16.014   5.960  1.00  0.00     0.096 A 
ENDBRANCH   2   3
ENDBRANCH   1   2
BRANCH   1  13
ATOM     13  N   TRP A   1      42.586 -12.636   2.979  1.00  0.00    -0.064 N 
ATOM     14  H1  TRP A   1      42.909 -11.662   2.894  1.00  0.00     0.278 HD
ATOM     15  H2  TRP A   1      43.059 -13.167   2.226  1.00  0.00     0.278 HD
BRANCH  13  16
HETATM   16  C   UNK A   0      41.118 -12.677   2.758  1.00  0.00     0.280 C 
BRANCH  16  17
HETATM   17  C   UNK A   0      40.741 -13.410   1.527  1.00  0.00     0.027 A 
HETATM   18  S   UNK A   0      40.788 -12.648  -0.012  1.00  0.00    -0.076 SA
HETATM   19  C   UNK A   0      40.100 -14.054  -0.716  1.00  0.00     0.079 A 
HETATM   20  N   UNK A   0      39.906 -15.058   0.110  1.00  0.00    -0.257 NA
HETATM   21  C   UNK A   0      40.268 -14.698   1.388  1.00  0.00     0.133 A 
BRANCH  19  22
HETATM   22  C   UNK A   0      39.702 -14.113  -2.190  1.00  0.00     0.045 C 
HETATM   23  C   UNK A   0      38.846 -15.348  -2.600  1.00  0.00     0.011 C 
HETATM   24  C   UNK A   0      38.016 -14.396  -3.483  1.00  0.00     0.002 C 
HETATM   25  C   UNK A   0      38.420 -13.279  -2.504  1.00  0.00     0.011 C 
ENDBRANCH  19  22
ENDBRANCH  16  17
ENDBRANCH  13  16
ENDBRANCH   1  13
BRANCH   1  26
ATOM     26  C   TRP A   1      42.857 -12.198   5.391  1.00  0.00     0.197 C 
BRANCH  26  27
ATOM     27  O   TRP A   1      42.015 -12.768   6.399  1.00  0.00    -0.399 OA
ATOM     28  H   TRP A   1      42.266 -13.710   6.489  1.00  0.00     0.209 HD
ENDBRANCH  26  27
ENDBRANCH   1  26
TORSDOF 8
ENDMDL
MODEL 4
REMARK VINA RESULT:      -7.4      3.416      6.041
REMARK  8 active torsions:
REMARK  status: ('A' for Active; 'I' for Inactive)
REMARK    1  A    between atoms: CG_8  and  CB_9 
REMARK    2  A    between atoms: CB_9  and  CA_10 
REMARK    3  A    between atoms: CA_10  and  N_11 
REMARK    4  A    between atoms: CA_10  and  C_14 
REMARK    5  A    between atoms: N_11  and  C_19 
REMARK    6  A    between atoms: C_14  and  O_15 
REMARK    7  A    between atoms: C_19  and  C_20 
REMARK    8  A    between atoms: C_22  and  C_23 
ROOT
ATOM      1  CA  TRP A   1      41.728 -14.926   3.649  1.00  0.00     0.214 C 
ENDROOT
BRANCH   1   2
ATOM      2  CB  TRP A   1      43.064 -15.549   3.202  1.00  0.00     0.076 C 
BRANCH   2   3
ATOM      3  CG  TRP A   1      43.501 -16.775   3.948  1.00  0.00    -0.028 A 
ATOM      4  CD2 TRP A   1      43.562 -18.140   3.506  1.00  0.00    -0.002 A 
ATOM      5  CE3 TRP A   1      43.285 -18.813   2.294  1.00  0.00     0.014 A 
ATOM      6  CE2 TRP A   1      43.994 -18.906   4.592  1.00  0.00     0.042 A 
ATOM      7  CZ3 TRP A   1      43.409 -20.207   2.229  1.00  0.00     0.001 A 
ATOM      8  CH2 TRP A   1      43.823 -20.937   3.338  1.00  0.00     0.002 A 
ATOM      9  CZ2 TRP A   1      44.134 -20.297   4.539  1.00  0.00     0.030 A 
ATOM     10  NE1 TRP A   1      44.255 -18.044   5.628  1.00  0.00    -0.365 N 
ATOM     11  HE1 TRP A   1      44.627 -18.322   6.528  1.00  0.00     0.165 HD
ATOM     12  CD1 TRP A   1      43.942 -16.765   5.260  1.00  0.00     0.096 A 
ENDBRANCH   2   3
ENDBRANCH   1   2
BRANCH   1  13
ATOM     13  N   TRP A   1      41.388 -13.720   2.796  1.00  0.00    -0.064 N 
ATOM     14  H1  TRP A   1      41.623 -12.844   3.283  1.00  0.00     0.278 HD
ATOM     15  H2  TRP A   1      42.011 -13.771   1.970  1.00  0.00     0.278 HD
BRANCH  13  16
HETATM   16  C   UNK A   0      39.976 -13.652   2.339  1.00  0.00     0.280 C 
BRANCH  16  17
HETATM   17  C   UNK A   0      39.852 -13.532   0.867  1.00  0.00     0.027 A 
HETATM   18  S   UNK A   0      39.278 -12.087   0.137  1.00  0.00    -0.076 SA
HETATM   19  C   UNK A   0      39.312 -12.862  -1.394  1.00  0.00     0.079 A 
HETATM   20  N   UNK A   0      39.782 -14.090  -1.393  1.00  0.00    -0.257 NA
HETATM   21  C   UNK A   0      40.090 -14.477  -0.109  1.00  0.00     0.133 A 
BRANCH  19  22
HETATM   22  C   UNK A   0      38.790 -12.182  -2.660  1.00  0.00     0.045 C 
HETATM   23  C   UNK A   0      37.626 -11.170  -2.441  1.00  0.00     0.011 C 
HETATM   24  C   UNK A   0      38.310 -10.261  -3.480  1.00  0.00     0.002 C 
HETATM   25  C   UNK A   0      39.632 -10.932  -3.066  1.00  0.00     0.011 C 
ENDBRANCH  19  22
ENDBRANCH  16  17
ENDBRANCH  13  16
ENDBRANCH   1  13
BRANCH   1  26
ATOM     26  C   TRP A   1      40.580 -15.946   3.484  1.00  0.00     0.197 C 
BRANCH  26  27
ATOM     27  O   TRP A   1      40.113 -16.301   4.791  1.00  0.00    -0.399 OA
ATOM     28  H   TRP A   1      40.784 -15.991   5.433  1.00  0.00     0.209 HD
ENDBRANCH  26  27
ENDBRANCH   1  26
TORSDOF 8
ENDMDL
MODEL 5
REMARK VINA RESULT:      -7.2      1.721      2.865
REMARK  8 active torsions:
REMARK  status: ('A' for Active; 'I' for Inactive)
REMARK    1  A    between atoms: CG_8  and  CB_9 
REMARK    2  A    between atoms: CB_9  and  CA_10 
REMARK    3  A    between atoms: CA_10  and  N_11 
REMARK    4  A    between atoms: CA_10  and  C_14 
REMARK    5  A    between atoms: N_11  and  C_19 
REMARK    6  A    between atoms: C_14  and  O_15 
REMARK    7  A    between atoms: C_19  and  C_20 
REMARK    8  A    between atoms: C_22  and  C_23 
ROOT
ATOM      1  CA  TRP A   1      41.429 -14.923   1.648  1.00  0.00     0.214 C 
ENDROOT
BRANCH   1   2
ATOM      2  CB  TRP A   1      42.731 -15.727   1.466  1.00  0.00     0.076 C 
BRANCH   2   3
ATOM      3  CG  TRP A   1      43.104 -16.639   2.597  1.00  0.00    -0.028 A 
ATOM      4  CD2 TRP A   1      43.307 -16.335   3.986  1.00  0.00    -0.002 A 
ATOM      5  CE3 TRP A   1      43.224 -15.168   4.778  1.00  0.00     0.014 A 
ATOM      6  CE2 TRP A   1      43.682 -17.525   4.617  1.00  0.00     0.042 A 
ATOM      7  CZ3 TRP A   1      43.553 -15.225   6.139  1.00  0.00     0.001 A 
ATOM      8  CH2 TRP A   1      43.941 -16.425   6.726  1.00  0.00     0.002 A 
ATOM      9  CZ2 TRP A   1      44.002 -17.601   5.977  1.00  0.00     0.030 A 
ATOM     10  NE1 TRP A   1      43.640 -18.523   3.676  1.00  0.00    -0.365 N 
ATOM     11  HE1 TRP A   1      43.820 -19.502   3.866  1.00  0.00     0.165 HD
ATOM     12  CD1 TRP A   1      43.314 -17.999   2.455  1.00  0.00     0.096 A 
ENDBRANCH   2   3
ENDBRANCH   1   2
BRANCH   1  13
ATOM     13  N   TRP A   1      41.314 -13.845   0.587  1.00  0.00    -0.064 N 
ATOM     14  H1  TRP A   1      42.241 -13.578   0.229  1.00  0.00     0.278 HD
ATOM     15  H2  TRP A   1      40.809 -14.280  -0.206  1.00  0.00     0.278 HD
BRANCH  13  16
HETATM   16  C   UNK A   0      40.590 -12.620   1.014  1.00  0.00     0.280 C 
BRANCH  16  17
HETATM   17  C   UNK A   0      40.963 -12.176   2.377  1.00  0.00     0.027 A 
HETATM   18  S   UNK A   0      42.458 -11.387   2.679  1.00  0.00    -0.076 SA
HETATM   19  C   UNK A   0      42.117 -11.410   4.361  1.00  0.00     0.079 A 
HETATM   20  N   UNK A   0      40.944 -11.904   4.690  1.00  0.00    -0.257 NA
HETATM   21  C   UNK A   0      40.282 -12.342   3.565  1.00  0.00     0.133 A 
BRANCH  19  22
HETATM   22  C   UNK A   0      43.128 -10.929   5.402  1.00  0.00     0.045 C 
HETATM   23  C   UNK A   0      43.104 -11.696   6.758  1.00  0.00     0.011 C 
HETATM   24  C   UNK A   0      44.642 -11.631   6.746  1.00  0.00     0.002 C 
HETATM   25  C   UNK A   0      44.540 -11.567   5.212  1.00  0.00     0.011 C 
ENDBRANCH  19  22
ENDBRANCH  16  17
ENDBRANCH  13  16
ENDBRANCH   1  13
BRANCH   1  26
ATOM     26  C   TRP A   1      40.202 -15.849   1.499  1.00  0.00     0.197 C 
BRANCH  26  27
ATOM     27  O   TRP A   1      39.390 -15.696   2.669  1.00  0.00    -0.399 OA
ATOM     28  H   TRP A   1      39.339 -16.572   3.103  1.00  0.00     0.209 HD
ENDBRANCH  26  27
ENDBRANCH   1  26
TORSDOF 8
ENDMDL
MODEL 6
REMARK VINA RESULT:      -7.1      2.004      2.636
REMARK  8 active torsions:
REMARK  status: ('A' for Active; 'I' for Inactive)
REMARK    1  A    between atoms: CG_8  and  CB_9 
REMARK    2  A    between atoms: CB_9  and  CA_10 
REMARK    3  A    between atoms: CA_10  and  N_11 
REMARK    4  A    between atoms: CA_10  and  C_14 
REMARK    5  A    between atoms: N_11  and  C_19 
REMARK    6  A    between atoms: C_14  and  O_15 
REMARK    7  A    between atoms: C_19  and  C_20 
REMARK    8  A    between atoms: C_22  and  C_23 
ROOT
ATOM      1  CA  TRP A   1      41.798 -15.181   5.055  1.00  0.00     0.214 C 
ENDROOT
BRANCH   1   2
ATOM      2  CB  TRP A   1      43.123 -15.421   4.306  1.00  0.00     0.076 C 
BRANCH   2   3
ATOM      3  CG  TRP A   1      43.274 -16.761   3.650  1.00  0.00    -0.028 A 
ATOM      4  CD2 TRP A   1      43.490 -18.051   4.246  1.00  0.00    -0.002 A 
ATOM      5  CE3 TRP A   1      43.611 -18.534   5.568  1.00  0.00     0.014 A 
ATOM      6  CE2 TRP A   1      43.604 -18.972   3.202  1.00  0.00     0.042 A 
ATOM      7  CZ3 TRP A   1      43.880 -19.892   5.790  1.00  0.00     0.001 A 
ATOM      8  CH2 TRP A   1      44.007 -20.775   4.723  1.00  0.00     0.002 A 
ATOM      9  CZ2 TRP A   1      43.860 -20.332   3.407  1.00  0.00     0.030 A 
ATOM     10  NE1 TRP A   1      43.397 -18.294   2.026  1.00  0.00    -0.365 N 
ATOM     11  HE1 TRP A   1      43.376 -18.724   1.110  1.00  0.00     0.165 HD
ATOM     12  CD1 TRP A   1      43.218 -16.962   2.282  1.00  0.00     0.096 A 
ENDBRANCH   2   3
ENDBRANCH   1   2
BRANCH   1  13
ATOM     13  N   TRP A   1      41.496 -13.698   5.147  1.00  0.00    -0.064 N 
ATOM     14  H1  TRP A   1      40.695 -13.445   4.551  1.00  0.00     0.278 HD
ATOM     15  H2  TRP A   1      41.197 -13.529   6.125  1.00  0.00     0.278 HD
BRANCH  13  16
HETATM   16  C   UNK A   0      42.638 -12.804   4.825  1.00  0.00     0.280 C 
BRANCH  16  17
HETATM   17  C   UNK A   0      42.938 -11.839   5.908  1.00  0.00     0.027 A 
HETATM   18  S   UNK A   0      44.341 -12.005   6.885  1.00  0.00    -0.076 SA
HETATM   19  C   UNK A   0      43.808 -10.692   7.852  1.00  0.00     0.079 A 
HETATM   20  N   UNK A   0      42.700 -10.110   7.450  1.00  0.00    -0.257 NA
HETATM   21  C   UNK A   0      42.199 -10.759   6.344  1.00  0.00     0.133 A 
BRANCH  19  22
HETATM   22  C   UNK A   0      44.551 -10.260   9.117  1.00  0.00     0.045 C 
HETATM   23  C   UNK A   0      44.344  -8.774   9.536  1.00  0.00     0.011 C 
HETATM   24  C   UNK A   0      44.269  -9.266  10.994  1.00  0.00     0.002 C 
HETATM   25  C   UNK A   0      43.769 -10.605  10.424  1.00  0.00     0.011 C 
ENDBRANCH  19  22
ENDBRANCH  16  17
ENDBRANCH  13  16
ENDBRANCH   1  13
BRANCH   1  26
ATOM     26  C   TRP A   1      40.627 -15.843   4.298  1.00  0.00     0.197 C 
BRANCH  26  27
ATOM     27  O   TRP A   1      39.811 -16.527   5.257  1.00  0.00    -0.399 OA
ATOM     28  H   TRP A   1      40.116 -17.457   5.287  1.00  0.00     0.209 HD
ENDBRANCH  26  27
ENDBRANCH   1  26
TORSDOF 8
ENDMDL
MODEL 7
REMARK VINA RESULT:      -7.0      4.031      5.533
REMARK  8 active torsions:
REMARK  status: ('A' for Active; 'I' for Inactive)
REMARK    1  A    between atoms: CG_8  and  CB_9 
REMARK    2  A    between atoms: CB_9  and  CA_10 
REMARK    3  A    between atoms: CA_10  and  N_11 
REMARK    4  A    between atoms: CA_10  and  C_14 
REMARK    5  A    between atoms: N_11  and  C_19 
REMARK    6  A    between atoms: C_14  and  O_15 
REMARK    7  A    between atoms: C_19  and  C_20 
REMARK    8  A    between atoms: C_22  and  C_23 
ROOT
ATOM      1  CA  TRP A   1      41.129 -14.194   1.627  1.00  0.00     0.214 C 
ENDROOT
BRANCH   1   2
ATOM      2  CB  TRP A   1      41.356 -15.717   1.673  1.00  0.00     0.076 C 
BRANCH   2   3
ATOM      3  CG  TRP A   1      42.275 -16.213   2.750  1.00  0.00    -0.028 A 
ATOM      4  CD2 TRP A   1      42.889 -17.502   2.905  1.00  0.00    -0.002 A 
ATOM      5  CE3 TRP A   1      42.894 -18.704   2.162  1.00  0.00     0.014 A 
ATOM      6  CE2 TRP A   1      43.620 -17.469   4.095  1.00  0.00     0.042 A 
ATOM      7  CZ3 TRP A   1      43.583 -19.821   2.651  1.00  0.00     0.001 A 
ATOM      8  CH2 TRP A   1      44.283 -19.755   3.851  1.00  0.00     0.002 A 
ATOM      9  CZ2 TRP A   1      44.324 -18.573   4.591  1.00  0.00     0.030 A 
ATOM     10  NE1 TRP A   1      43.519 -16.200   4.609  1.00  0.00    -0.365 N 
ATOM     11  HE1 TRP A   1      43.990 -15.878   5.445  1.00  0.00     0.165 HD
ATOM     12  CD1 TRP A   1      42.696 -15.443   3.820  1.00  0.00     0.096 A 
ENDBRANCH   2   3
ENDBRANCH   1   2
BRANCH   1  13
ATOM     13  N   TRP A   1      41.426 -13.650   0.243  1.00  0.00    -0.064 N 
ATOM     14  H1  TRP A   1      42.333 -13.162   0.224  1.00  0.00     0.278 HD
ATOM     15  H2  TRP A   1      41.527 -14.478  -0.371  1.00  0.00     0.278 HD
BRANCH  13  16
HETATM   16  C   UNK A   0      40.383 -12.752  -0.315  1.00  0.00     0.280 C 
BRANCH  16  17
HETATM   17  C   UNK A   0      40.827 -11.341  -0.408  1.00  0.00     0.027 A 
HETATM   18  S   UNK A   0      40.482 -10.388  -1.794  1.00  0.00    -0.076 SA
HETATM   19  C   UNK A   0      41.428  -9.114  -1.139  1.00  0.00     0.079 A 
HETATM   20  N   UNK A   0      41.919  -9.338   0.060  1.00  0.00    -0.257 NA
HETATM   21  C   UNK A   0      41.581 -10.604   0.482  1.00  0.00     0.133 A 
BRANCH  19  22
HETATM   22  C   UNK A   0      41.713  -7.831  -1.918  1.00  0.00     0.045 C 
HETATM   23  C   UNK A   0      43.205  -7.384  -1.942  1.00  0.00     0.011 C 
HETATM   24  C   UNK A   0      43.001  -7.010  -3.423  1.00  0.00     0.002 C 
HETATM   25  C   UNK A   0      41.896  -8.081  -3.449  1.00  0.00     0.011 C 
ENDBRANCH  19  22
ENDBRANCH  16  17
ENDBRANCH  13  16
ENDBRANCH   1  13
BRANCH   1  26
ATOM     26  C   TRP A   1      39.655 -13.861   1.947  1.00  0.00     0.197 C 
BRANCH  26  27
ATOM     27  O   TRP A   1      39.073 -15.004   2.586  1.00  0.00    -0.399 OA
ATOM     28  H   TRP A   1      39.326 -14.968   3.531  1.00  0.00     0.209 HD
ENDBRANCH  26  27
ENDBRANCH   1  26
TORSDOF 8
ENDMDL
MODEL 8
REMARK VINA RESULT:      -6.8      3.835      5.617
REMARK  8 active torsions:
REMARK  status: ('A' for Active; 'I' for Inactive)
REMARK    1  A    between atoms: CG_8  and  CB_9 
REMARK    2  A    between atoms: CB_9  and  CA_10 
REMARK    3  A    between atoms: CA_10  and  N_11 
REMARK    4  A    between atoms: CA_10  and  C_14 
REMARK    5  A    between atoms: N_11  and  C_19 
REMARK    6  A    between atoms: C_14  and  O_15 
REMARK    7  A    between atoms: C_19  and  C_20 
REMARK    8  A    between atoms: C_22  and  C_23 
ROOT
ATOM      1  CA  TRP A   1      41.256 -14.764   1.821  1.00  0.00     0.214 C 
ENDROOT
BRANCH   1   2
ATOM      2  CB  TRP A   1      41.292 -16.302   1.905  1.00  0.00     0.076 C 
BRANCH   2   3
ATOM      3  CG  TRP A   1      42.228 -16.883   2.923  1.00  0.00    -0.028 A 
ATOM      4  CD2 TRP A   1      42.227 -16.739   4.352  1.00  0.00    -0.002 A 
ATOM      5  CE3 TRP A   1      41.406 -16.074   5.290  1.00  0.00     0.014 A 
ATOM      6  CE2 TRP A   1      43.332 -17.443   4.837  1.00  0.00     0.042 A 
ATOM      7  CZ3 TRP A   1      41.740 -16.102   6.650  1.00  0.00     0.001 A 
ATOM      8  CH2 TRP A   1      42.860 -16.797   7.093  1.00  0.00     0.002 A 
ATOM      9  CZ2 TRP A   1      43.673 -17.490   6.194  1.00  0.00     0.030 A 
ATOM     10  NE1 TRP A   1      43.941 -18.048   3.766  1.00  0.00    -0.365 N 
ATOM     11  HE1 TRP A   1      44.743 -18.663   3.832  1.00  0.00     0.165 HD
ATOM     12  CD1 TRP A   1      43.299 -17.702   2.609  1.00  0.00     0.096 A 
ENDBRANCH   2   3
ENDBRANCH   1   2
BRANCH   1  13
ATOM     13  N   TRP A   1      41.391 -14.304   0.382  1.00  0.00    -0.064 N 
ATOM     14  H1  TRP A   1      42.320 -13.895   0.210  1.00  0.00     0.278 HD
ATOM     15  H2  TRP A   1      41.338 -15.161  -0.197  1.00  0.00     0.278 HD
BRANCH  13  16
HETATM   16  C   UNK A   0      40.351 -13.345  -0.070  1.00  0.00     0.280 C 
BRANCH  16  17
HETATM   17  C   UNK A   0      40.871 -11.967  -0.235  1.00  0.00     0.027 A 
HETATM   18  S   UNK A   0      40.990 -11.241  -1.788  1.00  0.00    -0.076 SA
HETATM   19  C   UNK A   0      41.765  -9.884  -1.080  1.00  0.00     0.079 A 
HETATM   20  N   UNK A   0      41.875  -9.918   0.230  1.00  0.00    -0.257 NA
HETATM   21  C   UNK A   0      41.368 -11.101   0.716  1.00  0.00     0.133 A 
BRANCH  19  22
HETATM   22  C   UNK A   0      42.327  -8.739  -1.922  1.00  0.00     0.045 C 
HETATM   23  C   UNK A   0      41.280  -7.692  -2.406  1.00  0.00     0.011 C 
HETATM   24  C   UNK A   0      42.325  -6.603  -2.099  1.00  0.00     0.002 C 
HETATM   25  C   UNK A   0      42.901  -7.574  -1.054  1.00  0.00     0.011 C 
ENDBRANCH  19  22
ENDBRANCH  16  17
ENDBRANCH  13  16
ENDBRANCH   1  13
BRANCH   1  26
ATOM     26  C   TRP A   1      39.908 -14.230   2.351  1.00  0.00     0.197 C 
BRANCH  26  27
ATOM     27  O   TRP A   1      39.070 -15.355   2.640  1.00  0.00    -0.399 OA
ATOM     28  H   TRP A   1      39.036 -15.450   3.614  1.00  0.00     0.209 HD
ENDBRANCH  26  27
ENDBRANCH   1  26
TORSDOF 8
ENDMDL
MODEL 9
REMARK VINA RESULT:      -6.7      4.009      6.289
REMARK  8 active torsions:
REMARK  status: ('A' for Active; 'I' for Inactive)
REMARK    1  A    between atoms: CG_8  and  CB_9 
REMARK    2  A    between atoms: CB_9  and  CA_10 
REMARK    3  A    between atoms: CA_10  and  N_11 
REMARK    4  A    between atoms: CA_10  and  C_14 
REMARK    5  A    between atoms: N_11  and  C_19 
REMARK    6  A    between atoms: C_14  and  O_15 
REMARK    7  A    between atoms: C_19  and  C_20 
REMARK    8  A    between atoms: C_22  and  C_23 
ROOT
ATOM      1  CA  TRP A   1      40.470 -14.199   2.187  1.00  0.00     0.214 C 
ENDROOT
BRANCH   1   2
ATOM      2  CB  TRP A   1      40.280 -15.469   3.039  1.00  0.00     0.076 C 
BRANCH   2   3
ATOM      3  CG  TRP A   1      41.493 -15.949   3.781  1.00  0.00    -0.028 A 
ATOM      4  CD2 TRP A   1      42.392 -17.023   3.462  1.00  0.00    -0.002 A 
ATOM      5  CE3 TRP A   1      42.502 -17.957   2.408  1.00  0.00     0.014 A 
ATOM      6  CE2 TRP A   1      43.333 -17.090   4.493  1.00  0.00     0.042 A 
ATOM      7  CZ3 TRP A   1      43.507 -18.933   2.445  1.00  0.00     0.001 A 
ATOM      8  CH2 TRP A   1      44.413 -18.980   3.498  1.00  0.00     0.002 A 
ATOM      9  CZ2 TRP A   1      44.350 -18.052   4.538  1.00  0.00     0.030 A 
ATOM     10  NE1 TRP A   1      43.068 -16.063   5.364  1.00  0.00    -0.365 N 
ATOM     11  HE1 TRP A   1      43.624 -15.844   6.182  1.00  0.00     0.165 HD
ATOM     12  CD1 TRP A   1      41.952 -15.384   4.958  1.00  0.00     0.096 A 
ENDBRANCH   2   3
ENDBRANCH   1   2
BRANCH   1  13
ATOM     13  N   TRP A   1      39.480 -14.174   1.038  1.00  0.00    -0.064 N 
ATOM     14  H1  TRP A   1      38.627 -14.701   1.273  1.00  0.00     0.278 HD
ATOM     15  H2  TRP A   1      39.192 -13.185   0.933  1.00  0.00     0.278 HD
BRANCH  13  16
HETATM   16  C   UNK A   0      40.010 -14.669  -0.258  1.00  0.00     0.280 C 
BRANCH  16  17
HETATM   17  C   UNK A   0      40.153 -13.595  -1.270  1.00  0.00     0.027 A 
HETATM   18  S   UNK A   0      39.753 -11.966  -0.901  1.00  0.00    -0.076 SA
HETATM   19  C   UNK A   0      40.041 -11.538  -2.538  1.00  0.00     0.079 A 
HETATM   20  N   UNK A   0      40.473 -12.513  -3.306  1.00  0.00    -0.257 NA
HETATM   21  C   UNK A   0      40.538 -13.687  -2.591  1.00  0.00     0.133 A 
BRANCH  19  22
HETATM   22  C   UNK A   0      39.769 -10.131  -3.070  1.00  0.00     0.045 C 
HETATM   23  C   UNK A   0      40.246  -8.968  -2.149  1.00  0.00     0.011 C 
HETATM   24  C   UNK A   0      40.713  -8.240  -3.424  1.00  0.00     0.002 C 
HETATM   25  C   UNK A   0      40.874  -9.634  -4.055  1.00  0.00     0.011 C 
ENDBRANCH  19  22
ENDBRANCH  16  17
ENDBRANCH  13  16
ENDBRANCH   1  13
BRANCH   1  26
ATOM     26  C   TRP A   1      40.217 -12.938   3.040  1.00  0.00     0.197 C 
BRANCH  26  27
ATOM     27  O   TRP A   1      39.208 -13.253   4.007  1.00  0.00    -0.399 OA
ATOM     28  H   TRP A   1      38.974 -14.196   3.885  1.00  0.00     0.209 HD
ENDBRANCH  26  27
ENDBRANCH   1  26
TORSDOF 8
ENDMDL
MODEL 10
REMARK VINA RESULT:      -6.7      3.031      5.947
REMARK  8 active torsions:
REMARK  status: ('A' for Active; 'I' for Inactive)
REMARK    1  A    between atoms: CG_8  and  CB_9 
REMARK    2  A    between atoms: CB_9  and  CA_10 
REMARK    3  A    between atoms: CA_10  and  N_11 
REMARK    4  A    between atoms: CA_10  and  C_14 
REMARK    5  A    between atoms: N_11  and  C_19 
REMARK    6  A    between atoms: C_14  and  O_15 
REMARK    7  A    between atoms: C_19  and  C_20 
REMARK    8  A    between atoms: C_22  and  C_23 
ROOT
ATOM      1  CA  TRP A   1      42.669 -12.793   4.006  1.00  0.00     0.214 C 
ENDROOT
BRANCH   1   2
ATOM      2  CB  TRP A   1      42.580 -14.175   4.681  1.00  0.00     0.076 C 
BRANCH   2   3
ATOM      3  CG  TRP A   1      42.950 -15.350   3.825  1.00  0.00    -0.028 A 
ATOM      4  CD2 TRP A   1      43.298 -16.689   4.212  1.00  0.00    -0.002 A 
ATOM      5  CE3 TRP A   1      43.400 -17.381   5.439  1.00  0.00     0.014 A 
ATOM      6  CE2 TRP A   1      43.599 -17.390   3.041  1.00  0.00     0.042 A 
ATOM      7  CZ3 TRP A   1      43.833 -18.713   5.452  1.00  0.00     0.001 A 
ATOM      8  CH2 TRP A   1      44.143 -19.372   4.267  1.00  0.00     0.002 A 
ATOM      9  CZ2 TRP A   1      44.021 -18.724   3.037  1.00  0.00     0.030 A 
ATOM     10  NE1 TRP A   1      43.376 -16.544   1.983  1.00  0.00    -0.365 N 
ATOM     11  HE1 TRP A   1      43.470 -16.804   1.009  1.00  0.00     0.165 HD
ATOM     12  CD1 TRP A   1      43.006 -15.310   2.443  1.00  0.00     0.096 A 
ENDBRANCH   2   3
ENDBRANCH   1   2
BRANCH   1  13
ATOM     13  N   TRP A   1      41.379 -12.019   4.202  1.00  0.00    -0.064 N 
ATOM     14  H1  TRP A   1      41.343 -11.590   5.138  1.00  0.00     0.278 HD
ATOM     15  H2  TRP A   1      41.413 -11.235   3.524  1.00  0.00     0.278 HD
BRANCH  13  16
HETATM   16  C   UNK A   0      40.137 -12.802   3.982  1.00  0.00     0.280 C 
BRANCH  16  17
HETATM   17  C   UNK A   0      39.570 -12.615   2.626  1.00  0.00     0.027 A 
HETATM   18  S   UNK A   0      40.016 -13.643   1.325  1.00  0.00    -0.076 SA
HETATM   19  C   UNK A   0      39.098 -12.665   0.254  1.00  0.00     0.079 A 
HETATM   20  N   UNK A   0      38.441 -11.677   0.819  1.00  0.00    -0.257 NA
HETATM   21  C   UNK A   0      38.705 -11.642   2.169  1.00  0.00     0.133 A 
BRANCH  19  22
HETATM   22  C   UNK A   0      39.085 -12.905  -1.256  1.00  0.00     0.045 C 
HETATM   23  C   UNK A   0      40.459 -12.731  -1.970  1.00  0.00     0.011 C 
HETATM   24  C   UNK A   0      40.102 -13.969  -2.814  1.00  0.00     0.002 C 
HETATM   25  C   UNK A   0      39.225 -14.414  -1.630  1.00  0.00     0.011 C 
ENDBRANCH  19  22
ENDBRANCH  16  17
ENDBRANCH  13  16
ENDBRANCH   1  13
BRANCH   1  26
ATOM     26  C   TRP A   1      43.806 -11.960   4.636  1.00  0.00     0.197 C 
BRANCH  26  27
ATOM     27  O   TRP A   1      44.531 -11.328   3.574  1.00  0.00    -0.399 OA
ATOM     28  H   TRP A   1      43.899 -10.755   3.093  1.00  0.00     0.209 HD
ENDBRANCH  26  27
ENDBRANCH   1  26
TORSDOF 8
ENDMDL
