MODEL 1
REMARK VINA RESULT:      -8.8      0.000      0.000
REMARK  6 active torsions:
REMARK  status: ('A' for Active; 'I' for Inactive)
REMARK    1  A    between atoms: C_2  and  S_3 
REMARK    2  A    between atoms: S_3  and  C_4 
REMARK    3  A    between atoms: C_5  and  C_6 
REMARK       I    between atoms: C_6  and  N_7 
REMARK    4  A    between atoms: N_7  and  C_8 
REMARK    5  A    between atoms: N_9  and  C_10 
REMARK    6  A    between atoms: C_22  and  C_23 
ROOT
HETATM    1  C   UNL     1      42.382 -15.827   2.100  1.00  0.00     0.152 A 
HETATM    2  N   UNL     1      42.484 -15.487   3.442  1.00  0.00    -0.044 N 
HETATM    3  N   UNL     1      42.970 -16.512   4.208  1.00  0.00    -0.148 NA
HETATM    4  C   UNL     1      43.154 -17.508   3.332  1.00  0.00     0.115 A 
HETATM    5  C   UNL     1      42.837 -17.124   2.013  1.00  0.00     0.087 A 
ENDROOT
BRANCH   1   6
HETATM    6  N   UNL     1      41.864 -14.962   1.146  1.00  0.00    -0.307 N 
HETATM    7  C   UNL     1      40.556 -15.028   0.709  1.00  0.00     0.258 C 
HETATM    8  O   UNL     1      39.733 -15.899   0.971  1.00  0.00    -0.267 OA
HETATM    9  H   UNL     1      42.464 -14.200   0.823  1.00  0.00     0.170 HD
BRANCH   7  10
HETATM   10  C   UNL     1      40.102 -13.847  -0.061  1.00  0.00     0.049 A 
HETATM   11  C   UNL     1      39.456 -12.739   0.506  1.00  0.00     0.016 A 
HETATM   12  C   UNL     1      39.030 -11.704  -0.341  1.00  0.00     0.019 A 
HETATM   13  C   UNL     1      39.264 -11.761  -1.719  1.00  0.00     0.001 A 
HETATM   14  C   UNL     1      39.931 -12.851  -2.269  1.00  0.00     0.001 A 
HETATM   15  C   UNL     1      40.352 -13.891  -1.443  1.00  0.00     0.018 A 
BRANCH  11  16
HETATM   16  S   UNL     1      39.183 -12.520   2.258  1.00  0.00    -0.129 SA
BRANCH  16  17
HETATM   17  C   UNL     1      39.382 -10.707   2.334  1.00  0.00     0.075 C 
HETATM   18  C   UNL     1      38.435 -10.119   3.364  1.00  0.00     0.016 C 
ENDBRANCH  16  17
ENDBRANCH  11  16
ENDBRANCH   7  10
ENDBRANCH   1   6
BRANCH   2  19
HETATM   19  C   UNL     1      42.110 -14.281   4.070  1.00  0.00     0.732 A 
HETATM   20  N   UNL     1      42.635 -13.132   3.784  1.00  0.00    -0.067 NA
HETATM   21  C   UNL     1      42.143 -12.051   4.483  1.00  0.00     0.065 A 
HETATM   22  C   UNL     1      41.173 -12.127   5.415  1.00  0.00     0.036 A 
HETATM   23  C   UNL     1      42.760 -10.720   4.116  1.00  0.00     0.060 C 
HETATM   24  C   UNL     1      40.636 -10.956   6.186  1.00  0.00     0.046 C 
HETATM   25  C   UNL     1      40.591 -13.460   5.708  1.00  0.00     0.268 A 
HETATM   26  C   UNL     1      41.494  -9.699   6.037  1.00  0.00     0.005 C 
HETATM   27  C   UNL     1      41.949  -9.514   4.595  1.00  0.00     0.006 C 
HETATM   28  O   UNL     1      39.692 -13.620   6.524  1.00  0.00    -0.267 OA
HETATM   29  N   UNL     1      41.127 -14.485   4.996  1.00  0.00    -0.152 N 
HETATM   30  H   UNL     1      40.769 -15.424   5.141  1.00  0.00     0.188 HD
ENDBRANCH   2  19
BRANCH   4  31
HETATM   31  C   UNL     1      43.610 -18.870   3.737  1.00  0.00     0.105 A 
HETATM   32  O   UNL     1      43.555 -19.975   2.932  1.00  0.00    -0.320 OA
HETATM   33  C   UNL     1      44.024 -21.025   3.653  1.00  0.00     0.142 A 
HETATM   34  C   UNL     1      44.386 -20.619   4.915  1.00  0.00     0.027 A 
HETATM   35  C   UNL     1      44.122 -19.227   4.969  1.00  0.00     0.041 A 
ENDBRANCH   4  31
TORSDOF 6
ENDMDL
MODEL 2
REMARK VINA RESULT:      -8.5      1.543      2.497
REMARK  6 active torsions:
REMARK  status: ('A' for Active; 'I' for Inactive)
REMARK    1  A    between atoms: C_2  and  S_3 
REMARK    2  A    between atoms: S_3  and  C_4 
REMARK    3  A    between atoms: C_5  and  C_6 
REMARK       I    between atoms: C_6  and  N_7 
REMARK    4  A    between atoms: N_7  and  C_8 
REMARK    5  A    between atoms: N_9  and  C_10 
REMARK    6  A    between atoms: C_22  and  C_23 
ROOT
HETATM    1  C   UNL     1      42.627 -15.134   1.813  1.00  0.00     0.152 A 
HETATM    2  N   UNL     1      42.474 -15.016   3.187  1.00  0.00    -0.044 N 
HETATM    3  N   UNL     1      42.772 -16.177   3.849  1.00  0.00    -0.148 NA
HETATM    4  C   UNL     1      43.096 -17.031   2.871  1.00  0.00     0.115 A 
HETATM    5  C   UNL     1      43.054 -16.426   1.599  1.00  0.00     0.087 A 
ENDROOT
BRANCH   1   6
HETATM    6  N   UNL     1      42.329 -14.101   0.934  1.00  0.00    -0.307 N 
HETATM    7  C   UNL     1      41.036 -13.735   0.622  1.00  0.00     0.258 C 
HETATM    8  O   UNL     1      40.006 -14.321   0.936  1.00  0.00    -0.267 OA
HETATM    9  H   UNL     1      43.110 -13.546   0.576  1.00  0.00     0.170 HD
BRANCH   7  10
HETATM   10  C   UNL     1      40.914 -12.432  -0.072  1.00  0.00     0.049 A 
HETATM   11  C   UNL     1      40.761 -12.290  -1.458  1.00  0.00     0.016 A 
HETATM   12  C   UNL     1      40.707 -10.996  -2.000  1.00  0.00     0.019 A 
HETATM   13  C   UNL     1      40.780  -9.869  -1.175  1.00  0.00     0.001 A 
HETATM   14  C   UNL     1      40.903 -10.019   0.202  1.00  0.00     0.001 A 
HETATM   15  C   UNL     1      40.967 -11.296   0.754  1.00  0.00     0.018 A 
BRANCH  11  16
HETATM   16  S   UNL     1      40.570 -13.656  -2.596  1.00  0.00    -0.129 SA
BRANCH  16  17
HETATM   17  C   UNL     1      38.762 -13.559  -2.827  1.00  0.00     0.075 C 
HETATM   18  C   UNL     1      38.252 -14.821  -3.497  1.00  0.00     0.016 C 
ENDBRANCH  16  17
ENDBRANCH  11  16
ENDBRANCH   7  10
ENDBRANCH   1   6
BRANCH   2  19
HETATM   19  C   UNL     1      42.018 -13.905   3.924  1.00  0.00     0.732 A 
HETATM   20  N   UNL     1      42.432 -12.694   3.723  1.00  0.00    -0.067 NA
HETATM   21  C   UNL     1      41.871 -11.722   4.524  1.00  0.00     0.065 A 
HETATM   22  C   UNL     1      40.943 -11.960   5.471  1.00  0.00     0.036 A 
HETATM   23  C   UNL     1      42.359 -10.315   4.256  1.00  0.00     0.060 C 
HETATM   24  C   UNL     1      40.332 -10.910   6.352  1.00  0.00     0.046 C 
HETATM   25  C   UNL     1      40.488 -13.359   5.665  1.00  0.00     0.268 A 
HETATM   26  C   UNL     1      41.073  -9.573   6.288  1.00  0.00     0.005 C 
HETATM   27  C   UNL     1      41.462  -9.230   4.856  1.00  0.00     0.006 C 
HETATM   28  O   UNL     1      39.634 -13.665   6.487  1.00  0.00    -0.267 OA
HETATM   29  N   UNL     1      41.087 -14.270   4.855  1.00  0.00    -0.152 N 
HETATM   30  H   UNL     1      40.817 -15.246   4.928  1.00  0.00     0.188 HD
ENDBRANCH   2  19
BRANCH   4  31
HETATM   31  C   UNL     1      43.426 -18.464   3.123  1.00  0.00     0.105 A 
HETATM   32  O   UNL     1      43.899 -18.951   4.311  1.00  0.00    -0.320 OA
HETATM   33  C   UNL     1      44.110 -20.282   4.148  1.00  0.00     0.142 A 
HETATM   34  C   UNL     1      43.779 -20.669   2.872  1.00  0.00     0.027 A 
HETATM   35  C   UNL     1      43.334 -19.498   2.210  1.00  0.00     0.041 A 
ENDBRANCH   4  31
TORSDOF 6
ENDMDL
MODEL 3
REMARK VINA RESULT:      -8.3      2.693      6.707
REMARK  6 active torsions:
REMARK  status: ('A' for Active; 'I' for Inactive)
REMARK    1  A    between atoms: C_2  and  S_3 
REMARK    2  A    between atoms: S_3  and  C_4 
REMARK    3  A    between atoms: C_5  and  C_6 
REMARK       I    between atoms: C_6  and  N_7 
REMARK    4  A    between atoms: N_7  and  C_8 
REMARK    5  A    between atoms: N_9  and  C_10 
REMARK    6  A    between atoms: C_22  and  C_23 
ROOT
HETATM    1  C   UNL     1      42.048 -13.224   1.957  1.00  0.00     0.152 A 
HETATM    2  N   UNL     1      41.952 -11.982   2.569  1.00  0.00    -0.044 N 
HETATM    3  N   UNL     1      41.372 -11.042   1.761  1.00  0.00    -0.148 NA
HETATM    4  C   UNL     1      41.122 -11.706   0.625  1.00  0.00     0.115 A 
HETATM    5  C   UNL     1      41.490 -13.063   0.708  1.00  0.00     0.087 A 
ENDROOT
BRANCH   1   6
HETATM    6  N   UNL     1      42.651 -14.316   2.567  1.00  0.00    -0.307 N 
HETATM    7  C   UNL     1      41.931 -15.361   3.111  1.00  0.00     0.258 C 
HETATM    8  O   UNL     1      40.716 -15.419   3.264  1.00  0.00    -0.267 OA
HETATM    9  H   UNL     1      43.671 -14.374   2.531  1.00  0.00     0.170 HD
BRANCH   7  10
HETATM   10  C   UNL     1      42.734 -16.564   3.428  1.00  0.00     0.049 A 
HETATM   11  C   UNL     1      43.484 -16.721   4.602  1.00  0.00     0.016 A 
HETATM   12  C   UNL     1      44.245 -17.890   4.762  1.00  0.00     0.019 A 
HETATM   13  C   UNL     1      44.238 -18.891   3.785  1.00  0.00     0.001 A 
HETATM   14  C   UNL     1      43.468 -18.739   2.637  1.00  0.00     0.001 A 
HETATM   15  C   UNL     1      42.716 -17.580   2.458  1.00  0.00     0.018 A 
BRANCH  11  16
HETATM   16  S   UNL     1      43.499 -15.551   5.954  1.00  0.00    -0.129 SA
BRANCH  16  17
HETATM   17  C   UNL     1      42.243 -16.349   7.010  1.00  0.00     0.075 C 
HETATM   18  C   UNL     1      40.855 -15.869   6.626  1.00  0.00     0.016 C 
ENDBRANCH  16  17
ENDBRANCH  11  16
ENDBRANCH   7  10
ENDBRANCH   1   6
BRANCH   2  19
HETATM   19  C   UNL     1      42.414 -11.598   3.844  1.00  0.00     0.732 A 
HETATM   20  N   UNL     1      43.635 -11.762   4.243  1.00  0.00    -0.067 NA
HETATM   21  C   UNL     1      43.921 -11.317   5.517  1.00  0.00     0.065 A 
HETATM   22  C   UNL     1      43.024 -10.737   6.338  1.00  0.00     0.036 A 
HETATM   23  C   UNL     1      45.358 -11.502   5.949  1.00  0.00     0.060 C 
HETATM   24  C   UNL     1      43.324 -10.256   7.728  1.00  0.00     0.046 C 
HETATM   25  C   UNL     1      41.637 -10.560   5.841  1.00  0.00     0.268 A 
HETATM   26  C   UNL     1      44.674 -10.749   8.251  1.00  0.00     0.005 C 
HETATM   27  C   UNL     1      45.744 -10.666   7.171  1.00  0.00     0.006 C 
HETATM   28  O   UNL     1      40.762 -10.025   6.510  1.00  0.00    -0.267 OA
HETATM   29  N   UNL     1      41.417 -11.030   4.586  1.00  0.00    -0.152 N 
HETATM   30  H   UNL     1      40.491 -10.934   4.180  1.00  0.00     0.188 HD
ENDBRANCH   2  19
BRANCH   4  31
HETATM   31  C   UNL     1      40.550 -11.050  -0.587  1.00  0.00     0.105 A 
HETATM   32  O   UNL     1      39.922  -9.834  -0.585  1.00  0.00    -0.320 OA
HETATM   33  C   UNL     1      39.513  -9.587  -1.855  1.00  0.00     0.142 A 
HETATM   34  C   UNL     1      39.869 -10.623  -2.686  1.00  0.00     0.027 A 
HETATM   35  C   UNL     1      40.542 -11.565  -1.869  1.00  0.00     0.041 A 
ENDBRANCH   4  31
TORSDOF 6
ENDMDL
MODEL 4
REMARK VINA RESULT:      -8.3      2.480      6.292
REMARK  6 active torsions:
REMARK  status: ('A' for Active; 'I' for Inactive)
REMARK    1  A    between atoms: C_2  and  S_3 
REMARK    2  A    between atoms: S_3  and  C_4 
REMARK    3  A    between atoms: C_5  and  C_6 
REMARK       I    between atoms: C_6  and  N_7 
REMARK    4  A    between atoms: N_7  and  C_8 
REMARK    5  A    between atoms: N_9  and  C_10 
REMARK    6  A    between atoms: C_22  and  C_23 
ROOT
HETATM    1  C   UNL     1      42.682 -13.241   4.514  1.00  0.00     0.152 A 
HETATM    2  N   UNL     1      43.227 -14.188   5.370  1.00  0.00    -0.044 N 
HETATM    3  N   UNL     1      43.729 -13.632   6.516  1.00  0.00    -0.148 NA
HETATM    4  C   UNL     1      43.509 -12.320   6.359  1.00  0.00     0.115 A 
HETATM    5  C   UNL     1      42.836 -12.032   5.155  1.00  0.00     0.087 A 
ENDROOT
BRANCH   1   6
HETATM    6  N   UNL     1      42.162 -13.568   3.268  1.00  0.00    -0.307 N 
HETATM    7  C   UNL     1      40.829 -13.409   2.949  1.00  0.00     0.258 C 
HETATM    8  O   UNL     1      39.918 -13.110   3.712  1.00  0.00    -0.267 OA
HETATM    9  H   UNL     1      42.822 -13.859   2.543  1.00  0.00     0.170 HD
BRANCH   7  10
HETATM   10  C   UNL     1      40.525 -13.508   1.503  1.00  0.00     0.049 A 
HETATM   11  C   UNL     1      40.606 -12.432   0.607  1.00  0.00     0.016 A 
HETATM   12  C   UNL     1      40.242 -12.644  -0.732  1.00  0.00     0.019 A 
HETATM   13  C   UNL     1      39.830 -13.906  -1.173  1.00  0.00     0.001 A 
HETATM   14  C   UNL     1      39.780 -14.974  -0.284  1.00  0.00     0.001 A 
HETATM   15  C   UNL     1      40.128 -14.778   1.050  1.00  0.00     0.018 A 
BRANCH  11  16
HETATM   16  S   UNL     1      41.201 -10.803   1.039  1.00  0.00    -0.129 SA
BRANCH  16  17
HETATM   17  C   UNL     1      40.807  -9.952  -0.528  1.00  0.00     0.075 C 
HETATM   18  C   UNL     1      42.074  -9.399  -1.155  1.00  0.00     0.016 C 
ENDBRANCH  16  17
ENDBRANCH  11  16
ENDBRANCH   7  10
ENDBRANCH   1   6
BRANCH   2  19
HETATM   19  C   UNL     1      43.357 -15.577   5.168  1.00  0.00     0.732 A 
HETATM   20  N   UNL     1      43.412 -16.128   3.997  1.00  0.00    -0.067 NA
HETATM   21  C   UNL     1      43.555 -17.500   3.980  1.00  0.00     0.065 A 
HETATM   22  C   UNL     1      43.640 -18.268   5.084  1.00  0.00     0.036 A 
HETATM   23  C   UNL     1      43.635 -18.115   2.601  1.00  0.00     0.060 C 
HETATM   24  C   UNL     1      43.788 -19.762   5.075  1.00  0.00     0.046 C 
HETATM   25  C   UNL     1      43.582 -17.598   6.406  1.00  0.00     0.268 A 
HETATM   26  C   UNL     1      43.536 -20.378   3.698  1.00  0.00     0.005 C 
HETATM   27  C   UNL     1      44.180 -19.545   2.598  1.00  0.00     0.006 C 
HETATM   28  O   UNL     1      43.673 -18.214   7.460  1.00  0.00    -0.267 OA
HETATM   29  N   UNL     1      43.428 -16.249   6.355  1.00  0.00    -0.152 N 
HETATM   30  H   UNL     1      43.389 -15.725   7.224  1.00  0.00     0.188 HD
ENDBRANCH   2  19
BRANCH   4  31
HETATM   31  C   UNL     1      43.967 -11.299   7.346  1.00  0.00     0.105 A 
HETATM   32  O   UNL     1      43.145 -10.393   7.958  1.00  0.00    -0.320 OA
HETATM   33  C   UNL     1      43.921  -9.616   8.756  1.00  0.00     0.142 A 
HETATM   34  C   UNL     1      45.237 -10.006   8.674  1.00  0.00     0.027 A 
HETATM   35  C   UNL     1      45.267 -11.094   7.767  1.00  0.00     0.041 A 
ENDBRANCH   4  31
TORSDOF 6
ENDMDL
MODEL 5
REMARK VINA RESULT:      -8.3      1.877      5.317
REMARK  6 active torsions:
REMARK  status: ('A' for Active; 'I' for Inactive)
REMARK    1  A    between atoms: C_2  and  S_3 
REMARK    2  A    between atoms: S_3  and  C_4 
REMARK    3  A    between atoms: C_5  and  C_6 
REMARK       I    between atoms: C_6  and  N_7 
REMARK    4  A    between atoms: N_7  and  C_8 
REMARK    5  A    between atoms: N_9  and  C_10 
REMARK    6  A    between atoms: C_22  and  C_23 
ROOT
HETATM    1  C   UNL     1      42.743 -15.233   3.957  1.00  0.00     0.152 A 
HETATM    2  N   UNL     1      41.875 -15.465   2.899  1.00  0.00    -0.044 N 
HETATM    3  N   UNL     1      41.919 -16.760   2.458  1.00  0.00    -0.148 NA
HETATM    4  C   UNL     1      42.842 -17.334   3.241  1.00  0.00     0.115 A 
HETATM    5  C   UNL     1      43.355 -16.442   4.203  1.00  0.00     0.087 A 
ENDROOT
BRANCH   1   6
HETATM    6  N   UNL     1      42.906 -13.979   4.531  1.00  0.00    -0.307 N 
HETATM    7  C   UNL     1      42.369 -13.642   5.756  1.00  0.00     0.258 C 
HETATM    8  O   UNL     1      41.587 -14.306   6.427  1.00  0.00    -0.267 OA
HETATM    9  H   UNL     1      43.521 -13.317   4.051  1.00  0.00     0.170 HD
BRANCH   7  10
HETATM   10  C   UNL     1      42.905 -12.391   6.342  1.00  0.00     0.049 A 
HETATM   11  C   UNL     1      42.281 -11.140   6.227  1.00  0.00     0.016 A 
HETATM   12  C   UNL     1      42.917 -10.019   6.784  1.00  0.00     0.019 A 
HETATM   13  C   UNL     1      44.134 -10.147   7.462  1.00  0.00     0.001 A 
HETATM   14  C   UNL     1      44.731 -11.396   7.595  1.00  0.00     0.001 A 
HETATM   15  C   UNL     1      44.118 -12.516   7.039  1.00  0.00     0.018 A 
BRANCH  11  16
HETATM   16  S   UNL     1      40.688 -10.873   5.462  1.00  0.00    -0.129 SA
BRANCH  16  17
HETATM   17  C   UNL     1      41.237  -9.853   4.052  1.00  0.00     0.075 C 
HETATM   18  C   UNL     1      42.144 -10.662   3.142  1.00  0.00     0.016 C 
ENDBRANCH  16  17
ENDBRANCH  11  16
ENDBRANCH   7  10
ENDBRANCH   1   6
BRANCH   2  19
HETATM   19  C   UNL     1      41.039 -14.544   2.235  1.00  0.00     0.732 A 
HETATM   20  N   UNL     1      40.212 -13.757   2.847  1.00  0.00    -0.067 NA
HETATM   21  C   UNL     1      39.479 -12.907   2.046  1.00  0.00     0.065 A 
HETATM   22  C   UNL     1      39.580 -12.854   0.704  1.00  0.00     0.036 A 
HETATM   23  C   UNL     1      38.536 -11.987   2.788  1.00  0.00     0.060 C 
HETATM   24  C   UNL     1      38.781 -11.937  -0.177  1.00  0.00     0.046 C 
HETATM   25  C   UNL     1      40.545 -13.765   0.040  1.00  0.00     0.268 A 
HETATM   26  C   UNL     1      37.619 -11.268   0.557  1.00  0.00     0.005 C 
HETATM   27  C   UNL     1      38.040 -10.809   1.948  1.00  0.00     0.006 C 
HETATM   28  O   UNL     1      40.717 -13.771  -1.172  1.00  0.00    -0.267 OA
HETATM   29  N   UNL     1      41.226 -14.585   0.882  1.00  0.00    -0.152 N 
HETATM   30  H   UNL     1      41.909 -15.229   0.496  1.00  0.00     0.188 HD
ENDBRANCH   2  19
BRANCH   4  31
HETATM   31  C   UNL     1      43.282 -18.749   3.069  1.00  0.00     0.105 A 
HETATM   32  O   UNL     1      43.840 -19.511   4.060  1.00  0.00    -0.320 OA
HETATM   33  C   UNL     1      44.137 -20.721   3.522  1.00  0.00     0.142 A 
HETATM   34  C   UNL     1      43.778 -20.759   2.196  1.00  0.00     0.027 A 
HETATM   35  C   UNL     1      43.223 -19.489   1.903  1.00  0.00     0.041 A 
ENDBRANCH   4  31
TORSDOF 6
ENDMDL
MODEL 6
REMARK VINA RESULT:      -8.3      2.613      7.576
REMARK  6 active torsions:
REMARK  status: ('A' for Active; 'I' for Inactive)
REMARK    1  A    between atoms: C_2  and  S_3 
REMARK    2  A    between atoms: S_3  and  C_4 
REMARK    3  A    between atoms: C_5  and  C_6 
REMARK       I    between atoms: C_6  and  N_7 
REMARK    4  A    between atoms: N_7  and  C_8 
REMARK    5  A    between atoms: N_9  and  C_10 
REMARK    6  A    between atoms: C_22  and  C_23 
ROOT
HETATM    1  C   UNL     1      41.389 -13.438   4.496  1.00  0.00     0.152 A 
HETATM    2  N   UNL     1      40.982 -12.473   3.585  1.00  0.00    -0.044 N 
HETATM    3  N   UNL     1      40.658 -11.287   4.187  1.00  0.00    -0.148 NA
HETATM    4  C   UNL     1      40.848 -11.526   5.491  1.00  0.00     0.115 A 
HETATM    5  C   UNL     1      41.331 -12.828   5.729  1.00  0.00     0.087 A 
ENDROOT
BRANCH   1   6
HETATM    6  N   UNL     1      41.715 -14.734   4.120  1.00  0.00    -0.307 N 
HETATM    7  C   UNL     1      42.889 -15.051   3.469  1.00  0.00     0.258 C 
HETATM    8  O   UNL     1      43.717 -14.267   3.015  1.00  0.00    -0.267 OA
HETATM    9  H   UNL     1      41.086 -15.484   4.418  1.00  0.00     0.170 HD
BRANCH   7  10
HETATM   10  C   UNL     1      43.204 -16.498   3.432  1.00  0.00     0.049 A 
HETATM   11  C   UNL     1      43.937 -17.168   4.422  1.00  0.00     0.016 A 
HETATM   12  C   UNL     1      44.211 -18.533   4.246  1.00  0.00     0.019 A 
HETATM   13  C   UNL     1      43.746 -19.220   3.120  1.00  0.00     0.001 A 
HETATM   14  C   UNL     1      42.996 -18.554   2.157  1.00  0.00     0.001 A 
HETATM   15  C   UNL     1      42.722 -17.197   2.312  1.00  0.00     0.018 A 
BRANCH  11  16
HETATM   16  S   UNL     1      44.505 -16.414   5.940  1.00  0.00    -0.129 SA
BRANCH  16  17
HETATM   17  C   UNL     1      43.258 -17.119   7.071  1.00  0.00     0.075 C 
HETATM   18  C   UNL     1      42.099 -16.153   7.238  1.00  0.00     0.016 C 
ENDBRANCH  16  17
ENDBRANCH  11  16
ENDBRANCH   7  10
ENDBRANCH   1   6
BRANCH   2  19
HETATM   19  C   UNL     1      40.826 -12.599   2.190  1.00  0.00     0.732 A 
HETATM   20  N   UNL     1      40.346 -13.656   1.615  1.00  0.00    -0.067 NA
HETATM   21  C   UNL     1      40.248 -13.606   0.241  1.00  0.00     0.065 A 
HETATM   22  C   UNL     1      40.612 -12.548  -0.509  1.00  0.00     0.036 A 
HETATM   23  C   UNL     1      39.667 -14.846  -0.402  1.00  0.00     0.060 C 
HETATM   24  C   UNL     1      40.516 -12.487  -2.005  1.00  0.00     0.046 C 
HETATM   25  C   UNL     1      41.150 -11.352   0.187  1.00  0.00     0.268 A 
HETATM   26  C   UNL     1      40.244 -13.851  -2.641  1.00  0.00     0.005 C 
HETATM   27  C   UNL     1      39.205 -14.630  -1.845  1.00  0.00     0.006 C 
HETATM   28  O   UNL     1      41.486 -10.339  -0.411  1.00  0.00    -0.267 OA
HETATM   29  N   UNL     1      41.232 -11.469   1.538  1.00  0.00    -0.152 N 
HETATM   30  H   UNL     1      41.584 -10.685   2.079  1.00  0.00     0.188 HD
ENDBRANCH   2  19
BRANCH   4  31
HETATM   31  C   UNL     1      40.542 -10.521   6.551  1.00  0.00     0.105 A 
HETATM   32  O   UNL     1      41.487  -9.792   7.221  1.00  0.00    -0.320 OA
HETATM   33  C   UNL     1      40.835  -9.016   8.123  1.00  0.00     0.142 A 
HETATM   34  C   UNL     1      39.479  -9.227   8.048  1.00  0.00     0.027 A 
HETATM   35  C   UNL     1      39.289 -10.195   7.032  1.00  0.00     0.041 A 
ENDBRANCH   4  31
TORSDOF 6
ENDMDL
MODEL 7
REMARK VINA RESULT:      -8.1      2.556      6.895
REMARK  6 active torsions:
REMARK  status: ('A' for Active; 'I' for Inactive)
REMARK    1  A    between atoms: C_2  and  S_3 
REMARK    2  A    between atoms: S_3  and  C_4 
REMARK    3  A    between atoms: C_5  and  C_6 
REMARK       I    between atoms: C_6  and  N_7 
REMARK    4  A    between atoms: N_7  and  C_8 
REMARK    5  A    between atoms: N_9  and  C_10 
REMARK    6  A    between atoms: C_22  and  C_23 
ROOT
HETATM    1  C   UNL     1      40.590 -14.671   2.040  1.00  0.00     0.152 A 
HETATM    2  N   UNL     1      40.201 -13.344   2.164  1.00  0.00    -0.044 N 
HETATM    3  N   UNL     1      39.576 -12.873   1.041  1.00  0.00    -0.148 NA
HETATM    4  C   UNL     1      39.597 -13.916   0.201  1.00  0.00     0.115 A 
HETATM    5  C   UNL     1      40.182 -15.058   0.783  1.00  0.00     0.087 A 
ENDROOT
BRANCH   1   6
HETATM    6  N   UNL     1      41.289 -15.343   3.033  1.00  0.00    -0.307 N 
HETATM    7  C   UNL     1      42.656 -15.238   3.188  1.00  0.00     0.258 C 
HETATM    8  O   UNL     1      43.445 -14.684   2.429  1.00  0.00    -0.267 OA
HETATM    9  H   UNL     1      40.744 -15.868   3.722  1.00  0.00     0.170 HD
BRANCH   7  10
HETATM   10  C   UNL     1      43.175 -15.764   4.472  1.00  0.00     0.049 A 
HETATM   11  C   UNL     1      43.627 -17.078   4.658  1.00  0.00     0.016 A 
HETATM   12  C   UNL     1      44.048 -17.469   5.939  1.00  0.00     0.019 A 
HETATM   13  C   UNL     1      44.041 -16.563   7.004  1.00  0.00     0.001 A 
HETATM   14  C   UNL     1      43.617 -15.254   6.804  1.00  0.00     0.001 A 
HETATM   15  C   UNL     1      43.187 -14.853   5.541  1.00  0.00     0.018 A 
BRANCH  11  16
HETATM   16  S   UNL     1      43.762 -18.292   3.353  1.00  0.00    -0.129 SA
BRANCH  16  17
HETATM   17  C   UNL     1      44.348 -19.699   4.358  1.00  0.00     0.075 C 
HETATM   18  C   UNL     1      43.811 -21.003   3.796  1.00  0.00     0.016 C 
ENDBRANCH  16  17
ENDBRANCH  11  16
ENDBRANCH   7  10
ENDBRANCH   1   6
BRANCH   2  19
HETATM   19  C   UNL     1      40.417 -12.468   3.247  1.00  0.00     0.732 A 
HETATM   20  N   UNL     1      39.505 -12.166   4.117  1.00  0.00    -0.067 NA
HETATM   21  C   UNL     1      39.890 -11.303   5.121  1.00  0.00     0.065 A 
HETATM   22  C   UNL     1      41.125 -10.778   5.240  1.00  0.00     0.036 A 
HETATM   23  C   UNL     1      38.813 -10.984   6.134  1.00  0.00     0.060 C 
HETATM   24  C   UNL     1      41.550  -9.832   6.325  1.00  0.00     0.046 C 
HETATM   25  C   UNL     1      42.142 -11.153   4.228  1.00  0.00     0.268 A 
HETATM   26  C   UNL     1      40.372  -9.276   7.127  1.00  0.00     0.005 C 
HETATM   27  C   UNL     1      39.350 -10.365   7.427  1.00  0.00     0.006 C 
HETATM   28  O   UNL     1      43.294 -10.740   4.269  1.00  0.00    -0.267 OA
HETATM   29  N   UNL     1      41.699 -11.995   3.259  1.00  0.00    -0.152 N 
HETATM   30  H   UNL     1      42.345 -12.301   2.538  1.00  0.00     0.188 HD
ENDBRANCH   2  19
BRANCH   4  31
HETATM   31  C   UNL     1      39.083 -13.839  -1.198  1.00  0.00     0.105 A 
HETATM   32  O   UNL     1      37.944 -13.177  -1.568  1.00  0.00    -0.320 OA
HETATM   33  C   UNL     1      37.787 -13.357  -2.904  1.00  0.00     0.142 A 
HETATM   34  C   UNL     1      38.810 -14.124  -3.410  1.00  0.00     0.027 A 
HETATM   35  C   UNL     1      39.648 -14.433  -2.310  1.00  0.00     0.041 A 
ENDBRANCH   4  31
TORSDOF 6
ENDMDL
MODEL 8
REMARK VINA RESULT:      -8.1      3.099      7.128
REMARK  6 active torsions:
REMARK  status: ('A' for Active; 'I' for Inactive)
REMARK    1  A    between atoms: C_2  and  S_3 
REMARK    2  A    between atoms: S_3  and  C_4 
REMARK    3  A    between atoms: C_5  and  C_6 
REMARK       I    between atoms: C_6  and  N_7 
REMARK    4  A    between atoms: N_7  and  C_8 
REMARK    5  A    between atoms: N_9  and  C_10 
REMARK    6  A    between atoms: C_22  and  C_23 
ROOT
HETATM    1  C   UNL     1      43.357 -12.730   5.961  1.00  0.00     0.152 A 
HETATM    2  N   UNL     1      42.477 -11.670   5.792  1.00  0.00    -0.044 N 
HETATM    3  N   UNL     1      42.630 -10.704   6.750  1.00  0.00    -0.148 NA
HETATM    4  C   UNL     1      43.604 -11.181   7.535  1.00  0.00     0.115 A 
HETATM    5  C   UNL     1      44.108 -12.412   7.070  1.00  0.00     0.087 A 
ENDROOT
BRANCH   1   6
HETATM    6  N   UNL     1      43.348 -13.849   5.140  1.00  0.00    -0.307 N 
HETATM    7  C   UNL     1      42.572 -14.961   5.399  1.00  0.00     0.258 C 
HETATM    8  O   UNL     1      41.918 -15.184   6.412  1.00  0.00    -0.267 OA
HETATM    9  H   UNL     1      43.880 -13.800   4.268  1.00  0.00     0.170 HD
BRANCH   7  10
HETATM   10  C   UNL     1      42.453 -15.908   4.267  1.00  0.00     0.049 A 
HETATM   11  C   UNL     1      43.265 -17.040   4.101  1.00  0.00     0.016 A 
HETATM   12  C   UNL     1      43.085 -17.833   2.956  1.00  0.00     0.019 A 
HETATM   13  C   UNL     1      42.103 -17.519   2.012  1.00  0.00     0.001 A 
HETATM   14  C   UNL     1      41.284 -16.410   2.199  1.00  0.00     0.001 A 
HETATM   15  C   UNL     1      41.456 -15.608   3.325  1.00  0.00     0.018 A 
BRANCH  11  16
HETATM   16  S   UNL     1      44.489 -17.586   5.283  1.00  0.00    -0.129 SA
BRANCH  16  17
HETATM   17  C   UNL     1      43.486 -18.846   6.141  1.00  0.00     0.075 C 
HETATM   18  C   UNL     1      43.854 -20.234   5.647  1.00  0.00     0.016 C 
ENDBRANCH  16  17
ENDBRANCH  11  16
ENDBRANCH   7  10
ENDBRANCH   1   6
BRANCH   2  19
HETATM   19  C   UNL     1      41.465 -11.519   4.823  1.00  0.00     0.732 A 
HETATM   20  N   UNL     1      41.558 -11.976   3.614  1.00  0.00    -0.067 NA
HETATM   21  C   UNL     1      40.469 -11.754   2.798  1.00  0.00     0.065 A 
HETATM   22  C   UNL     1      39.350 -11.110   3.183  1.00  0.00     0.036 A 
HETATM   23  C   UNL     1      40.596 -12.314   1.399  1.00  0.00     0.060 C 
HETATM   24  C   UNL     1      38.163 -10.857   2.299  1.00  0.00     0.046 C 
HETATM   25  C   UNL     1      39.279 -10.608   4.577  1.00  0.00     0.268 A 
HETATM   26  C   UNL     1      38.449 -11.135   0.822  1.00  0.00     0.005 C 
HETATM   27  C   UNL     1      39.264 -12.411   0.652  1.00  0.00     0.006 C 
HETATM   28  O   UNL     1      38.294 -10.030   5.019  1.00  0.00    -0.267 OA
HETATM   29  N   UNL     1      40.387 -10.848   5.326  1.00  0.00    -0.152 N 
HETATM   30  H   UNL     1      40.403 -10.539   6.293  1.00  0.00     0.188 HD
ENDBRANCH   2  19
BRANCH   4  31
HETATM   31  C   UNL     1      44.060 -10.485   8.773  1.00  0.00     0.105 A 
HETATM   32  O   UNL     1      45.257 -10.717   9.395  1.00  0.00    -0.320 OA
HETATM   33  C   UNL     1      45.302  -9.926  10.497  1.00  0.00     0.142 A 
HETATM   34  C   UNL     1      44.152  -9.180  10.600  1.00  0.00     0.027 A 
HETATM   35  C   UNL     1      43.352  -9.537   9.487  1.00  0.00     0.041 A 
ENDBRANCH   4  31
TORSDOF 6
ENDMDL
MODEL 9
REMARK VINA RESULT:      -8.1      2.225      7.285
REMARK  6 active torsions:
REMARK  status: ('A' for Active; 'I' for Inactive)
REMARK    1  A    between atoms: C_2  and  S_3 
REMARK    2  A    between atoms: S_3  and  C_4 
REMARK    3  A    between atoms: C_5  and  C_6 
REMARK       I    between atoms: C_6  and  N_7 
REMARK    4  A    between atoms: N_7  and  C_8 
REMARK    5  A    between atoms: N_9  and  C_10 
REMARK    6  A    between atoms: C_22  and  C_23 
ROOT
HETATM    1  C   UNL     1      41.530 -13.542   2.550  1.00  0.00     0.152 A 
HETATM    2  N   UNL     1      41.608 -14.837   2.058  1.00  0.00    -0.044 N 
HETATM    3  N   UNL     1      40.914 -14.997   0.889  1.00  0.00    -0.148 NA
HETATM    4  C   UNL     1      40.382 -13.790   0.663  1.00  0.00     0.115 A 
HETATM    5  C   UNL     1      40.760 -12.849   1.642  1.00  0.00     0.087 A 
ENDROOT
BRANCH   1   6
HETATM    6  N   UNL     1      42.112 -13.160   3.751  1.00  0.00    -0.307 N 
HETATM    7  C   UNL     1      43.010 -12.116   3.849  1.00  0.00     0.258 C 
HETATM    8  O   UNL     1      43.518 -11.491   2.925  1.00  0.00    -0.267 OA
HETATM    9  H   UNL     1      41.789 -13.627   4.602  1.00  0.00     0.170 HD
BRANCH   7  10
HETATM   10  C   UNL     1      43.276 -11.659   5.232  1.00  0.00     0.049 A 
HETATM   11  C   UNL     1      42.540 -10.660   5.885  1.00  0.00     0.016 A 
HETATM   12  C   UNL     1      42.924 -10.280   7.180  1.00  0.00     0.019 A 
HETATM   13  C   UNL     1      44.003 -10.899   7.820  1.00  0.00     0.001 A 
HETATM   14  C   UNL     1      44.710 -11.908   7.175  1.00  0.00     0.001 A 
HETATM   15  C   UNL     1      44.347 -12.290   5.886  1.00  0.00     0.018 A 
BRANCH  11  16
HETATM   16  S   UNL     1      41.093  -9.864   5.201  1.00  0.00    -0.129 SA
BRANCH  16  17
HETATM   17  C   UNL     1      39.845 -10.555   6.340  1.00  0.00     0.075 C 
HETATM   18  C   UNL     1      39.585 -12.013   6.009  1.00  0.00     0.016 C 
ENDBRANCH  16  17
ENDBRANCH  11  16
ENDBRANCH   7  10
ENDBRANCH   1   6
BRANCH   2  19
HETATM   19  C   UNL     1      42.248 -15.954   2.633  1.00  0.00     0.732 A 
HETATM   20  N   UNL     1      42.248 -17.134   2.098  1.00  0.00    -0.067 NA
HETATM   21  C   UNL     1      42.935 -18.111   2.787  1.00  0.00     0.065 A 
HETATM   22  C   UNL     1      43.586 -17.906   3.949  1.00  0.00     0.036 A 
HETATM   23  C   UNL     1      42.936 -19.473   2.130  1.00  0.00     0.060 C 
HETATM   24  C   UNL     1      44.329 -18.965   4.710  1.00  0.00     0.046 C 
HETATM   25  C   UNL     1      43.568 -16.539   4.526  1.00  0.00     0.268 A 
HETATM   26  C   UNL     1      44.038 -20.378   4.204  1.00  0.00     0.005 C 
HETATM   27  C   UNL     1      44.004 -20.420   2.681  1.00  0.00     0.006 C 
HETATM   28  O   UNL     1      44.149 -16.257   5.566  1.00  0.00    -0.267 OA
HETATM   29  N   UNL     1      42.865 -15.626   3.807  1.00  0.00    -0.152 N 
HETATM   30  H   UNL     1      42.819 -14.667   4.140  1.00  0.00     0.188 HD
ENDBRANCH   2  19
BRANCH   4  31
HETATM   31  C   UNL     1      39.468 -13.508  -0.482  1.00  0.00     0.105 A 
HETATM   32  O   UNL     1      38.670 -12.401  -0.581  1.00  0.00    -0.320 OA
HETATM   33  C   UNL     1      37.965 -12.511  -1.736  1.00  0.00     0.142 A 
HETATM   34  C   UNL     1      38.296 -13.673  -2.392  1.00  0.00     0.027 A 
HETATM   35  C   UNL     1      39.268 -14.315  -1.586  1.00  0.00     0.041 A 
ENDBRANCH   4  31
TORSDOF 6
ENDMDL
MODEL 10
REMARK VINA RESULT:      -7.9      2.076      5.665
REMARK  6 active torsions:
REMARK  status: ('A' for Active; 'I' for Inactive)
REMARK    1  A    between atoms: C_2  and  S_3 
REMARK    2  A    between atoms: S_3  and  C_4 
REMARK    3  A    between atoms: C_5  and  C_6 
REMARK       I    between atoms: C_6  and  N_7 
REMARK    4  A    between atoms: N_7  and  C_8 
REMARK    5  A    between atoms: N_9  and  C_10 
REMARK    6  A    between atoms: C_22  and  C_23 
ROOT
HETATM    1  C   UNL     1      42.177 -14.524   3.479  1.00  0.00     0.152 A 
HETATM    2  N   UNL     1      41.801 -14.889   2.193  1.00  0.00    -0.044 N 
HETATM    3  N   UNL     1      42.072 -16.203   1.920  1.00  0.00    -0.148 NA
HETATM    4  C   UNL     1      42.642 -16.653   3.045  1.00  0.00     0.115 A 
HETATM    5  C   UNL     1      42.698 -15.664   4.047  1.00  0.00     0.087 A 
ENDROOT
BRANCH   1   6
HETATM    6  N   UNL     1      42.047 -13.227   3.958  1.00  0.00    -0.307 N 
HETATM    7  C   UNL     1      41.324 -12.918   5.092  1.00  0.00     0.258 C 
HETATM    8  O   UNL     1      40.603 -13.672   5.736  1.00  0.00    -0.267 OA
HETATM    9  H   UNL     1      42.583 -12.494   3.487  1.00  0.00     0.170 HD
BRANCH   7  10
HETATM   10  C   UNL     1      41.556 -11.553   5.619  1.00  0.00     0.049 A 
HETATM   11  C   UNL     1      42.618 -11.209   6.467  1.00  0.00     0.016 A 
HETATM   12  C   UNL     1      42.700  -9.890   6.939  1.00  0.00     0.019 A 
HETATM   13  C   UNL     1      41.759  -8.930   6.556  1.00  0.00     0.001 A 
HETATM   14  C   UNL     1      40.725  -9.273   5.691  1.00  0.00     0.001 A 
HETATM   15  C   UNL     1      40.624 -10.581   5.221  1.00  0.00     0.018 A 
BRANCH  11  16
HETATM   16  S   UNL     1      43.925 -12.328   6.952  1.00  0.00    -0.129 SA
BRANCH  16  17
HETATM   17  C   UNL     1      45.343 -11.376   6.309  1.00  0.00     0.075 C 
HETATM   18  C   UNL     1      46.164 -10.818   7.458  1.00  0.00     0.016 C 
ENDBRANCH  16  17
ENDBRANCH  11  16
ENDBRANCH   7  10
ENDBRANCH   1   6
BRANCH   2  19
HETATM   19  C   UNL     1      41.249 -14.079   1.180  1.00  0.00     0.732 A 
HETATM   20  N   UNL     1      41.490 -12.811   1.067  1.00  0.00    -0.067 NA
HETATM   21  C   UNL     1      40.879 -12.171   0.009  1.00  0.00     0.065 A 
HETATM   22  C   UNL     1      40.074 -12.779  -0.884  1.00  0.00     0.036 A 
HETATM   23  C   UNL     1      41.192 -10.696  -0.110  1.00  0.00     0.060 C 
HETATM   24  C   UNL     1      39.399 -12.089  -2.034  1.00  0.00     0.046 C 
HETATM   25  C   UNL     1      39.830 -14.233  -0.725  1.00  0.00     0.268 A 
HETATM   26  C   UNL     1      39.465 -10.564  -1.936  1.00  0.00     0.005 C 
HETATM   27  C   UNL     1      40.843 -10.103  -1.477  1.00  0.00     0.006 C 
HETATM   28  O   UNL     1      39.129 -14.871  -1.500  1.00  0.00    -0.267 OA
HETATM   29  N   UNL     1      40.449 -14.802   0.342  1.00  0.00    -0.152 N 
HETATM   30  H   UNL     1      40.332 -15.797   0.506  1.00  0.00     0.188 HD
ENDBRANCH   2  19
BRANCH   4  31
HETATM   31  C   UNL     1      43.178 -18.039   3.182  1.00  0.00     0.105 A 
HETATM   32  O   UNL     1      43.829 -18.510   4.290  1.00  0.00    -0.320 OA
HETATM   33  C   UNL     1      44.192 -19.792   4.032  1.00  0.00     0.142 A 
HETATM   34  C   UNL     1      43.785 -20.163   2.773  1.00  0.00     0.027 A 
HETATM   35  C   UNL     1      43.128 -19.034   2.225  1.00  0.00     0.041 A 
ENDBRANCH   4  31
TORSDOF 6
ENDMDL
