MODEL 1
REMARK VINA RESULT:      -8.6      0.000      0.000
REMARK  5 active torsions:
REMARK  status: ('A' for Active; 'I' for Inactive)
REMARK    1  A    between atoms: C_5  and  C_6 
REMARK    2  A    between atoms: C_9  and  O_10 
REMARK    3  A    between atoms: O_10  and  C_11 
REMARK    4  A    between atoms: C_11  and  C_12 
REMARK       I    between atoms: C_12  and  N_13 
REMARK    5  A    between atoms: N_13  and  C_14 
ROOT
HETATM    1  C   UNL     1      43.466 -11.903   3.002  1.00  0.00     0.278 C 
ENDROOT
BRANCH   1   2
HETATM    2  O   UNL     1      42.386 -12.812   2.807  1.00  0.00    -0.342 OA
BRANCH   2   3
HETATM    3  C   UNL     1      42.653 -14.130   3.070  1.00  0.00     0.069 A 
HETATM    4  C   UNL     1      42.641 -14.731   4.330  1.00  0.00     0.038 A 
HETATM    5  C   UNL     1      42.934 -16.093   4.466  1.00  0.00     0.018 A 
HETATM    6  C   UNL     1      43.240 -16.880   3.347  1.00  0.00     0.015 A 
HETATM    7  C   UNL     1      43.247 -16.272   2.086  1.00  0.00     0.018 A 
HETATM    8  C   UNL     1      42.955 -14.909   1.950  1.00  0.00     0.038 A 
BRANCH   6   9
HETATM    9  C   UNL     1      43.541 -18.297   3.507  1.00  0.00     0.198 A 
HETATM   10  N   UNL     1      43.474 -19.194   2.463  1.00  0.00    -0.136 NA
HETATM   11  N   UNL     1      43.810 -20.380   2.948  1.00  0.00     0.024 NA
HETATM   12  N   UNL     1      44.059 -20.153   4.245  1.00  0.00    -0.196 N 
HETATM   13  C   UNL     1      44.483 -21.201   5.133  1.00  0.00     0.200 C 
HETATM   14  N   UNL     1      43.912 -18.883   4.661  1.00  0.00    -0.137 NA
ENDBRANCH   6   9
ENDBRANCH   2   3
ENDBRANCH   1   2
BRANCH   1  15
HETATM   15  C   UNL     1      43.414 -11.190   4.356  1.00  0.00     0.246 C 
HETATM   16  N   UNL     1      44.377 -11.631   5.245  1.00  0.00    -0.325 N 
HETATM   17  H   UNL     1      44.974 -12.375   4.897  1.00  0.00     0.169 HD
HETATM   18  O   UNL     1      42.584 -10.307   4.551  1.00  0.00    -0.271 OA
BRANCH  16  19
HETATM   19  C   UNL     1      44.615 -11.177   6.558  1.00  0.00     0.036 A 
HETATM   20  C   UNL     1      43.645 -11.206   7.568  1.00  0.00     0.059 A 
HETATM   21  C   UNL     1      43.996 -10.726   8.839  1.00  0.00     0.044 A 
HETATM   22  C   UNL     1      45.262 -10.224   9.134  1.00  0.00    -0.008 A 
HETATM   23  N   UNL     1      43.246 -10.643   9.992  1.00  0.00    -0.365 N 
HETATM   24  C   UNL     1      46.228 -10.198   8.113  1.00  0.00     0.016 A 
HETATM   25  C   UNL     1      45.249  -9.835  10.502  1.00  0.00     0.030 A 
HETATM   26  C   UNL     1      45.892 -10.677   6.837  1.00  0.00     0.030 A 
HETATM   27  C   UNL     1      43.996 -10.105  11.004  1.00  0.00     0.089 A 
HETATM   28  H   UNL     1      42.283 -10.940  10.068  1.00  0.00     0.165 HD
ENDBRANCH  16  19
ENDBRANCH   1  15
TORSDOF 5
ENDMDL
MODEL 2
REMARK VINA RESULT:      -8.4      1.718      8.295
REMARK  5 active torsions:
REMARK  status: ('A' for Active; 'I' for Inactive)
REMARK    1  A    between atoms: C_5  and  C_6 
REMARK    2  A    between atoms: C_9  and  O_10 
REMARK    3  A    between atoms: O_10  and  C_11 
REMARK    4  A    between atoms: C_11  and  C_12 
REMARK       I    between atoms: C_12  and  N_13 
REMARK    5  A    between atoms: N_13  and  C_14 
ROOT
HETATM    1  C   UNL     1      42.087 -11.978   2.628  1.00  0.00     0.278 C 
ENDROOT
BRANCH   1   2
HETATM    2  O   UNL     1      43.337 -11.453   3.069  1.00  0.00    -0.342 OA
BRANCH   2   3
HETATM    3  C   UNL     1      43.435 -11.179   4.408  1.00  0.00     0.069 A 
HETATM    4  C   UNL     1      42.475 -10.525   5.182  1.00  0.00     0.038 A 
HETATM    5  C   UNL     1      42.696 -10.305   6.546  1.00  0.00     0.018 A 
HETATM    6  C   UNL     1      43.880 -10.735   7.163  1.00  0.00     0.015 A 
HETATM    7  C   UNL     1      44.838 -11.393   6.381  1.00  0.00     0.018 A 
HETATM    8  C   UNL     1      44.615 -11.613   5.016  1.00  0.00     0.038 A 
BRANCH   6   9
HETATM    9  C   UNL     1      44.094 -10.499   8.585  1.00  0.00     0.198 A 
HETATM   10  N   UNL     1      45.221 -10.932   9.250  1.00  0.00    -0.136 NA
HETATM   11  N   UNL     1      45.097 -10.550  10.512  1.00  0.00     0.024 NA
HETATM   12  N   UNL     1      43.918  -9.914  10.556  1.00  0.00    -0.196 N 
HETATM   13  C   UNL     1      43.419  -9.321  11.766  1.00  0.00     0.200 C 
HETATM   14  N   UNL     1      43.242  -9.845   9.396  1.00  0.00    -0.137 NA
ENDBRANCH   6   9
ENDBRANCH   2   3
ENDBRANCH   1   2
BRANCH   1  15
HETATM   15  C   UNL     1      41.914 -13.465   2.948  1.00  0.00     0.246 C 
HETATM   16  N   UNL     1      43.069 -14.203   2.765  1.00  0.00    -0.325 N 
HETATM   17  H   UNL     1      43.868 -13.674   2.428  1.00  0.00     0.169 HD
HETATM   18  O   UNL     1      40.830 -13.884   3.345  1.00  0.00    -0.271 OA
BRANCH  16  19
HETATM   19  C   UNL     1      43.258 -15.583   2.985  1.00  0.00     0.036 A 
HETATM   20  C   UNL     1      43.551 -16.127   4.242  1.00  0.00     0.059 A 
HETATM   21  C   UNL     1      43.719 -17.517   4.340  1.00  0.00     0.044 A 
HETATM   22  C   UNL     1      43.607 -18.371   3.246  1.00  0.00    -0.008 A 
HETATM   23  N   UNL     1      44.006 -18.297   5.438  1.00  0.00    -0.365 N 
HETATM   24  C   UNL     1      43.314 -17.815   1.988  1.00  0.00     0.016 A 
HETATM   25  C   UNL     1      43.839 -19.691   3.720  1.00  0.00     0.030 A 
HETATM   26  C   UNL     1      43.141 -16.426   1.874  1.00  0.00     0.030 A 
HETATM   27  C   UNL     1      44.080 -19.616   5.073  1.00  0.00     0.089 A 
HETATM   28  H   UNL     1      44.140 -17.939   6.373  1.00  0.00     0.165 HD
ENDBRANCH  16  19
ENDBRANCH   1  15
TORSDOF 5
ENDMDL
MODEL 3
REMARK VINA RESULT:      -8.3      2.275      3.524
REMARK  5 active torsions:
REMARK  status: ('A' for Active; 'I' for Inactive)
REMARK    1  A    between atoms: C_5  and  C_6 
REMARK    2  A    between atoms: C_9  and  O_10 
REMARK    3  A    between atoms: O_10  and  C_11 
REMARK    4  A    between atoms: C_11  and  C_12 
REMARK       I    between atoms: C_12  and  N_13 
REMARK    5  A    between atoms: N_13  and  C_14 
ROOT
HETATM    1  C   UNL     1      44.506 -11.944   6.692  1.00  0.00     0.278 C 
ENDROOT
BRANCH   1   2
HETATM    2  O   UNL     1      43.297 -12.698   6.669  1.00  0.00    -0.342 OA
BRANCH   2   3
HETATM    3  C   UNL     1      43.356 -13.912   6.034  1.00  0.00     0.069 A 
HETATM    4  C   UNL     1      42.839 -14.200   4.771  1.00  0.00     0.038 A 
HETATM    5  C   UNL     1      42.965 -15.485   4.231  1.00  0.00     0.018 A 
HETATM    6  C   UNL     1      43.612 -16.505   4.943  1.00  0.00     0.015 A 
HETATM    7  C   UNL     1      44.131 -16.208   6.210  1.00  0.00     0.018 A 
HETATM    8  C   UNL     1      44.004 -14.922   6.748  1.00  0.00     0.038 A 
BRANCH   6   9
HETATM    9  C   UNL     1      43.736 -17.838   4.366  1.00  0.00     0.198 A 
HETATM   10  N   UNL     1      44.114 -18.937   5.107  1.00  0.00    -0.136 NA
HETATM   11  N   UNL     1      44.120 -19.975   4.285  1.00  0.00     0.024 NA
HETATM   12  N   UNL     1      43.753 -19.467   3.100  1.00  0.00    -0.196 N 
HETATM   13  C   UNL     1      43.616 -20.289   1.929  1.00  0.00     0.200 C 
HETATM   14  N   UNL     1      43.499 -18.147   3.078  1.00  0.00    -0.137 NA
ENDBRANCH   6   9
ENDBRANCH   2   3
ENDBRANCH   1   2
BRANCH   1  15
HETATM   15  C   UNL     1      44.698 -11.156   7.990  1.00  0.00     0.246 C 
HETATM   16  N   UNL     1      43.508 -10.750   8.566  1.00  0.00    -0.325 N 
HETATM   17  H   UNL     1      42.672 -11.007   8.049  1.00  0.00     0.169 HD
HETATM   18  O   UNL     1      45.829 -10.962   8.427  1.00  0.00    -0.271 OA
BRANCH  16  19
HETATM   19  C   UNL     1      43.328 -10.028   9.763  1.00  0.00     0.036 A 
HETATM   20  C   UNL     1      43.001  -8.667   9.798  1.00  0.00     0.059 A 
HETATM   21  C   UNL     1      42.847  -8.053  11.050  1.00  0.00     0.044 A 
HETATM   22  C   UNL     1      43.005  -8.739  12.252  1.00  0.00    -0.008 A 
HETATM   23  N   UNL     1      42.531  -6.749  11.363  1.00  0.00    -0.365 N 
HETATM   24  C   UNL     1      43.334 -10.105  12.208  1.00  0.00     0.016 A 
HETATM   25  C   UNL     1      42.777  -7.805  13.300  1.00  0.00     0.030 A 
HETATM   26  C   UNL     1      43.490 -10.733  10.961  1.00  0.00     0.030 A 
HETATM   27  C   UNL     1      42.486  -6.589  12.724  1.00  0.00     0.089 A 
HETATM   28  H   UNL     1      42.360  -6.024  10.681  1.00  0.00     0.165 HD
ENDBRANCH  16  19
ENDBRANCH   1  15
TORSDOF 5
ENDMDL
MODEL 4
REMARK VINA RESULT:      -8.2      1.785      8.152
REMARK  5 active torsions:
REMARK  status: ('A' for Active; 'I' for Inactive)
REMARK    1  A    between atoms: C_5  and  C_6 
REMARK    2  A    between atoms: C_9  and  O_10 
REMARK    3  A    between atoms: O_10  and  C_11 
REMARK    4  A    between atoms: C_11  and  C_12 
REMARK       I    between atoms: C_12  and  N_13 
REMARK    5  A    between atoms: N_13  and  C_14 
ROOT
HETATM    1  C   UNL     1      41.699 -13.595   1.529  1.00  0.00     0.278 C 
ENDROOT
BRANCH   1   2
HETATM    2  O   UNL     1      41.200 -12.594   2.414  1.00  0.00    -0.342 OA
BRANCH   2   3
HETATM    3  C   UNL     1      42.041 -12.216   3.429  1.00  0.00     0.069 A 
HETATM    4  C   UNL     1      43.376 -11.837   3.285  1.00  0.00     0.038 A 
HETATM    5  C   UNL     1      44.131 -11.470   4.406  1.00  0.00     0.018 A 
HETATM    6  C   UNL     1      43.566 -11.474   5.688  1.00  0.00     0.015 A 
HETATM    7  C   UNL     1      42.224 -11.853   5.825  1.00  0.00     0.018 A 
HETATM    8  C   UNL     1      41.470 -12.219   4.703  1.00  0.00     0.038 A 
BRANCH   6   9
HETATM    9  C   UNL     1      44.366 -11.088   6.844  1.00  0.00     0.198 A 
HETATM   10  N   UNL     1      45.733 -10.930   6.783  1.00  0.00    -0.136 NA
HETATM   11  N   UNL     1      46.137 -10.575   7.993  1.00  0.00     0.024 NA
HETATM   12  N   UNL     1      45.014 -10.537   8.724  1.00  0.00    -0.196 N 
HETATM   13  C   UNL     1      45.022 -10.166  10.112  1.00  0.00     0.200 C 
HETATM   14  N   UNL     1      43.878 -10.844   8.074  1.00  0.00    -0.137 NA
ENDBRANCH   6   9
ENDBRANCH   2   3
ENDBRANCH   1   2
BRANCH   1  15
HETATM   15  C   UNL     1      41.692 -14.997   2.144  1.00  0.00     0.246 C 
HETATM   16  N   UNL     1      42.944 -15.427   2.543  1.00  0.00    -0.325 N 
HETATM   17  H   UNL     1      43.700 -14.773   2.362  1.00  0.00     0.169 HD
HETATM   18  O   UNL     1      40.634 -15.611   2.258  1.00  0.00    -0.271 OA
BRANCH  16  19
HETATM   19  C   UNL     1      43.285 -16.649   3.157  1.00  0.00     0.036 A 
HETATM   20  C   UNL     1      43.229 -17.883   2.496  1.00  0.00     0.059 A 
HETATM   21  C   UNL     1      43.591 -19.035   3.209  1.00  0.00     0.044 A 
HETATM   22  C   UNL     1      44.001 -19.002   4.540  1.00  0.00    -0.008 A 
HETATM   23  N   UNL     1      43.627 -20.351   2.804  1.00  0.00    -0.365 N 
HETATM   24  C   UNL     1      44.052 -17.760   5.196  1.00  0.00     0.016 A 
HETATM   25  C   UNL     1      44.282 -20.342   4.924  1.00  0.00     0.030 A 
HETATM   26  C   UNL     1      43.694 -16.598   4.494  1.00  0.00     0.030 A 
HETATM   27  C   UNL     1      44.045 -21.151   3.836  1.00  0.00     0.089 A 
HETATM   28  H   UNL     1      43.380 -20.670   1.878  1.00  0.00     0.165 HD
ENDBRANCH  16  19
ENDBRANCH   1  15
TORSDOF 5
ENDMDL
MODEL 5
REMARK VINA RESULT:      -8.2      3.414     10.676
REMARK  5 active torsions:
REMARK  status: ('A' for Active; 'I' for Inactive)
REMARK    1  A    between atoms: C_5  and  C_6 
REMARK    2  A    between atoms: C_9  and  O_10 
REMARK    3  A    between atoms: O_10  and  C_11 
REMARK    4  A    between atoms: C_11  and  C_12 
REMARK       I    between atoms: C_12  and  N_13 
REMARK    5  A    between atoms: N_13  and  C_14 
ROOT
HETATM    1  C   UNL     1      43.899 -10.897   8.254  1.00  0.00     0.278 C 
ENDROOT
BRANCH   1   2
HETATM    2  O   UNL     1      44.467 -11.152   9.536  1.00  0.00    -0.342 OA
BRANCH   2   3
HETATM    3  C   UNL     1      44.017 -10.363  10.562  1.00  0.00     0.069 A 
HETATM    4  C   UNL     1      44.012  -8.967  10.578  1.00  0.00     0.038 A 
HETATM    5  C   UNL     1      43.523  -8.275  11.692  1.00  0.00     0.018 A 
HETATM    6  C   UNL     1      43.028  -8.963  12.809  1.00  0.00     0.015 A 
HETATM    7  C   UNL     1      43.033 -10.364  12.785  1.00  0.00     0.018 A 
HETATM    8  C   UNL     1      43.523 -11.055  11.669  1.00  0.00     0.038 A 
BRANCH   6   9
HETATM    9  C   UNL     1      42.521  -8.227  13.959  1.00  0.00     0.198 A 
HETATM   10  N   UNL     1      42.997  -6.983  14.315  1.00  0.00    -0.136 NA
HETATM   11  N   UNL     1      42.323  -6.603  15.390  1.00  0.00     0.024 NA
HETATM   12  N   UNL     1      41.484  -7.619  15.636  1.00  0.00    -0.196 N 
HETATM   13  C   UNL     1      40.549  -7.586  16.728  1.00  0.00     0.200 C 
HETATM   14  N   UNL     1      41.552  -8.659  14.788  1.00  0.00    -0.137 NA
ENDBRANCH   6   9
ENDBRANCH   2   3
ENDBRANCH   1   2
BRANCH   1  15
HETATM   15  C   UNL     1      44.276 -11.950   7.209  1.00  0.00     0.246 C 
HETATM   16  N   UNL     1      43.310 -12.924   7.039  1.00  0.00    -0.325 N 
HETATM   17  H   UNL     1      42.493 -12.827   7.634  1.00  0.00     0.169 HD
HETATM   18  O   UNL     1      45.343 -11.860   6.606  1.00  0.00    -0.271 OA
BRANCH  16  19
HETATM   19  C   UNL     1      43.333 -14.019   6.151  1.00  0.00     0.036 A 
HETATM   20  C   UNL     1      43.792 -15.292   6.512  1.00  0.00     0.059 A 
HETATM   21  C   UNL     1      43.767 -16.306   5.543  1.00  0.00     0.044 A 
HETATM   22  C   UNL     1      43.309 -16.099   4.245  1.00  0.00    -0.008 A 
HETATM   23  N   UNL     1      44.153 -17.625   5.634  1.00  0.00    -0.365 N 
HETATM   24  C   UNL     1      42.851 -14.818   3.890  1.00  0.00     0.016 A 
HETATM   25  C   UNL     1      43.433 -17.337   3.555  1.00  0.00     0.030 A 
HETATM   26  C   UNL     1      42.868 -13.794   4.850  1.00  0.00     0.030 A 
HETATM   27  C   UNL     1      43.954 -18.258   4.435  1.00  0.00     0.089 A 
HETATM   28  H   UNL     1      44.527 -18.054   6.469  1.00  0.00     0.165 HD
ENDBRANCH  16  19
ENDBRANCH   1  15
TORSDOF 5
ENDMDL
MODEL 6
REMARK VINA RESULT:      -8.1      4.006      7.966
REMARK  5 active torsions:
REMARK  status: ('A' for Active; 'I' for Inactive)
REMARK    1  A    between atoms: C_5  and  C_6 
REMARK    2  A    between atoms: C_9  and  O_10 
REMARK    3  A    between atoms: O_10  and  C_11 
REMARK    4  A    between atoms: C_11  and  C_12 
REMARK       I    between atoms: C_12  and  N_13 
REMARK    5  A    between atoms: N_13  and  C_14 
ROOT
HETATM    1  C   UNL     1      42.597 -13.262   5.992  1.00  0.00     0.278 C 
ENDROOT
BRANCH   1   2
HETATM    2  O   UNL     1      41.562 -12.389   5.545  1.00  0.00    -0.342 OA
BRANCH   2   3
HETATM    3  C   UNL     1      41.158 -12.552   4.246  1.00  0.00     0.069 A 
HETATM    4  C   UNL     1      41.945 -12.342   3.113  1.00  0.00     0.038 A 
HETATM    5  C   UNL     1      41.412 -12.544   1.834  1.00  0.00     0.018 A 
HETATM    6  C   UNL     1      40.084 -12.960   1.665  1.00  0.00     0.015 A 
HETATM    7  C   UNL     1      39.301 -13.172   2.806  1.00  0.00     0.018 A 
HETATM    8  C   UNL     1      39.835 -12.970   4.085  1.00  0.00     0.038 A 
BRANCH   6   9
HETATM    9  C   UNL     1      39.545 -13.167   0.326  1.00  0.00     0.198 A 
HETATM   10  N   UNL     1      38.705 -12.261  -0.285  1.00  0.00    -0.136 NA
HETATM   11  N   UNL     1      38.412 -12.751  -1.481  1.00  0.00     0.024 NA
HETATM   12  N   UNL     1      39.075 -13.915  -1.538  1.00  0.00    -0.196 N 
HETATM   13  C   UNL     1      39.033 -14.756  -2.703  1.00  0.00     0.200 C 
HETATM   14  N   UNL     1      39.799 -14.235  -0.452  1.00  0.00    -0.137 NA
ENDBRANCH   6   9
ENDBRANCH   2   3
ENDBRANCH   1   2
BRANCH   1  15
HETATM   15  C   UNL     1      42.367 -14.721   5.591  1.00  0.00     0.246 C 
HETATM   16  N   UNL     1      43.249 -15.170   4.625  1.00  0.00    -0.325 N 
HETATM   17  H   UNL     1      43.915 -14.477   4.297  1.00  0.00     0.169 HD
HETATM   18  O   UNL     1      41.479 -15.373   6.134  1.00  0.00    -0.271 OA
BRANCH  16  19
HETATM   19  C   UNL     1      43.323 -16.456   4.051  1.00  0.00     0.036 A 
HETATM   20  C   UNL     1      43.776 -17.583   4.749  1.00  0.00     0.059 A 
HETATM   21  C   UNL     1      43.806 -18.813   4.075  1.00  0.00     0.044 A 
HETATM   22  C   UNL     1      43.408 -18.956   2.748  1.00  0.00    -0.008 A 
HETATM   23  N   UNL     1      44.199 -20.056   4.520  1.00  0.00    -0.365 N 
HETATM   24  C   UNL     1      42.957 -17.819   2.055  1.00  0.00     0.016 A 
HETATM   25  C   UNL     1      43.576 -20.327   2.407  1.00  0.00     0.030 A 
HETATM   26  C   UNL     1      42.919 -16.582   2.718  1.00  0.00     0.030 A 
HETATM   27  C   UNL     1      44.063 -20.980   3.517  1.00  0.00     0.089 A 
HETATM   28  H   UNL     1      44.536 -20.247   5.452  1.00  0.00     0.165 HD
ENDBRANCH  16  19
ENDBRANCH   1  15
TORSDOF 5
ENDMDL
MODEL 7
REMARK VINA RESULT:      -7.6      2.104      9.645
REMARK  5 active torsions:
REMARK  status: ('A' for Active; 'I' for Inactive)
REMARK    1  A    between atoms: C_5  and  C_6 
REMARK    2  A    between atoms: C_9  and  O_10 
REMARK    3  A    between atoms: O_10  and  C_11 
REMARK    4  A    between atoms: C_11  and  C_12 
REMARK       I    between atoms: C_12  and  N_13 
REMARK    5  A    between atoms: N_13  and  C_14 
ROOT
HETATM    1  C   UNL     1      42.242 -12.177   5.135  1.00  0.00     0.278 C 
ENDROOT
BRANCH   1   2
HETATM    2  O   UNL     1      43.519 -11.829   5.663  1.00  0.00    -0.342 OA
BRANCH   2   3
HETATM    3  C   UNL     1      43.512 -11.132   6.843  1.00  0.00     0.069 A 
HETATM    4  C   UNL     1      44.495 -11.190   7.832  1.00  0.00     0.038 A 
HETATM    5  C   UNL     1      44.371 -10.425   8.998  1.00  0.00     0.018 A 
HETATM    6  C   UNL     1      43.265  -9.587   9.196  1.00  0.00     0.015 A 
HETATM    7  C   UNL     1      42.284  -9.531   8.198  1.00  0.00     0.018 A 
HETATM    8  C   UNL     1      42.409 -10.297   7.032  1.00  0.00     0.038 A 
BRANCH   6   9
HETATM    9  C   UNL     1      43.153  -8.797  10.415  1.00  0.00     0.198 A 
HETATM   10  N   UNL     1      43.756  -9.164  11.599  1.00  0.00    -0.136 NA
HETATM   11  N   UNL     1      43.459  -8.232  12.491  1.00  0.00     0.024 NA
HETATM   12  N   UNL     1      42.698  -7.356  11.821  1.00  0.00    -0.196 N 
HETATM   13  C   UNL     1      42.180  -6.167  12.441  1.00  0.00     0.200 C 
HETATM   14  N   UNL     1      42.467  -7.644  10.528  1.00  0.00    -0.137 NA
ENDBRANCH   6   9
ENDBRANCH   2   3
ENDBRANCH   1   2
BRANCH   1  15
HETATM   15  C   UNL     1      42.067 -13.685   4.933  1.00  0.00     0.246 C 
HETATM   16  N   UNL     1      43.050 -14.249   4.141  1.00  0.00    -0.325 N 
HETATM   17  H   UNL     1      43.742 -13.597   3.785  1.00  0.00     0.169 HD
HETATM   18  O   UNL     1      41.131 -14.270   5.471  1.00  0.00    -0.271 OA
BRANCH  16  19
HETATM   19  C   UNL     1      43.195 -15.604   3.776  1.00  0.00     0.036 A 
HETATM   20  C   UNL     1      43.621 -16.598   4.666  1.00  0.00     0.059 A 
HETATM   21  C   UNL     1      43.728 -17.913   4.189  1.00  0.00     0.044 A 
HETATM   22  C   UNL     1      43.431 -18.267   2.875  1.00  0.00    -0.008 A 
HETATM   23  N   UNL     1      44.116 -19.061   4.843  1.00  0.00    -0.365 N 
HETATM   24  C   UNL     1      43.006 -17.262   1.989  1.00  0.00     0.016 A 
HETATM   25  C   UNL     1      43.655 -19.667   2.759  1.00  0.00     0.030 A 
HETATM   26  C   UNL     1      42.892 -15.941   2.452  1.00  0.00     0.030 A 
HETATM   27  C   UNL     1      44.074 -20.129   3.985  1.00  0.00     0.089 A 
HETATM   28  H   UNL     1      44.389 -19.100   5.815  1.00  0.00     0.165 HD
ENDBRANCH  16  19
ENDBRANCH   1  15
TORSDOF 5
ENDMDL
MODEL 8
REMARK VINA RESULT:      -7.5      3.225      5.147
REMARK  5 active torsions:
REMARK  status: ('A' for Active; 'I' for Inactive)
REMARK    1  A    between atoms: C_5  and  C_6 
REMARK    2  A    between atoms: C_9  and  O_10 
REMARK    3  A    between atoms: O_10  and  C_11 
REMARK    4  A    between atoms: C_11  and  C_12 
REMARK       I    between atoms: C_12  and  N_13 
REMARK    5  A    between atoms: N_13  and  C_14 
ROOT
HETATM    1  C   UNL     1      44.215  -9.975   8.202  1.00  0.00     0.278 C 
ENDROOT
BRANCH   1   2
HETATM    2  O   UNL     1      43.044 -10.351   7.481  1.00  0.00    -0.342 OA
BRANCH   2   3
HETATM    3  C   UNL     1      43.087 -11.570   6.856  1.00  0.00     0.069 A 
HETATM    4  C   UNL     1      44.007 -12.587   7.112  1.00  0.00     0.038 A 
HETATM    5  C   UNL     1      43.945 -13.792   6.401  1.00  0.00     0.018 A 
HETATM    6  C   UNL     1      42.962 -14.002   5.424  1.00  0.00     0.015 A 
HETATM    7  C   UNL     1      42.039 -12.978   5.175  1.00  0.00     0.018 A 
HETATM    8  C   UNL     1      42.103 -11.773   5.886  1.00  0.00     0.038 A 
BRANCH   6   9
HETATM    9  C   UNL     1      42.910 -15.263   4.695  1.00  0.00     0.198 A 
HETATM   10  N   UNL     1      41.986 -15.511   3.702  1.00  0.00    -0.136 NA
HETATM   11  N   UNL     1      42.221 -16.733   3.251  1.00  0.00     0.024 NA
HETATM   12  N   UNL     1      43.259 -17.167   3.980  1.00  0.00    -0.196 N 
HETATM   13  C   UNL     1      43.840 -18.466   3.778  1.00  0.00     0.200 C 
HETATM   14  N   UNL     1      43.737 -16.306   4.895  1.00  0.00    -0.137 NA
ENDBRANCH   6   9
ENDBRANCH   2   3
ENDBRANCH   1   2
BRANCH   1  15
HETATM   15  C   UNL     1      44.026 -10.020   9.720  1.00  0.00     0.246 C 
HETATM   16  N   UNL     1      43.132  -9.075  10.189  1.00  0.00    -0.325 N 
HETATM   17  H   UNL     1      42.736  -8.468   9.478  1.00  0.00     0.169 HD
HETATM   18  O   UNL     1      44.627 -10.857  10.388  1.00  0.00    -0.271 OA
BRANCH  16  19
HETATM   19  C   UNL     1      42.720  -8.859  11.521  1.00  0.00     0.036 A 
HETATM   20  C   UNL     1      43.270  -7.867  12.343  1.00  0.00     0.059 A 
HETATM   21  C   UNL     1      42.780  -7.746  13.653  1.00  0.00     0.044 A 
HETATM   22  C   UNL     1      41.777  -8.566  14.164  1.00  0.00    -0.008 A 
HETATM   23  N   UNL     1      43.139  -6.868  14.652  1.00  0.00    -0.365 N 
HETATM   24  C   UNL     1      41.232  -9.559  13.331  1.00  0.00     0.016 A 
HETATM   25  C   UNL     1      41.545  -8.155  15.505  1.00  0.00     0.030 A 
HETATM   26  C   UNL     1      41.711  -9.692  12.017  1.00  0.00     0.030 A 
HETATM   27  C   UNL     1      42.396  -7.108  15.778  1.00  0.00     0.089 A 
HETATM   28  H   UNL     1      43.848  -6.155  14.558  1.00  0.00     0.165 HD
ENDBRANCH  16  19
ENDBRANCH   1  15
TORSDOF 5
ENDMDL
MODEL 9
REMARK VINA RESULT:      -7.5      3.009     10.380
REMARK  5 active torsions:
REMARK  status: ('A' for Active; 'I' for Inactive)
REMARK    1  A    between atoms: C_5  and  C_6 
REMARK    2  A    between atoms: C_9  and  O_10 
REMARK    3  A    between atoms: O_10  and  C_11 
REMARK    4  A    between atoms: C_11  and  C_12 
REMARK       I    between atoms: C_12  and  N_13 
REMARK    5  A    between atoms: N_13  and  C_14 
ROOT
HETATM    1  C   UNL     1      43.228 -10.654   7.282  1.00  0.00     0.278 C 
ENDROOT
BRANCH   1   2
HETATM    2  O   UNL     1      44.273 -10.134   8.100  1.00  0.00    -0.342 OA
BRANCH   2   3
HETATM    3  C   UNL     1      43.916  -9.765   9.370  1.00  0.00     0.069 A 
HETATM    4  C   UNL     1      43.680 -10.632  10.438  1.00  0.00     0.038 A 
HETATM    5  C   UNL     1      43.319 -10.127  11.693  1.00  0.00     0.018 A 
HETATM    6  C   UNL     1      43.190  -8.747  11.904  1.00  0.00     0.015 A 
HETATM    7  C   UNL     1      43.432  -7.882  10.830  1.00  0.00     0.018 A 
HETATM    8  C   UNL     1      43.793  -8.389   9.575  1.00  0.00     0.038 A 
BRANCH   6   9
HETATM    9  C   UNL     1      42.816  -8.238  13.218  1.00  0.00     0.198 A 
HETATM   10  N   UNL     1      43.370  -7.098  13.759  1.00  0.00    -0.136 NA
HETATM   11  N   UNL     1      42.808  -6.921  14.946  1.00  0.00     0.024 NA
HETATM   12  N   UNL     1      41.954  -7.946  15.070  1.00  0.00    -0.196 N 
HETATM   13  C   UNL     1      41.121  -8.106  16.230  1.00  0.00     0.200 C 
HETATM   14  N   UNL     1      41.907  -8.803  14.035  1.00  0.00    -0.137 NA
ENDBRANCH   6   9
ENDBRANCH   2   3
ENDBRANCH   1   2
BRANCH   1  15
HETATM   15  C   UNL     1      43.656 -11.877   6.467  1.00  0.00     0.246 C 
HETATM   16  N   UNL     1      42.786 -12.180   5.435  1.00  0.00    -0.325 N 
HETATM   17  H   UNL     1      41.976 -11.571   5.364  1.00  0.00     0.169 HD
HETATM   18  O   UNL     1      44.695 -12.468   6.748  1.00  0.00    -0.271 OA
BRANCH  16  19
HETATM   19  C   UNL     1      42.893 -13.222   4.491  1.00  0.00     0.036 A 
HETATM   20  C   UNL     1      42.668 -14.568   4.804  1.00  0.00     0.059 A 
HETATM   21  C   UNL     1      42.803 -15.519   3.782  1.00  0.00     0.044 A 
HETATM   22  C   UNL     1      43.151 -15.180   2.476  1.00  0.00    -0.008 A 
HETATM   23  N   UNL     1      42.640 -16.886   3.819  1.00  0.00    -0.365 N 
HETATM   24  C   UNL     1      43.376 -13.826   2.171  1.00  0.00     0.016 A 
HETATM   25  C   UNL     1      43.194 -16.389   1.728  1.00  0.00     0.030 A 
HETATM   26  C   UNL     1      43.242 -12.863   3.184  1.00  0.00     0.030 A 
HETATM   27  C   UNL     1      42.874 -17.422   2.579  1.00  0.00     0.089 A 
HETATM   28  H   UNL     1      42.384 -17.408   4.645  1.00  0.00     0.165 HD
ENDBRANCH  16  19
ENDBRANCH   1  15
TORSDOF 5
ENDMDL
MODEL 10
REMARK VINA RESULT:      -7.5      3.828      7.232
REMARK  5 active torsions:
REMARK  status: ('A' for Active; 'I' for Inactive)
REMARK    1  A    between atoms: C_5  and  C_6 
REMARK    2  A    between atoms: C_9  and  O_10 
REMARK    3  A    between atoms: O_10  and  C_11 
REMARK    4  A    between atoms: C_11  and  C_12 
REMARK       I    between atoms: C_12  and  N_13 
REMARK    5  A    between atoms: N_13  and  C_14 
ROOT
HETATM    1  C   UNL     1      41.257 -11.495   4.289  1.00  0.00     0.278 C 
ENDROOT
BRANCH   1   2
HETATM    2  O   UNL     1      41.018 -12.480   5.292  1.00  0.00    -0.342 OA
BRANCH   2   3
HETATM    3  C   UNL     1      41.646 -13.685   5.114  1.00  0.00     0.069 A 
HETATM    4  C   UNL     1      42.997 -13.944   5.350  1.00  0.00     0.038 A 
HETATM    5  C   UNL     1      43.520 -15.224   5.128  1.00  0.00     0.018 A 
HETATM    6  C   UNL     1      42.704 -16.267   4.669  1.00  0.00     0.015 A 
HETATM    7  C   UNL     1      41.348 -16.000   4.437  1.00  0.00     0.018 A 
HETATM    8  C   UNL     1      40.826 -14.720   4.659  1.00  0.00     0.038 A 
BRANCH   6   9
HETATM    9  C   UNL     1      43.264 -17.593   4.445  1.00  0.00     0.198 A 
HETATM   10  N   UNL     1      43.614 -18.051   3.193  1.00  0.00    -0.136 NA
HETATM   11  N   UNL     1      44.090 -19.277   3.348  1.00  0.00     0.024 NA
HETATM   12  N   UNL     1      44.007 -19.506   4.666  1.00  0.00    -0.196 N 
HETATM   13  C   UNL     1      44.452 -20.740   5.253  1.00  0.00     0.200 C 
HETATM   14  N   UNL     1      43.504 -18.503   5.407  1.00  0.00    -0.137 NA
ENDBRANCH   6   9
ENDBRANCH   2   3
ENDBRANCH   1   2
BRANCH   1  15
HETATM   15  C   UNL     1      40.444 -11.729   3.013  1.00  0.00     0.246 C 
HETATM   16  N   UNL     1      41.177 -12.312   1.995  1.00  0.00    -0.325 N 
HETATM   17  H   UNL     1      42.152 -12.491   2.216  1.00  0.00     0.169 HD
HETATM   18  O   UNL     1      39.255 -11.422   2.979  1.00  0.00    -0.271 OA
BRANCH  16  19
HETATM   19  C   UNL     1      40.732 -12.676   0.707  1.00  0.00     0.036 A 
HETATM   20  C   UNL     1      40.001 -13.842   0.448  1.00  0.00     0.059 A 
HETATM   21  C   UNL     1      39.612 -14.101  -0.875  1.00  0.00     0.044 A 
HETATM   22  C   UNL     1      39.922 -13.251  -1.933  1.00  0.00    -0.008 A 
HETATM   23  N   UNL     1      38.897 -15.156  -1.395  1.00  0.00    -0.365 N 
HETATM   24  C   UNL     1      40.658 -12.083  -1.664  1.00  0.00     0.016 A 
HETATM   25  C   UNL     1      39.372 -13.830  -3.110  1.00  0.00     0.030 A 
HETATM   26  C   UNL     1      41.052 -11.810  -0.344  1.00  0.00     0.030 A 
HETATM   27  C   UNL     1      38.746 -15.002  -2.749  1.00  0.00     0.089 A 
HETATM   28  H   UNL     1      38.539 -15.928  -0.850  1.00  0.00     0.165 HD
ENDBRANCH  16  19
ENDBRANCH   1  15
TORSDOF 5
ENDMDL
