MODEL 1
REMARK VINA RESULT:      -8.6      0.000      0.000
REMARK  3 active torsions:
REMARK  status: ('A' for Active; 'I' for Inactive)
REMARK    1  A    between atoms: C_2  and  C_3 
REMARK    2  A    between atoms: C_10  and  O_11 
REMARK    3  A    between atoms: C_10  and  C_12 
ROOT
HETATM    1  C   UNL     1      43.981 -20.164   3.995  1.00  0.00    -0.058 A 
HETATM    2  C   UNL     1      43.805 -18.771   4.021  1.00  0.00     0.020 A 
HETATM    3  C   UNL     1      43.564 -18.153   5.241  1.00  0.00     0.018 A 
HETATM    4  C   UNL     1      43.518 -18.907   6.414  1.00  0.00     0.045 A 
HETATM    5  N   UNL     1      43.283 -18.090   7.508  1.00  0.00    -0.323 N 
HETATM    6  C   UNL     1      43.153 -16.753   7.129  1.00  0.00     0.266 A 
HETATM    7  O   UNL     1      42.967 -15.835   7.915  1.00  0.00    -0.269 OA
HETATM    8  C   UNL     1      43.344 -16.688   5.566  1.00  0.00     0.198 A 
HETATM    9  C   UNL     1      43.691 -20.275   6.424  1.00  0.00     0.031 A 
HETATM   10  C   UNL     1      43.920 -20.904   5.196  1.00  0.00     0.009 A 
HETATM   11  H   UNL     1      43.206 -18.392   8.468  1.00  0.00     0.169 HD
ENDROOT
BRANCH   8  12
HETATM   12  O   UNL     1      44.492 -15.934   5.204  1.00  0.00    -0.371 OA
HETATM   13  H   UNL     1      45.261 -16.456   5.482  1.00  0.00     0.212 HD
ENDBRANCH   8  12
BRANCH   8  14
HETATM   14  C   UNL     1      42.083 -16.288   4.838  1.00  0.00     0.018 A 
HETATM   15  C   UNL     1      41.964 -15.874   3.460  1.00  0.00     0.002 A 
HETATM   16  C   UNL     1      40.613 -15.640   3.201  1.00  0.00     0.043 A 
HETATM   17  C   UNL     1      42.882 -15.686   2.404  1.00  0.00     0.014 A 
HETATM   18  C   UNL     1      40.136 -15.236   1.947  1.00  0.00     0.030 A 
HETATM   19  N   UNL     1      39.930 -15.877   4.367  1.00  0.00    -0.365 N 
HETATM   20  C   UNL     1      41.069 -15.061   0.921  1.00  0.00     0.002 A 
HETATM   21  C   UNL     1      42.424 -15.280   1.145  1.00  0.00     0.001 A 
HETATM   22  H   UNL     1      38.930 -15.777   4.474  1.00  0.00     0.165 HD
HETATM   23  C   UNL     1      40.793 -16.271   5.351  1.00  0.00     0.100 A 
ENDBRANCH   8  14
BRANCH   1  24
HETATM   24  C   UNL     1      44.192 -20.871   2.678  1.00  0.00     0.034 C 
HETATM   25  C   UNL     1      43.290 -20.308   1.589  1.00  0.00     0.010 C 
ENDBRANCH   1  24
TORSDOF 3
ENDMDL
MODEL 2
REMARK VINA RESULT:      -8.4      3.029      4.732
REMARK  3 active torsions:
REMARK  status: ('A' for Active; 'I' for Inactive)
REMARK    1  A    between atoms: C_2  and  C_3 
REMARK    2  A    between atoms: C_10  and  O_11 
REMARK    3  A    between atoms: C_10  and  C_12 
ROOT
HETATM    1  C   UNL     1      43.236 -17.579   2.871  1.00  0.00    -0.058 A 
HETATM    2  C   UNL     1      42.590 -17.042   3.996  1.00  0.00     0.020 A 
HETATM    3  C   UNL     1      41.815 -15.901   3.837  1.00  0.00     0.018 A 
HETATM    4  C   UNL     1      41.672 -15.317   2.577  1.00  0.00     0.045 A 
HETATM    5  N   UNL     1      40.848 -14.206   2.647  1.00  0.00    -0.323 N 
HETATM    6  C   UNL     1      40.401 -13.981   3.950  1.00  0.00     0.266 A 
HETATM    7  O   UNL     1      39.642 -13.076   4.267  1.00  0.00    -0.269 OA
HETATM    8  C   UNL     1      41.012 -15.116   4.857  1.00  0.00     0.198 A 
HETATM    9  C   UNL     1      42.289 -15.822   1.452  1.00  0.00     0.031 A 
HETATM   10  C   UNL     1      43.081 -16.963   1.609  1.00  0.00     0.009 A 
HETATM   11  H   UNL     1      40.588 -13.611   1.874  1.00  0.00     0.169 HD
ENDROOT
BRANCH   8  12
HETATM   12  O   UNL     1      40.004 -15.944   5.419  1.00  0.00    -0.371 OA
HETATM   13  H   UNL     1      40.449 -16.750   5.725  1.00  0.00     0.212 HD
ENDBRANCH   8  12
BRANCH   8  14
HETATM   14  C   UNL     1      42.014 -14.592   5.858  1.00  0.00     0.018 A 
HETATM   15  C   UNL     1      42.920 -13.482   5.688  1.00  0.00     0.002 A 
HETATM   16  C   UNL     1      43.629 -13.325   6.879  1.00  0.00     0.043 A 
HETATM   17  C   UNL     1      43.195 -12.586   4.632  1.00  0.00     0.014 A 
HETATM   18  C   UNL     1      44.590 -12.323   7.069  1.00  0.00     0.030 A 
HETATM   19  N   UNL     1      43.199 -14.305   7.739  1.00  0.00    -0.365 N 
HETATM   20  C   UNL     1      44.839 -11.451   6.006  1.00  0.00     0.002 A 
HETATM   21  C   UNL     1      44.154 -11.580   4.802  1.00  0.00     0.001 A 
HETATM   22  H   UNL     1      43.551 -14.436   8.677  1.00  0.00     0.165 HD
HETATM   23  C   UNL     1      42.230 -15.064   7.146  1.00  0.00     0.100 A 
ENDBRANCH   8  14
BRANCH   1  24
HETATM   24  C   UNL     1      44.128 -18.787   3.021  1.00  0.00     0.034 C 
HETATM   25  C   UNL     1      43.574 -19.990   2.271  1.00  0.00     0.010 C 
ENDBRANCH   1  24
TORSDOF 3
ENDMDL
MODEL 3
REMARK VINA RESULT:      -8.0      2.716      5.976
REMARK  3 active torsions:
REMARK  status: ('A' for Active; 'I' for Inactive)
REMARK    1  A    between atoms: C_2  and  C_3 
REMARK    2  A    between atoms: C_10  and  O_11 
REMARK    3  A    between atoms: C_10  and  C_12 
ROOT
HETATM    1  C   UNL     1      42.795 -12.680   6.026  1.00  0.00    -0.058 A 
HETATM    2  C   UNL     1      43.249 -13.677   5.147  1.00  0.00     0.020 A 
HETATM    3  C   UNL     1      42.326 -14.312   4.326  1.00  0.00     0.018 A 
HETATM    4  C   UNL     1      40.980 -13.948   4.368  1.00  0.00     0.045 A 
HETATM    5  N   UNL     1      40.246 -14.694   3.460  1.00  0.00    -0.323 N 
HETATM    6  C   UNL     1      41.054 -15.598   2.769  1.00  0.00     0.266 A 
HETATM    7  O   UNL     1      40.647 -16.351   1.896  1.00  0.00    -0.269 OA
HETATM    8  C   UNL     1      42.528 -15.404   3.293  1.00  0.00     0.198 A 
HETATM    9  C   UNL     1      40.502 -12.971   5.215  1.00  0.00     0.031 A 
HETATM   10  C   UNL     1      41.425 -12.338   6.054  1.00  0.00     0.009 A 
HETATM   11  H   UNL     1      39.253 -14.620   3.298  1.00  0.00     0.169 HD
ENDROOT
BRANCH   8  12
HETATM   12  O   UNL     1      43.397 -14.945   2.268  1.00  0.00    -0.371 OA
HETATM   13  H   UNL     1      43.398 -15.631   1.582  1.00  0.00     0.212 HD
ENDBRANCH   8  12
BRANCH   8  14
HETATM   14  C   UNL     1      43.043 -16.603   4.053  1.00  0.00     0.018 A 
HETATM   15  C   UNL     1      43.251 -17.937   3.543  1.00  0.00     0.002 A 
HETATM   16  C   UNL     1      43.777 -18.711   4.578  1.00  0.00     0.043 A 
HETATM   17  C   UNL     1      43.051 -18.557   2.291  1.00  0.00     0.014 A 
HETATM   18  C   UNL     1      44.115 -20.062   4.424  1.00  0.00     0.030 A 
HETATM   19  N   UNL     1      43.870 -17.901   5.683  1.00  0.00    -0.365 N 
HETATM   20  C   UNL     1      43.907 -20.646   3.173  1.00  0.00     0.002 A 
HETATM   21  C   UNL     1      43.381 -19.906   2.119  1.00  0.00     0.001 A 
HETATM   22  H   UNL     1      44.212 -18.203   6.585  1.00  0.00     0.165 HD
HETATM   23  C   UNL     1      43.442 -16.639   5.383  1.00  0.00     0.100 A 
ENDBRANCH   8  14
BRANCH   1  24
HETATM   24  C   UNL     1      43.764 -12.009   6.968  1.00  0.00     0.034 C 
HETATM   25  C   UNL     1      45.025 -11.557   6.246  1.00  0.00     0.010 C 
ENDBRANCH   1  24
TORSDOF 3
ENDMDL
MODEL 4
REMARK VINA RESULT:      -7.9      3.346      5.072
REMARK  3 active torsions:
REMARK  status: ('A' for Active; 'I' for Inactive)
REMARK    1  A    between atoms: C_2  and  C_3 
REMARK    2  A    between atoms: C_10  and  O_11 
REMARK    3  A    between atoms: C_10  and  C_12 
ROOT
HETATM    1  C   UNL     1      43.445 -17.594   4.057  1.00  0.00    -0.058 A 
HETATM    2  C   UNL     1      42.854 -16.383   4.453  1.00  0.00     0.020 A 
HETATM    3  C   UNL     1      41.964 -15.762   3.586  1.00  0.00     0.018 A 
HETATM    4  C   UNL     1      41.655 -16.346   2.357  1.00  0.00     0.045 A 
HETATM    5  N   UNL     1      40.739 -15.570   1.666  1.00  0.00    -0.323 N 
HETATM    6  C   UNL     1      40.391 -14.426   2.387  1.00  0.00     0.266 A 
HETATM    7  O   UNL     1      39.581 -13.595   2.002  1.00  0.00    -0.269 OA
HETATM    8  C   UNL     1      41.185 -14.471   3.748  1.00  0.00     0.198 A 
HETATM    9  C   UNL     1      42.213 -17.536   1.941  1.00  0.00     0.031 A 
HETATM   10  C   UNL     1      43.121 -18.159   2.803  1.00  0.00     0.009 A 
HETATM   11  H   UNL     1      40.356 -15.774   0.755  1.00  0.00     0.169 HD
ENDROOT
BRANCH   8  12
HETATM   12  O   UNL     1      40.313 -14.569   4.865  1.00  0.00    -0.371 OA
HETATM   13  H   UNL     1      39.417 -14.407   4.529  1.00  0.00     0.212 HD
ENDBRANCH   8  12
BRANCH   8  14
HETATM   14  C   UNL     1      42.218 -13.376   3.862  1.00  0.00     0.018 A 
HETATM   15  C   UNL     1      42.946 -12.981   5.043  1.00  0.00     0.002 A 
HETATM   16  C   UNL     1      43.825 -11.959   4.680  1.00  0.00     0.043 A 
HETATM   17  C   UNL     1      42.948 -13.407   6.389  1.00  0.00     0.014 A 
HETATM   18  C   UNL     1      44.701 -11.349   5.587  1.00  0.00     0.030 A 
HETATM   19  N   UNL     1      43.634 -11.717   3.343  1.00  0.00    -0.365 N 
HETATM   20  C   UNL     1      44.681 -11.794   6.911  1.00  0.00     0.002 A 
HETATM   21  C   UNL     1      43.816 -12.807   7.310  1.00  0.00     0.001 A 
HETATM   22  H   UNL     1      44.133 -11.017   2.812  1.00  0.00     0.165 HD
HETATM   23  C   UNL     1      42.683 -12.560   2.839  1.00  0.00     0.100 A 
ENDBRANCH   8  14
BRANCH   1  24
HETATM   24  C   UNL     1      44.456 -18.266   4.953  1.00  0.00     0.034 C 
HETATM   25  C   UNL     1      44.121 -19.734   5.175  1.00  0.00     0.010 C 
ENDBRANCH   1  24
TORSDOF 3
ENDMDL
MODEL 5
REMARK VINA RESULT:      -7.6     12.943     14.464
REMARK  3 active torsions:
REMARK  status: ('A' for Active; 'I' for Inactive)
REMARK    1  A    between atoms: C_2  and  C_3 
REMARK    2  A    between atoms: C_10  and  O_11 
REMARK    3  A    between atoms: C_10  and  C_12 
ROOT
HETATM    1  C   UNL     1      50.659 -30.735  -1.351  1.00  0.00    -0.058 A 
HETATM    2  C   UNL     1      49.503 -29.937  -1.363  1.00  0.00     0.020 A 
HETATM    3  C   UNL     1      48.942 -29.559  -0.151  1.00  0.00     0.018 A 
HETATM    4  C   UNL     1      49.532 -29.954   1.051  1.00  0.00     0.045 A 
HETATM    5  N   UNL     1      48.820 -29.455   2.129  1.00  0.00    -0.323 N 
HETATM    6  C   UNL     1      47.717 -28.707   1.712  1.00  0.00     0.266 A 
HETATM    7  O   UNL     1      46.947 -28.141   2.475  1.00  0.00    -0.269 OA
HETATM    8  C   UNL     1      47.719 -28.710   0.136  1.00  0.00     0.198 A 
HETATM    9  C   UNL     1      50.668 -30.733   1.098  1.00  0.00     0.031 A 
HETATM   10  C   UNL     1      51.229 -31.128  -0.121  1.00  0.00     0.009 A 
HETATM   11  H   UNL     1      49.042 -29.598   3.103  1.00  0.00     0.169 HD
ENDROOT
BRANCH   8  12
HETATM   12  O   UNL     1      47.900 -27.405  -0.395  1.00  0.00    -0.371 OA
HETATM   13  H   UNL     1      48.212 -27.521  -1.306  1.00  0.00     0.212 HD
ENDBRANCH   8  12
BRANCH   8  14
HETATM   14  C   UNL     1      46.547 -29.461  -0.450  1.00  0.00     0.018 A 
HETATM   15  C   UNL     1      45.852 -29.173  -1.681  1.00  0.00     0.002 A 
HETATM   16  C   UNL     1      44.867 -30.146  -1.852  1.00  0.00     0.043 A 
HETATM   17  C   UNL     1      45.977 -28.177  -2.675  1.00  0.00     0.014 A 
HETATM   18  C   UNL     1      44.009 -30.176  -2.961  1.00  0.00     0.030 A 
HETATM   19  N   UNL     1      44.933 -30.985  -0.768  1.00  0.00    -0.365 N 
HETATM   20  C   UNL     1      44.159 -29.179  -3.927  1.00  0.00     0.002 A 
HETATM   21  C   UNL     1      45.128 -28.191  -3.788  1.00  0.00     0.001 A 
HETATM   22  H   UNL     1      44.327 -31.780  -0.623  1.00  0.00     0.165 HD
HETATM   23  C   UNL     1      45.936 -30.593   0.073  1.00  0.00     0.100 A 
ENDBRANCH   8  14
BRANCH   1  24
HETATM   24  C   UNL     1      51.261 -31.206  -2.653  1.00  0.00     0.034 C 
HETATM   25  C   UNL     1      52.673 -31.739  -2.456  1.00  0.00     0.010 C 
ENDBRANCH   1  24
TORSDOF 3
ENDMDL
MODEL 6
REMARK VINA RESULT:      -7.6      3.502      5.238
REMARK  3 active torsions:
REMARK  status: ('A' for Active; 'I' for Inactive)
REMARK    1  A    between atoms: C_2  and  C_3 
REMARK    2  A    between atoms: C_10  and  O_11 
REMARK    3  A    between atoms: C_10  and  C_12 
ROOT
HETATM    1  C   UNL     1      42.800 -17.036   3.642  1.00  0.00    -0.058 A 
HETATM    2  C   UNL     1      41.671 -16.207   3.754  1.00  0.00     0.020 A 
HETATM    3  C   UNL     1      41.334 -15.393   2.682  1.00  0.00     0.018 A 
HETATM    4  C   UNL     1      42.096 -15.418   1.513  1.00  0.00     0.045 A 
HETATM    5  N   UNL     1      41.573 -14.545   0.573  1.00  0.00    -0.323 N 
HETATM    6  C   UNL     1      40.442 -13.886   1.060  1.00  0.00     0.266 A 
HETATM    7  O   UNL     1      39.786 -13.084   0.411  1.00  0.00    -0.269 OA
HETATM    8  C   UNL     1      40.185 -14.416   2.521  1.00  0.00     0.198 A 
HETATM    9  C   UNL     1      43.206 -16.222   1.369  1.00  0.00     0.031 A 
HETATM   10  C   UNL     1      43.559 -17.034   2.451  1.00  0.00     0.009 A 
HETATM   11  H   UNL     1      41.941 -14.380  -0.352  1.00  0.00     0.169 HD
ENDROOT
BRANCH   8  12
HETATM   12  O   UNL     1      38.947 -15.105   2.624  1.00  0.00    -0.371 OA
HETATM   13  H   UNL     1      38.252 -14.433   2.535  1.00  0.00     0.212 HD
ENDBRANCH   8  12
BRANCH   8  14
HETATM   14  C   UNL     1      40.394 -13.355   3.575  1.00  0.00     0.018 A 
HETATM   15  C   UNL     1      41.612 -12.638   3.863  1.00  0.00     0.002 A 
HETATM   16  C   UNL     1      41.339 -11.725   4.882  1.00  0.00     0.043 A 
HETATM   17  C   UNL     1      42.924 -12.672   3.342  1.00  0.00     0.014 A 
HETATM   18  C   UNL     1      42.302 -10.848   5.400  1.00  0.00     0.030 A 
HETATM   19  N   UNL     1      40.019 -11.884   5.225  1.00  0.00    -0.365 N 
HETATM   20  C   UNL     1      43.589 -10.905   4.862  1.00  0.00     0.002 A 
HETATM   21  C   UNL     1      43.900 -11.805   3.848  1.00  0.00     0.001 A 
HETATM   22  H   UNL     1      39.549 -11.355   5.946  1.00  0.00     0.165 HD
HETATM   23  C   UNL     1      39.441 -12.848   4.449  1.00  0.00     0.100 A 
ENDBRANCH   8  14
BRANCH   1  24
HETATM   24  C   UNL     1      43.223 -17.892   4.811  1.00  0.00     0.034 C 
HETATM   25  C   UNL     1      44.435 -18.747   4.469  1.00  0.00     0.010 C 
ENDBRANCH   1  24
TORSDOF 3
ENDMDL
MODEL 7
REMARK VINA RESULT:      -7.5      4.187      6.690
REMARK  3 active torsions:
REMARK  status: ('A' for Active; 'I' for Inactive)
REMARK    1  A    between atoms: C_2  and  C_3 
REMARK    2  A    between atoms: C_10  and  O_11 
REMARK    3  A    between atoms: C_10  and  C_12 
ROOT
HETATM    1  C   UNL     1      44.709 -11.039   6.907  1.00  0.00    -0.058 A 
HETATM    2  C   UNL     1      44.543 -11.992   5.889  1.00  0.00     0.020 A 
HETATM    3  C   UNL     1      43.266 -12.219   5.392  1.00  0.00     0.018 A 
HETATM    4  C   UNL     1      42.179 -11.498   5.888  1.00  0.00     0.045 A 
HETATM    5  N   UNL     1      41.012 -11.872   5.242  1.00  0.00    -0.323 N 
HETATM    6  C   UNL     1      41.250 -12.864   4.288  1.00  0.00     0.266 A 
HETATM    7  O   UNL     1      40.386 -13.342   3.568  1.00  0.00    -0.269 OA
HETATM    8  C   UNL     1      42.796 -13.169   4.307  1.00  0.00     0.198 A 
HETATM    9  C   UNL     1      42.309 -10.554   6.883  1.00  0.00     0.031 A 
HETATM   10  C   UNL     1      43.590 -10.330   7.397  1.00  0.00     0.009 A 
HETATM   11  H   UNL     1      40.091 -11.499   5.418  1.00  0.00     0.169 HD
ENDROOT
BRANCH   8  12
HETATM   12  O   UNL     1      43.416 -12.838   3.072  1.00  0.00    -0.371 OA
HETATM   13  H   UNL     1      43.762 -13.668   2.708  1.00  0.00     0.212 HD
ENDBRANCH   8  12
BRANCH   8  14
HETATM   14  C   UNL     1      43.114 -14.558   4.807  1.00  0.00     0.018 A 
HETATM   15  C   UNL     1      43.227 -15.764   4.023  1.00  0.00     0.002 A 
HETATM   16  C   UNL     1      43.575 -16.803   4.887  1.00  0.00     0.043 A 
HETATM   17  C   UNL     1      43.077 -16.067   2.652  1.00  0.00     0.014 A 
HETATM   18  C   UNL     1      43.783 -18.119   4.453  1.00  0.00     0.030 A 
HETATM   19  N   UNL     1      43.652 -16.271   6.150  1.00  0.00    -0.365 N 
HETATM   20  C   UNL     1      43.629 -18.387   3.091  1.00  0.00     0.002 A 
HETATM   21  C   UNL     1      43.279 -17.377   2.200  1.00  0.00     0.001 A 
HETATM   22  H   UNL     1      43.878 -16.801   6.980  1.00  0.00     0.165 HD
HETATM   23  C   UNL     1      43.386 -14.931   6.117  1.00  0.00     0.100 A 
ENDBRANCH   8  14
BRANCH   1  24
HETATM   24  C   UNL     1      46.075 -10.808   7.505  1.00  0.00     0.034 C 
HETATM   25  C   UNL     1      46.216  -9.394   8.051  1.00  0.00     0.010 C 
ENDBRANCH   1  24
TORSDOF 3
ENDMDL
MODEL 8
REMARK VINA RESULT:      -7.3      3.124      5.636
REMARK  3 active torsions:
REMARK  status: ('A' for Active; 'I' for Inactive)
REMARK    1  A    between atoms: C_2  and  C_3 
REMARK    2  A    between atoms: C_10  and  O_11 
REMARK    3  A    between atoms: C_10  and  C_12 
ROOT
HETATM    1  C   UNL     1      42.348 -11.246   4.749  1.00  0.00    -0.058 A 
HETATM    2  C   UNL     1      41.538 -12.393   4.732  1.00  0.00     0.020 A 
HETATM    3  C   UNL     1      41.821 -13.422   5.620  1.00  0.00     0.018 A 
HETATM    4  C   UNL     1      42.879 -13.301   6.522  1.00  0.00     0.045 A 
HETATM    5  N   UNL     1      42.969 -14.430   7.320  1.00  0.00    -0.323 N 
HETATM    6  C   UNL     1      41.986 -15.366   6.994  1.00  0.00     0.266 A 
HETATM    7  O   UNL     1      41.840 -16.434   7.573  1.00  0.00    -0.269 OA
HETATM    8  C   UNL     1      41.125 -14.753   5.826  1.00  0.00     0.198 A 
HETATM    9  C   UNL     1      43.690 -12.187   6.569  1.00  0.00     0.031 A 
HETATM   10  C   UNL     1      43.419 -11.154   5.666  1.00  0.00     0.009 A 
HETATM   11  H   UNL     1      43.648 -14.588   8.049  1.00  0.00     0.169 HD
ENDROOT
BRANCH   8  12
HETATM   12  O   UNL     1      39.776 -14.539   6.218  1.00  0.00    -0.371 OA
HETATM   13  H   UNL     1      39.276 -15.313   5.915  1.00  0.00     0.212 HD
ENDBRANCH   8  12
BRANCH   8  14
HETATM   14  C   UNL     1      41.280 -15.506   4.526  1.00  0.00     0.018 A 
HETATM   15  C   UNL     1      42.294 -16.478   4.195  1.00  0.00     0.002 A 
HETATM   16  C   UNL     1      42.030 -16.948   2.908  1.00  0.00     0.043 A 
HETATM   17  C   UNL     1      43.410 -17.010   4.876  1.00  0.00     0.014 A 
HETATM   18  C   UNL     1      42.816 -17.921   2.275  1.00  0.00     0.030 A 
HETATM   19  N   UNL     1      40.917 -16.285   2.455  1.00  0.00    -0.365 N 
HETATM   20  C   UNL     1      43.911 -18.430   2.976  1.00  0.00     0.002 A 
HETATM   21  C   UNL     1      44.208 -17.981   4.259  1.00  0.00     0.001 A 
HETATM   22  H   UNL     1      40.503 -16.421   1.543  1.00  0.00     0.165 HD
HETATM   23  C   UNL     1      40.455 -15.426   3.412  1.00  0.00     0.100 A 
ENDBRANCH   8  14
BRANCH   1  24
HETATM   24  C   UNL     1      42.099 -10.134   3.759  1.00  0.00     0.034 C 
HETATM   25  C   UNL     1      41.711 -10.678   2.392  1.00  0.00     0.010 C 
ENDBRANCH   1  24
TORSDOF 3
ENDMDL
MODEL 9
REMARK VINA RESULT:      -7.2      3.551      6.970
REMARK  3 active torsions:
REMARK  status: ('A' for Active; 'I' for Inactive)
REMARK    1  A    between atoms: C_2  and  C_3 
REMARK    2  A    between atoms: C_10  and  O_11 
REMARK    3  A    between atoms: C_10  and  C_12 
ROOT
HETATM    1  C   UNL     1      41.084 -10.813   3.874  1.00  0.00    -0.058 A 
HETATM    2  C   UNL     1      41.754 -11.942   3.374  1.00  0.00     0.020 A 
HETATM    3  C   UNL     1      41.001 -13.021   2.930  1.00  0.00     0.018 A 
HETATM    4  C   UNL     1      39.607 -12.968   2.966  1.00  0.00     0.045 A 
HETATM    5  N   UNL     1      39.062 -14.138   2.463  1.00  0.00    -0.323 N 
HETATM    6  C   UNL     1      40.056 -15.037   2.071  1.00  0.00     0.266 A 
HETATM    7  O   UNL     1      39.831 -16.130   1.571  1.00  0.00    -0.269 OA
HETATM    8  C   UNL     1      41.446 -14.348   2.346  1.00  0.00     0.198 A 
HETATM    9  C   UNL     1      38.918 -11.874   3.446  1.00  0.00     0.031 A 
HETATM   10  C   UNL     1      39.672 -10.790   3.907  1.00  0.00     0.009 A 
HETATM   11  H   UNL     1      38.079 -14.347   2.381  1.00  0.00     0.169 HD
ENDROOT
BRANCH   8  12
HETATM   12  O   UNL     1      42.174 -14.128   1.146  1.00  0.00    -0.371 OA
HETATM   13  H   UNL     1      42.305 -13.169   1.077  1.00  0.00     0.212 HD
ENDBRANCH   8  12
BRANCH   8  14
HETATM   14  C   UNL     1      42.236 -15.034   3.434  1.00  0.00     0.018 A 
HETATM   15  C   UNL     1      42.859 -16.335   3.374  1.00  0.00     0.002 A 
HETATM   16  C   UNL     1      43.517 -16.549   4.585  1.00  0.00     0.043 A 
HETATM   17  C   UNL     1      42.934 -17.348   2.393  1.00  0.00     0.014 A 
HETATM   18  C   UNL     1      44.244 -17.715   4.863  1.00  0.00     0.030 A 
HETATM   19  N   UNL     1      43.294 -15.444   5.368  1.00  0.00    -0.365 N 
HETATM   20  C   UNL     1      44.301 -18.697   3.872  1.00  0.00     0.002 A 
HETATM   21  C   UNL     1      43.654 -18.520   2.654  1.00  0.00     0.001 A 
HETATM   22  H   UNL     1      43.647 -15.329   6.308  1.00  0.00     0.165 HD
HETATM   23  C   UNL     1      42.538 -14.529   4.692  1.00  0.00     0.100 A 
ENDBRANCH   8  14
BRANCH   1  24
HETATM   24  C   UNL     1      41.875  -9.647   4.413  1.00  0.00     0.034 C 
HETATM   25  C   UNL     1      41.141  -8.329   4.208  1.00  0.00     0.010 C 
ENDBRANCH   1  24
TORSDOF 3
ENDMDL
MODEL 10
REMARK VINA RESULT:      -7.2      3.845      5.876
REMARK  3 active torsions:
REMARK  status: ('A' for Active; 'I' for Inactive)
REMARK    1  A    between atoms: C_2  and  C_3 
REMARK    2  A    between atoms: C_10  and  O_11 
REMARK    3  A    between atoms: C_10  and  C_12 
ROOT
HETATM    1  C   UNL     1      42.543 -16.496   4.232  1.00  0.00    -0.058 A 
HETATM    2  C   UNL     1      41.607 -15.462   4.065  1.00  0.00     0.020 A 
HETATM    3  C   UNL     1      41.353 -14.995   2.783  1.00  0.00     0.018 A 
HETATM    4  C   UNL     1      42.006 -15.559   1.686  1.00  0.00     0.045 A 
HETATM    5  N   UNL     1      41.592 -14.955   0.510  1.00  0.00    -0.323 N 
HETATM    6  C   UNL     1      40.649 -13.954   0.753  1.00  0.00     0.266 A 
HETATM    7  O   UNL     1      40.113 -13.292  -0.124  1.00  0.00    -0.269 OA
HETATM    8  C   UNL     1      40.406 -13.909   2.310  1.00  0.00     0.198 A 
HETATM    9  C   UNL     1      42.926 -16.577   1.814  1.00  0.00     0.031 A 
HETATM   10  C   UNL     1      43.196 -17.042   3.105  1.00  0.00     0.009 A 
HETATM   11  H   UNL     1      41.914 -15.183  -0.419  1.00  0.00     0.169 HD
ENDROOT
BRANCH   8  12
HETATM   12  O   UNL     1      39.069 -14.253   2.646  1.00  0.00    -0.371 OA
HETATM   13  H   UNL     1      39.024 -15.222   2.632  1.00  0.00     0.212 HD
ENDBRANCH   8  12
BRANCH   8  14
HETATM   14  C   UNL     1      40.894 -12.628   2.943  1.00  0.00     0.018 A 
HETATM   15  C   UNL     1      40.500 -12.078   4.218  1.00  0.00     0.002 A 
HETATM   16  C   UNL     1      41.232 -10.908   4.421  1.00  0.00     0.043 A 
HETATM   17  C   UNL     1      39.594 -12.474   5.225  1.00  0.00     0.014 A 
HETATM   18  C   UNL     1      41.108 -10.121   5.575  1.00  0.00     0.030 A 
HETATM   19  N   UNL     1      42.026 -10.729   3.316  1.00  0.00    -0.365 N 
HETATM   20  C   UNL     1      40.204 -10.540   6.554  1.00  0.00     0.002 A 
HETATM   21  C   UNL     1      39.454 -11.700   6.383  1.00  0.00     0.001 A 
HETATM   22  H   UNL     1      42.659  -9.952   3.187  1.00  0.00     0.165 HD
HETATM   23  C   UNL     1      41.841 -11.752   2.429  1.00  0.00     0.100 A 
ENDBRANCH   8  14
BRANCH   1  24
HETATM   24  C   UNL     1      42.880 -16.989   5.618  1.00  0.00     0.034 C 
HETATM   25  C   UNL     1      44.209 -16.429   6.104  1.00  0.00     0.010 C 
ENDBRANCH   1  24
TORSDOF 3
ENDMDL
