MODEL 1
REMARK VINA RESULT:      -8.5      0.000      0.000
REMARK  8 active torsions:
REMARK  status: ('A' for Active; 'I' for Inactive)
REMARK    1  A    between atoms: C_2  and  C_3 
REMARK    2  A    between atoms: C_3  and  C_4 
REMARK       I    between atoms: C_4  and  N_5 
REMARK    3  A    between atoms: N_8  and  C_9 
REMARK    4  A    between atoms: C_13  and  N_14 
REMARK    5  A    between atoms: N_14  and  C_15 
REMARK    6  A    between atoms: C_15  and  N_16 
REMARK       I    between atoms: N_16  and  C_17 
REMARK    7  A    between atoms: C_17  and  C_18 
REMARK    8  A    between atoms: C_21  and  O_22 
ROOT
HETATM    1  C   UNL     1      42.367 -11.592   5.272  1.00  0.00     0.052 A 
HETATM    2  C   UNL     1      41.318 -12.499   5.023  1.00  0.00     0.062 A 
HETATM    3 CL   UNL     1      40.195 -13.045   6.226  1.00  0.00    -0.082 Cl
HETATM    4  C   UNL     1      41.060 -12.974   3.723  1.00  0.00     0.055 A 
HETATM    5  C   UNL     1      41.820 -12.561   2.625  1.00  0.00     0.036 A 
HETATM    6  C   UNL     1      42.836 -11.643   2.843  1.00  0.00     0.032 A 
HETATM    7  C   UNL     1      43.110 -11.186   4.142  1.00  0.00     0.033 A 
ENDROOT
BRANCH   5   8
HETATM    8  N   UNL     1      41.425 -13.050   1.361  1.00  0.00    -0.333 N 
HETATM    9  H   UNL     1      41.557 -12.389   0.601  1.00  0.00     0.168 HD
BRANCH   8  10
HETATM   10  C   UNL     1      41.165 -14.294   0.915  1.00  0.00     0.179 C 
HETATM   11  S   UNL     1      39.861 -14.504  -0.120  1.00  0.00    -0.040 SA
BRANCH  10  12
HETATM   12  N   UNL     1      41.868 -15.398   1.262  1.00  0.00    -0.299 N 
HETATM   13  C   UNL     1      43.150 -15.393   1.801  1.00  0.00     0.257 C 
HETATM   14  O   UNL     1      44.098 -14.698   1.467  1.00  0.00    -0.267 OA
HETATM   15  H   UNL     1      41.255 -16.075   1.700  1.00  0.00     0.171 HD
BRANCH  13  16
HETATM   16  C   UNL     1      43.365 -16.448   2.822  1.00  0.00     0.032 A 
HETATM   17  C   UNL     1      43.612 -17.757   2.409  1.00  0.00     0.020 A 
HETATM   18  C   UNL     1      43.796 -18.756   3.367  1.00  0.00     0.038 A 
HETATM   19  C   UNL     1      43.770 -18.447   4.731  1.00  0.00     0.068 A 
HETATM   20  C   UNL     1      43.523 -17.133   5.139  1.00  0.00     0.038 A 
HETATM   21  C   UNL     1      43.321 -16.131   4.184  1.00  0.00     0.020 A 
BRANCH  19  22
HETATM   22  O   UNL     1      43.969 -19.506   5.572  1.00  0.00    -0.356 OA
HETATM   23  C   UNL     1      44.026 -20.786   4.951  1.00  0.00     0.210 C 
ENDBRANCH  19  22
ENDBRANCH  13  16
ENDBRANCH  10  12
ENDBRANCH   8  10
ENDBRANCH   5   8
BRANCH   1  24
HETATM   24  N   UNL     1      42.772 -11.067   6.507  1.00  0.00    -0.376 N 
HETATM   25  C   UNL     1      42.154  -9.851   7.060  1.00  0.00     0.143 C 
HETATM   26  C   UNL     1      42.402  -9.770   8.579  1.00  0.00     0.145 C 
HETATM   27  N   UNL     1      43.819  -9.928   8.942  1.00  0.00    -0.349 N 
HETATM   28  C   UNL     1      44.348  -9.494  10.157  1.00  0.00     0.219 C 
HETATM   29  C   UNL     1      44.509 -11.040   8.272  1.00  0.00     0.145 C 
HETATM   30  O   UNL     1      45.423  -9.916  10.584  1.00  0.00    -0.273 OA
HETATM   31  C   UNL     1      44.230 -11.118   6.759  1.00  0.00     0.143 C 
BRANCH  28  32
HETATM   32  C   UNL     1      43.538  -8.454  10.921  1.00  0.00     0.103 C 
BRANCH  32  33
HETATM   33  C   UNL     1      43.157  -8.885  12.338  1.00  0.00     0.005 C 
HETATM   34  C   UNL     1      43.105  -7.721  13.318  1.00  0.00     0.005 C 
ENDBRANCH  32  33
ENDBRANCH  28  32
ENDBRANCH   1  24
TORSDOF 8
ENDMDL
MODEL 2
REMARK VINA RESULT:      -8.2      2.974     10.640
REMARK  8 active torsions:
REMARK  status: ('A' for Active; 'I' for Inactive)
REMARK    1  A    between atoms: C_2  and  C_3 
REMARK    2  A    between atoms: C_3  and  C_4 
REMARK       I    between atoms: C_4  and  N_5 
REMARK    3  A    between atoms: N_8  and  C_9 
REMARK    4  A    between atoms: C_13  and  N_14 
REMARK    5  A    between atoms: N_14  and  C_15 
REMARK    6  A    between atoms: C_15  and  N_16 
REMARK       I    between atoms: N_16  and  C_17 
REMARK    7  A    between atoms: C_17  and  C_18 
REMARK    8  A    between atoms: C_21  and  O_22 
ROOT
HETATM    1  C   UNL     1      43.472 -12.802   6.222  1.00  0.00     0.052 A 
HETATM    2  C   UNL     1      42.372 -11.931   6.341  1.00  0.00     0.062 A 
HETATM    3 CL   UNL     1      40.760 -12.322   5.834  1.00  0.00    -0.082 Cl
HETATM    4  C   UNL     1      42.499 -10.678   6.969  1.00  0.00     0.055 A 
HETATM    5  C   UNL     1      43.714 -10.248   7.512  1.00  0.00     0.036 A 
HETATM    6  C   UNL     1      44.802 -11.104   7.436  1.00  0.00     0.032 A 
HETATM    7  C   UNL     1      44.682 -12.344   6.788  1.00  0.00     0.033 A 
ENDROOT
BRANCH   5   8
HETATM    8  N   UNL     1      43.705  -9.004   8.179  1.00  0.00    -0.333 N 
HETATM    9  H   UNL     1      44.469  -8.388   7.918  1.00  0.00     0.168 HD
BRANCH   8  10
HETATM   10  C   UNL     1      42.752  -8.363   8.883  1.00  0.00     0.179 C 
HETATM   11  S   UNL     1      42.010  -7.034   8.177  1.00  0.00    -0.040 SA
BRANCH  10  12
HETATM   12  N   UNL     1      42.364  -8.699  10.136  1.00  0.00    -0.299 N 
HETATM   13  C   UNL     1      43.212  -9.156  11.139  1.00  0.00     0.257 C 
HETATM   14  O   UNL     1      44.130  -9.954  11.036  1.00  0.00    -0.267 OA
HETATM   15  H   UNL     1      41.667  -8.045  10.470  1.00  0.00     0.171 HD
BRANCH  13  16
HETATM   16  C   UNL     1      42.843  -8.665  12.490  1.00  0.00     0.032 A 
HETATM   17  C   UNL     1      43.516  -7.566  13.025  1.00  0.00     0.020 A 
HETATM   18  C   UNL     1      43.185  -7.114  14.303  1.00  0.00     0.038 A 
HETATM   19  C   UNL     1      42.162  -7.729  15.033  1.00  0.00     0.068 A 
HETATM   20  C   UNL     1      41.491  -8.828  14.492  1.00  0.00     0.038 A 
HETATM   21  C   UNL     1      41.829  -9.298  13.219  1.00  0.00     0.020 A 
BRANCH  19  22
HETATM   22  O   UNL     1      41.924  -7.193  16.268  1.00  0.00    -0.356 OA
HETATM   23  C   UNL     1      40.894  -7.820  17.026  1.00  0.00     0.210 C 
ENDBRANCH  19  22
ENDBRANCH  13  16
ENDBRANCH  10  12
ENDBRANCH   8  10
ENDBRANCH   5   8
BRANCH   1  24
HETATM   24  N   UNL     1      43.513 -14.053   5.590  1.00  0.00    -0.376 N 
HETATM   25  C   UNL     1      42.807 -14.291   4.321  1.00  0.00     0.143 C 
HETATM   26  C   UNL     1      43.392 -15.526   3.609  1.00  0.00     0.145 C 
HETATM   27  N   UNL     1      43.461 -16.713   4.476  1.00  0.00    -0.349 N 
HETATM   28  C   UNL     1      43.552 -18.014   3.983  1.00  0.00     0.219 C 
HETATM   29  C   UNL     1      44.012 -16.468   5.817  1.00  0.00     0.145 C 
HETATM   30  O   UNL     1      43.939 -18.948   4.684  1.00  0.00    -0.273 OA
HETATM   31  C   UNL     1      43.432 -15.216   6.503  1.00  0.00     0.143 C 
BRANCH  28  32
HETATM   32  C   UNL     1      43.128 -18.225   2.534  1.00  0.00     0.103 C 
BRANCH  32  33
HETATM   33  C   UNL     1      42.707 -19.660   2.215  1.00  0.00     0.005 C 
HETATM   34  C   UNL     1      43.846 -20.503   1.657  1.00  0.00     0.005 C 
ENDBRANCH  32  33
ENDBRANCH  28  32
ENDBRANCH   1  24
TORSDOF 8
ENDMDL
MODEL 3
REMARK VINA RESULT:      -8.0      1.901      2.439
REMARK  8 active torsions:
REMARK  status: ('A' for Active; 'I' for Inactive)
REMARK    1  A    between atoms: C_2  and  C_3 
REMARK    2  A    between atoms: C_3  and  C_4 
REMARK       I    between atoms: C_4  and  N_5 
REMARK    3  A    between atoms: N_8  and  C_9 
REMARK    4  A    between atoms: C_13  and  N_14 
REMARK    5  A    between atoms: N_14  and  C_15 
REMARK    6  A    between atoms: C_15  and  N_16 
REMARK       I    between atoms: N_16  and  C_17 
REMARK    7  A    between atoms: C_17  and  C_18 
REMARK    8  A    between atoms: C_21  and  O_22 
ROOT
HETATM    1  C   UNL     1      40.389 -11.385   5.396  1.00  0.00     0.052 A 
HETATM    2  C   UNL     1      39.420 -11.153   4.400  1.00  0.00     0.062 A 
HETATM    3 CL   UNL     1      38.579  -9.651   4.188  1.00  0.00    -0.082 Cl
HETATM    4  C   UNL     1      39.120 -12.132   3.433  1.00  0.00     0.055 A 
HETATM    5  C   UNL     1      39.774 -13.367   3.411  1.00  0.00     0.036 A 
HETATM    6  C   UNL     1      40.755 -13.604   4.363  1.00  0.00     0.032 A 
HETATM    7  C   UNL     1      41.038 -12.637   5.340  1.00  0.00     0.033 A 
ENDROOT
BRANCH   5   8
HETATM    8  N   UNL     1      39.441 -14.243   2.355  1.00  0.00    -0.333 N 
HETATM    9  H   UNL     1      38.443 -14.363   2.215  1.00  0.00     0.168 HD
BRANCH   8  10
HETATM   10  C   UNL     1      40.162 -14.736   1.330  1.00  0.00     0.179 C 
HETATM   11  S   UNL     1      39.858 -14.138  -0.208  1.00  0.00    -0.040 SA
BRANCH  10  12
HETATM   12  N   UNL     1      41.102 -15.704   1.446  1.00  0.00    -0.299 N 
HETATM   13  C   UNL     1      42.412 -15.499   1.864  1.00  0.00     0.257 C 
HETATM   14  O   UNL     1      43.161 -14.584   1.554  1.00  0.00    -0.267 OA
HETATM   15  H   UNL     1      40.688 -16.544   1.832  1.00  0.00     0.171 HD
BRANCH  13  16
HETATM   16  C   UNL     1      42.947 -16.606   2.694  1.00  0.00     0.032 A 
HETATM   17  C   UNL     1      43.325 -16.350   4.013  1.00  0.00     0.020 A 
HETATM   18  C   UNL     1      43.846 -17.386   4.791  1.00  0.00     0.038 A 
HETATM   19  C   UNL     1      43.956 -18.680   4.272  1.00  0.00     0.068 A 
HETATM   20  C   UNL     1      43.574 -18.931   2.951  1.00  0.00     0.038 A 
HETATM   21  C   UNL     1      43.068 -17.894   2.160  1.00  0.00     0.020 A 
BRANCH  19  22
HETATM   22  O   UNL     1      44.473 -19.610   5.130  1.00  0.00    -0.356 OA
HETATM   23  C   UNL     1      44.128 -20.964   4.855  1.00  0.00     0.210 C 
ENDBRANCH  19  22
ENDBRANCH  13  16
ENDBRANCH  10  12
ENDBRANCH   8  10
ENDBRANCH   5   8
BRANCH   1  24
HETATM   24  N   UNL     1      40.764 -10.533   6.443  1.00  0.00    -0.376 N 
HETATM   25  C   UNL     1      42.136 -10.533   6.975  1.00  0.00     0.143 C 
HETATM   26  C   UNL     1      42.414  -9.220   7.734  1.00  0.00     0.145 C 
HETATM   27  N   UNL     1      41.390  -8.911   8.745  1.00  0.00    -0.349 N 
HETATM   28  C   UNL     1      41.612  -8.044   9.814  1.00  0.00     0.219 C 
HETATM   29  C   UNL     1      40.002  -9.064   8.286  1.00  0.00     0.145 C 
HETATM   30  O   UNL     1      40.683  -7.539  10.444  1.00  0.00    -0.273 OA
HETATM   31  C   UNL     1      39.750 -10.371   7.510  1.00  0.00     0.143 C 
BRANCH  28  32
HETATM   32  C   UNL     1      43.066  -7.766  10.177  1.00  0.00     0.103 C 
BRANCH  32  33
HETATM   33  C   UNL     1      43.584  -8.608  11.344  1.00  0.00     0.005 C 
HETATM   34  C   UNL     1      43.372  -7.941  12.697  1.00  0.00     0.005 C 
ENDBRANCH  32  33
ENDBRANCH  28  32
ENDBRANCH   1  24
TORSDOF 8
ENDMDL
MODEL 4
REMARK VINA RESULT:      -8.0      3.148     10.818
REMARK  8 active torsions:
REMARK  status: ('A' for Active; 'I' for Inactive)
REMARK    1  A    between atoms: C_2  and  C_3 
REMARK    2  A    between atoms: C_3  and  C_4 
REMARK       I    between atoms: C_4  and  N_5 
REMARK    3  A    between atoms: N_8  and  C_9 
REMARK    4  A    between atoms: C_13  and  N_14 
REMARK    5  A    between atoms: N_14  and  C_15 
REMARK    6  A    between atoms: C_15  and  N_16 
REMARK       I    between atoms: N_16  and  C_17 
REMARK    7  A    between atoms: C_17  and  C_18 
REMARK    8  A    between atoms: C_21  and  O_22 
ROOT
HETATM    1  C   UNL     1      43.137 -12.202   6.288  1.00  0.00     0.052 A 
HETATM    2  C   UNL     1      42.189 -11.160   6.328  1.00  0.00     0.062 A 
HETATM    3 CL   UNL     1      40.641 -11.218   5.548  1.00  0.00    -0.082 Cl
HETATM    4  C   UNL     1      42.415 -10.000   7.093  1.00  0.00     0.055 A 
HETATM    5  C   UNL     1      43.576  -9.835   7.853  1.00  0.00     0.036 A 
HETATM    6  C   UNL     1      44.507 -10.863   7.854  1.00  0.00     0.032 A 
HETATM    7  C   UNL     1      44.294 -12.010   7.073  1.00  0.00     0.033 A 
ENDROOT
BRANCH   5   8
HETATM    8  N   UNL     1      43.662  -8.663   8.634  1.00  0.00    -0.333 N 
HETATM    9  H   UNL     1      44.502  -8.116   8.472  1.00  0.00     0.168 HD
BRANCH   8  10
HETATM   10  C   UNL     1      42.742  -7.983   9.347  1.00  0.00     0.179 C 
HETATM   11  S   UNL     1      42.134  -6.561   8.698  1.00  0.00    -0.040 SA
BRANCH  10  12
HETATM   12  N   UNL     1      42.290  -8.353  10.569  1.00  0.00    -0.299 N 
HETATM   13  C   UNL     1      43.070  -8.913  11.574  1.00  0.00     0.257 C 
HETATM   14  O   UNL     1      43.938  -9.766  11.460  1.00  0.00    -0.267 OA
HETATM   15  H   UNL     1      41.625  -7.671  10.913  1.00  0.00     0.171 HD
BRANCH  13  16
HETATM   16  C   UNL     1      42.687  -8.465  12.936  1.00  0.00     0.032 A 
HETATM   17  C   UNL     1      43.344  -7.374  13.506  1.00  0.00     0.020 A 
HETATM   18  C   UNL     1      42.999  -6.962  14.795  1.00  0.00     0.038 A 
HETATM   19  C   UNL     1      41.979  -7.609  15.500  1.00  0.00     0.068 A 
HETATM   20  C   UNL     1      41.323  -8.699  14.923  1.00  0.00     0.038 A 
HETATM   21  C   UNL     1      41.675  -9.129  13.639  1.00  0.00     0.020 A 
BRANCH  19  22
HETATM   22  O   UNL     1      41.727  -7.111  16.747  1.00  0.00    -0.356 OA
HETATM   23  C   UNL     1      40.558  -7.612  17.388  1.00  0.00     0.210 C 
ENDBRANCH  19  22
ENDBRANCH  13  16
ENDBRANCH  10  12
ENDBRANCH   8  10
ENDBRANCH   5   8
BRANCH   1  24
HETATM   24  N   UNL     1      43.075 -13.389   5.545  1.00  0.00    -0.376 N 
HETATM   25  C   UNL     1      43.662 -14.639   6.053  1.00  0.00     0.143 C 
HETATM   26  C   UNL     1      43.051 -15.851   5.323  1.00  0.00     0.145 C 
HETATM   27  N   UNL     1      43.104 -15.728   3.857  1.00  0.00    -0.349 N 
HETATM   28  C   UNL     1      43.008 -16.821   2.996  1.00  0.00     0.219 C 
HETATM   29  C   UNL     1      42.678 -14.424   3.331  1.00  0.00     0.145 C 
HETATM   30  O   UNL     1      42.720 -16.686   1.807  1.00  0.00    -0.273 OA
HETATM   31  C   UNL     1      43.281 -13.225   4.088  1.00  0.00     0.143 C 
BRANCH  28  32
HETATM   32  C   UNL     1      43.296 -18.191   3.598  1.00  0.00     0.103 C 
BRANCH  32  33
HETATM   33  C   UNL     1      44.090 -19.117   2.676  1.00  0.00     0.005 C 
HETATM   34  C   UNL     1      43.233 -20.207   2.048  1.00  0.00     0.005 C 
ENDBRANCH  32  33
ENDBRANCH  28  32
ENDBRANCH   1  24
TORSDOF 8
ENDMDL
MODEL 5
REMARK VINA RESULT:      -7.9      2.496      3.716
REMARK  8 active torsions:
REMARK  status: ('A' for Active; 'I' for Inactive)
REMARK    1  A    between atoms: C_2  and  C_3 
REMARK    2  A    between atoms: C_3  and  C_4 
REMARK       I    between atoms: C_4  and  N_5 
REMARK    3  A    between atoms: N_8  and  C_9 
REMARK    4  A    between atoms: C_13  and  N_14 
REMARK    5  A    between atoms: N_14  and  C_15 
REMARK    6  A    between atoms: C_15  and  N_16 
REMARK       I    between atoms: N_16  and  C_17 
REMARK    7  A    between atoms: C_17  and  C_18 
REMARK    8  A    between atoms: C_21  and  O_22 
ROOT
HETATM    1  C   UNL     1      42.779  -9.707   8.185  1.00  0.00     0.052 A 
HETATM    2  C   UNL     1      43.821 -10.420   7.561  1.00  0.00     0.062 A 
HETATM    3 CL   UNL     1      45.384 -10.679   8.266  1.00  0.00    -0.082 Cl
HETATM    4  C   UNL     1      43.629 -11.053   6.318  1.00  0.00     0.055 A 
HETATM    5  C   UNL     1      42.398 -11.015   5.657  1.00  0.00     0.036 A 
HETATM    6  C   UNL     1      41.348 -10.347   6.269  1.00  0.00     0.032 A 
HETATM    7  C   UNL     1      41.546  -9.695   7.497  1.00  0.00     0.033 A 
ENDROOT
BRANCH   5   8
HETATM    8  N   UNL     1      42.302 -11.744   4.453  1.00  0.00    -0.333 N 
HETATM    9  H   UNL     1      42.760 -11.302   3.662  1.00  0.00     0.168 HD
BRANCH   8  10
HETATM   10  C   UNL     1      41.966 -13.023   4.195  1.00  0.00     0.179 C 
HETATM   11  S   UNL     1      40.335 -13.400   4.070  1.00  0.00    -0.040 SA
BRANCH  10  12
HETATM   12  N   UNL     1      42.851 -14.038   4.055  1.00  0.00    -0.299 N 
HETATM   13  C   UNL     1      43.199 -14.939   5.056  1.00  0.00     0.257 C 
HETATM   14  O   UNL     1      43.414 -14.700   6.235  1.00  0.00    -0.267 OA
HETATM   15  H   UNL     1      42.737 -14.475   3.148  1.00  0.00     0.171 HD
BRANCH  13  16
HETATM   16  C   UNL     1      43.427 -16.317   4.555  1.00  0.00     0.032 A 
HETATM   17  C   UNL     1      43.002 -16.656   3.270  1.00  0.00     0.020 A 
HETATM   18  C   UNL     1      43.198 -17.957   2.803  1.00  0.00     0.038 A 
HETATM   19  C   UNL     1      43.846 -18.908   3.597  1.00  0.00     0.068 A 
HETATM   20  C   UNL     1      44.271 -18.563   4.882  1.00  0.00     0.038 A 
HETATM   21  C   UNL     1      44.063 -17.266   5.364  1.00  0.00     0.020 A 
BRANCH  19  22
HETATM   22  O   UNL     1      43.986 -20.143   3.029  1.00  0.00    -0.356 OA
HETATM   23  C   UNL     1      43.273 -20.349   1.813  1.00  0.00     0.210 C 
ENDBRANCH  19  22
ENDBRANCH  13  16
ENDBRANCH  10  12
ENDBRANCH   8  10
ENDBRANCH   5   8
BRANCH   1  24
HETATM   24  N   UNL     1      42.829  -8.993   9.390  1.00  0.00    -0.376 N 
HETATM   25  C   UNL     1      42.957  -9.684  10.683  1.00  0.00     0.143 C 
HETATM   26  C   UNL     1      43.476  -8.709  11.759  1.00  0.00     0.145 C 
HETATM   27  N   UNL     1      42.697  -7.463  11.832  1.00  0.00    -0.349 N 
HETATM   28  C   UNL     1      42.691  -6.632  12.951  1.00  0.00     0.219 C 
HETATM   29  C   UNL     1      42.410  -6.837  10.534  1.00  0.00     0.145 C 
HETATM   30  O   UNL     1      42.322  -5.459  12.887  1.00  0.00    -0.273 OA
HETATM   31  C   UNL     1      41.915  -7.830   9.465  1.00  0.00     0.143 C 
BRANCH  28  32
HETATM   32  C   UNL     1      43.147  -7.254  14.266  1.00  0.00     0.103 C 
BRANCH  32  33
HETATM   33  C   UNL     1      42.006  -7.550  15.240  1.00  0.00     0.005 C 
HETATM   34  C   UNL     1      42.072  -6.706  16.505  1.00  0.00     0.005 C 
ENDBRANCH  32  33
ENDBRANCH  28  32
ENDBRANCH   1  24
TORSDOF 8
ENDMDL
MODEL 6
REMARK VINA RESULT:      -7.9      3.690     10.866
REMARK  8 active torsions:
REMARK  status: ('A' for Active; 'I' for Inactive)
REMARK    1  A    between atoms: C_2  and  C_3 
REMARK    2  A    between atoms: C_3  and  C_4 
REMARK       I    between atoms: C_4  and  N_5 
REMARK    3  A    between atoms: N_8  and  C_9 
REMARK    4  A    between atoms: C_13  and  N_14 
REMARK    5  A    between atoms: N_14  and  C_15 
REMARK    6  A    between atoms: C_15  and  N_16 
REMARK       I    between atoms: N_16  and  C_17 
REMARK    7  A    between atoms: C_17  and  C_18 
REMARK    8  A    between atoms: C_21  and  O_22 
ROOT
HETATM    1  C   UNL     1      42.472 -12.861   4.670  1.00  0.00     0.052 A 
HETATM    2  C   UNL     1      43.084 -13.669   5.648  1.00  0.00     0.062 A 
HETATM    3 CL   UNL     1      43.408 -15.362   5.452  1.00  0.00    -0.082 Cl
HETATM    4  C   UNL     1      43.557 -13.119   6.855  1.00  0.00     0.055 A 
HETATM    5  C   UNL     1      43.452 -11.753   7.131  1.00  0.00     0.036 A 
HETATM    6  C   UNL     1      42.883 -10.934   6.168  1.00  0.00     0.032 A 
HETATM    7  C   UNL     1      42.390 -11.485   4.974  1.00  0.00     0.033 A 
ENDROOT
BRANCH   5   8
HETATM    8  N   UNL     1      44.023 -11.305   8.342  1.00  0.00    -0.333 N 
HETATM    9  H   UNL     1      44.832 -11.840   8.642  1.00  0.00     0.168 HD
BRANCH   8  10
HETATM   10  C   UNL     1      43.885 -10.159   9.035  1.00  0.00     0.179 C 
HETATM   11  S   UNL     1      44.797  -8.833   8.559  1.00  0.00    -0.040 SA
BRANCH  10  12
HETATM   12  N   UNL     1      43.078 -10.004  10.112  1.00  0.00    -0.299 N 
HETATM   13  C   UNL     1      43.385 -10.412  11.405  1.00  0.00     0.257 C 
HETATM   14  O   UNL     1      43.918 -11.455  11.753  1.00  0.00    -0.267 OA
HETATM   15  H   UNL     1      42.624  -9.099  10.077  1.00  0.00     0.171 HD
BRANCH  13  16
HETATM   16  C   UNL     1      42.887  -9.484  12.450  1.00  0.00     0.032 A 
HETATM   17  C   UNL     1      43.526  -8.258  12.636  1.00  0.00     0.020 A 
HETATM   18  C   UNL     1      43.072  -7.391  13.631  1.00  0.00     0.038 A 
HETATM   19  C   UNL     1      41.962  -7.725  14.414  1.00  0.00     0.068 A 
HETATM   20  C   UNL     1      41.325  -8.953  14.223  1.00  0.00     0.038 A 
HETATM   21  C   UNL     1      41.785  -9.835  13.240  1.00  0.00     0.020 A 
BRANCH  19  22
HETATM   22  O   UNL     1      41.608  -6.794  15.350  1.00  0.00    -0.356 OA
HETATM   23  C   UNL     1      40.248  -6.829  15.773  1.00  0.00     0.210 C 
ENDBRANCH  19  22
ENDBRANCH  13  16
ENDBRANCH  10  12
ENDBRANCH   8  10
ENDBRANCH   5   8
BRANCH   1  24
HETATM   24  N   UNL     1      41.917 -13.265   3.448  1.00  0.00    -0.376 N 
HETATM   25  C   UNL     1      41.703 -12.307   2.352  1.00  0.00     0.143 C 
HETATM   26  C   UNL     1      41.562 -13.053   1.010  1.00  0.00     0.145 C 
HETATM   27  N   UNL     1      40.563 -14.133   1.053  1.00  0.00    -0.349 N 
HETATM   28  C   UNL     1      39.964 -14.663  -0.089  1.00  0.00     0.219 C 
HETATM   29  C   UNL     1      40.649 -15.009   2.230  1.00  0.00     0.145 C 
HETATM   30  O   UNL     1      39.401 -15.758  -0.078  1.00  0.00    -0.273 OA
HETATM   31  C   UNL     1      40.813 -14.246   3.558  1.00  0.00     0.143 C 
BRANCH  28  32
HETATM   32  C   UNL     1      40.023 -13.808  -1.350  1.00  0.00     0.103 C 
BRANCH  32  33
HETATM   33  C   UNL     1      39.506 -14.516  -2.603  1.00  0.00     0.005 C 
HETATM   34  C   UNL     1      38.179 -13.955  -3.097  1.00  0.00     0.005 C 
ENDBRANCH  32  33
ENDBRANCH  28  32
ENDBRANCH   1  24
TORSDOF 8
ENDMDL
MODEL 7
REMARK VINA RESULT:      -7.5      4.241      8.129
REMARK  8 active torsions:
REMARK  status: ('A' for Active; 'I' for Inactive)
REMARK    1  A    between atoms: C_2  and  C_3 
REMARK    2  A    between atoms: C_3  and  C_4 
REMARK       I    between atoms: C_4  and  N_5 
REMARK    3  A    between atoms: N_8  and  C_9 
REMARK    4  A    between atoms: C_13  and  N_14 
REMARK    5  A    between atoms: N_14  and  C_15 
REMARK    6  A    between atoms: C_15  and  N_16 
REMARK       I    between atoms: N_16  and  C_17 
REMARK    7  A    between atoms: C_17  and  C_18 
REMARK    8  A    between atoms: C_21  and  O_22 
ROOT
HETATM    1  C   UNL     1      39.593 -12.260   2.892  1.00  0.00     0.052 A 
HETATM    2  C   UNL     1      39.993 -13.559   3.263  1.00  0.00     0.062 A 
HETATM    3 CL   UNL     1      39.764 -14.969   2.279  1.00  0.00    -0.082 Cl
HETATM    4  C   UNL     1      40.696 -13.790   4.461  1.00  0.00     0.055 A 
HETATM    5  C   UNL     1      41.039 -12.746   5.325  1.00  0.00     0.036 A 
HETATM    6  C   UNL     1      40.683 -11.455   4.962  1.00  0.00     0.032 A 
HETATM    7  C   UNL     1      39.962 -11.227   3.780  1.00  0.00     0.033 A 
ENDROOT
BRANCH   5   8
HETATM    8  N   UNL     1      41.804 -13.088   6.461  1.00  0.00    -0.333 N 
HETATM    9  H   UNL     1      41.251 -13.316   7.281  1.00  0.00     0.168 HD
BRANCH   8  10
HETATM   10  C   UNL     1      43.098 -13.434   6.607  1.00  0.00     0.179 C 
HETATM   11  S   UNL     1      44.197 -12.227   6.997  1.00  0.00    -0.040 SA
BRANCH  10  12
HETATM   12  N   UNL     1      43.583 -14.686   6.437  1.00  0.00    -0.299 N 
HETATM   13  C   UNL     1      42.847 -15.856   6.592  1.00  0.00     0.257 C 
HETATM   14  O   UNL     1      42.034 -16.117   7.466  1.00  0.00    -0.267 OA
HETATM   15  H   UNL     1      44.206 -14.710   5.638  1.00  0.00     0.171 HD
BRANCH  13  16
HETATM   16  C   UNL     1      43.213 -16.916   5.620  1.00  0.00     0.032 A 
HETATM   17  C   UNL     1      43.149 -16.641   4.254  1.00  0.00     0.020 A 
HETATM   18  C   UNL     1      43.474 -17.642   3.337  1.00  0.00     0.038 A 
HETATM   19  C   UNL     1      43.896 -18.900   3.776  1.00  0.00     0.068 A 
HETATM   20  C   UNL     1      43.960 -19.170   5.146  1.00  0.00     0.038 A 
HETATM   21  C   UNL     1      43.619 -18.177   6.071  1.00  0.00     0.020 A 
BRANCH  19  22
HETATM   22  O   UNL     1      44.194 -19.794   2.786  1.00  0.00    -0.356 OA
HETATM   23  C   UNL     1      43.119 -20.129   1.912  1.00  0.00     0.210 C 
ENDBRANCH  19  22
ENDBRANCH  13  16
ENDBRANCH  10  12
ENDBRANCH   8  10
ENDBRANCH   5   8
BRANCH   1  24
HETATM   24  N   UNL     1      38.856 -11.880   1.762  1.00  0.00    -0.376 N 
HETATM   25  C   UNL     1      39.424 -11.982   0.409  1.00  0.00     0.143 C 
HETATM   26  C   UNL     1      38.298 -11.985  -0.644  1.00  0.00     0.145 C 
HETATM   27  N   UNL     1      37.356 -10.865  -0.483  1.00  0.00    -0.349 N 
HETATM   28  C   UNL     1      36.528 -10.412  -1.510  1.00  0.00     0.219 C 
HETATM   29  C   UNL     1      36.899 -10.635   0.894  1.00  0.00     0.145 C 
HETATM   30  O   UNL     1      35.533  -9.724  -1.284  1.00  0.00    -0.273 OA
HETATM   31  C   UNL     1      38.035 -10.660   1.934  1.00  0.00     0.143 C 
BRANCH  28  32
HETATM   32  C   UNL     1      36.928 -10.797  -2.929  1.00  0.00     0.103 C 
BRANCH  32  33
HETATM   33  C   UNL     1      37.519  -9.643  -3.740  1.00  0.00     0.005 C 
HETATM   34  C   UNL     1      38.808  -9.096  -3.142  1.00  0.00     0.005 C 
ENDBRANCH  32  33
ENDBRANCH  28  32
ENDBRANCH   1  24
TORSDOF 8
ENDMDL
MODEL 8
REMARK VINA RESULT:      -7.5      4.672      8.176
REMARK  8 active torsions:
REMARK  status: ('A' for Active; 'I' for Inactive)
REMARK    1  A    between atoms: C_2  and  C_3 
REMARK    2  A    between atoms: C_3  and  C_4 
REMARK       I    between atoms: C_4  and  N_5 
REMARK    3  A    between atoms: N_8  and  C_9 
REMARK    4  A    between atoms: C_13  and  N_14 
REMARK    5  A    between atoms: N_14  and  C_15 
REMARK    6  A    between atoms: C_15  and  N_16 
REMARK       I    between atoms: N_16  and  C_17 
REMARK    7  A    between atoms: C_17  and  C_18 
REMARK    8  A    between atoms: C_21  and  O_22 
ROOT
HETATM    1  C   UNL     1      41.645 -13.301   3.877  1.00  0.00     0.052 A 
HETATM    2  C   UNL     1      42.260 -12.038   3.979  1.00  0.00     0.062 A 
HETATM    3 CL   UNL     1      43.935 -11.796   4.359  1.00  0.00    -0.082 Cl
HETATM    4  C   UNL     1      41.550 -10.856   3.692  1.00  0.00     0.055 A 
HETATM    5  C   UNL     1      40.213 -10.883   3.285  1.00  0.00     0.036 A 
HETATM    6  C   UNL     1      39.597 -12.118   3.146  1.00  0.00     0.032 A 
HETATM    7  C   UNL     1      40.298 -13.295   3.454  1.00  0.00     0.033 A 
ENDROOT
BRANCH   5   8
HETATM    8  N   UNL     1      39.624  -9.643   2.958  1.00  0.00    -0.333 N 
HETATM    9  H   UNL     1      39.225  -9.151   3.751  1.00  0.00     0.168 HD
BRANCH   8  10
HETATM   10  C   UNL     1      39.720  -8.857   1.868  1.00  0.00     0.179 C 
HETATM   11  S   UNL     1      39.748  -7.195   2.094  1.00  0.00    -0.040 SA
BRANCH  10  12
HETATM   12  N   UNL     1      39.770  -9.312   0.594  1.00  0.00    -0.299 N 
HETATM   13  C   UNL     1      40.845  -9.990   0.029  1.00  0.00     0.257 C 
HETATM   14  O   UNL     1      42.035  -9.743   0.158  1.00  0.00    -0.267 OA
HETATM   15  H   UNL     1      38.872  -9.699   0.328  1.00  0.00     0.171 HD
BRANCH  13  16
HETATM   16  C   UNL     1      40.438 -11.059  -0.916  1.00  0.00     0.032 A 
HETATM   17  C   UNL     1      41.277 -11.384  -1.983  1.00  0.00     0.020 A 
HETATM   18  C   UNL     1      40.888 -12.376  -2.884  1.00  0.00     0.038 A 
HETATM   19  C   UNL     1      39.685 -13.067  -2.706  1.00  0.00     0.068 A 
HETATM   20  C   UNL     1      38.849 -12.738  -1.636  1.00  0.00     0.038 A 
HETATM   21  C   UNL     1      39.225 -11.734  -0.738  1.00  0.00     0.020 A 
BRANCH  19  22
HETATM   22  O   UNL     1      39.416 -14.020  -3.649  1.00  0.00    -0.356 OA
HETATM   23  C   UNL     1      38.204 -14.746  -3.466  1.00  0.00     0.210 C 
ENDBRANCH  19  22
ENDBRANCH  13  16
ENDBRANCH  10  12
ENDBRANCH   8  10
ENDBRANCH   5   8
BRANCH   1  24
HETATM   24  N   UNL     1      42.203 -14.553   4.168  1.00  0.00    -0.376 N 
HETATM   25  C   UNL     1      42.728 -15.422   3.103  1.00  0.00     0.143 C 
HETATM   26  C   UNL     1      43.698 -16.464   3.694  1.00  0.00     0.145 C 
HETATM   27  N   UNL     1      43.126 -17.205   4.830  1.00  0.00    -0.349 N 
HETATM   28  C   UNL     1      43.613 -18.439   5.258  1.00  0.00     0.219 C 
HETATM   29  C   UNL     1      42.446 -16.372   5.832  1.00  0.00     0.145 C 
HETATM   30  O   UNL     1      43.363 -18.882   6.379  1.00  0.00    -0.273 OA
HETATM   31  C   UNL     1      41.499 -15.321   5.220  1.00  0.00     0.143 C 
BRANCH  28  32
HETATM   32  C   UNL     1      44.457 -19.223   4.260  1.00  0.00     0.103 C 
BRANCH  32  33
HETATM   33  C   UNL     1      43.722 -20.402   3.619  1.00  0.00     0.005 C 
HETATM   34  C   UNL     1      43.433 -20.189   2.140  1.00  0.00     0.005 C 
ENDBRANCH  32  33
ENDBRANCH  28  32
ENDBRANCH   1  24
TORSDOF 8
ENDMDL
MODEL 9
REMARK VINA RESULT:      -7.3      3.156     10.127
REMARK  8 active torsions:
REMARK  status: ('A' for Active; 'I' for Inactive)
REMARK    1  A    between atoms: C_2  and  C_3 
REMARK    2  A    between atoms: C_3  and  C_4 
REMARK       I    between atoms: C_4  and  N_5 
REMARK    3  A    between atoms: N_8  and  C_9 
REMARK    4  A    between atoms: C_13  and  N_14 
REMARK    5  A    between atoms: N_14  and  C_15 
REMARK    6  A    between atoms: C_15  and  N_16 
REMARK       I    between atoms: N_16  and  C_17 
REMARK    7  A    between atoms: C_17  and  C_18 
REMARK    8  A    between atoms: C_21  and  O_22 
ROOT
HETATM    1  C   UNL     1      41.821 -12.821   5.541  1.00  0.00     0.052 A 
HETATM    2  C   UNL     1      42.501 -11.588   5.584  1.00  0.00     0.062 A 
HETATM    3 CL   UNL     1      44.093 -11.329   4.947  1.00  0.00    -0.082 Cl
HETATM    4  C   UNL     1      41.880 -10.431   6.093  1.00  0.00     0.055 A 
HETATM    5  C   UNL     1      40.564 -10.451   6.564  1.00  0.00     0.036 A 
HETATM    6  C   UNL     1      39.865 -11.647   6.500  1.00  0.00     0.032 A 
HETATM    7  C   UNL     1      40.491 -12.806   6.015  1.00  0.00     0.033 A 
ENDROOT
BRANCH   5   8
HETATM    8  N   UNL     1      40.023  -9.217   6.986  1.00  0.00    -0.333 N 
HETATM    9  H   UNL     1      39.267  -8.875   6.401  1.00  0.00     0.168 HD
BRANCH   8  10
HETATM   10  C   UNL     1      40.118  -8.539   8.145  1.00  0.00     0.179 C 
HETATM   11  S   UNL     1      39.874  -6.879   8.110  1.00  0.00    -0.040 SA
BRANCH  10  12
HETATM   12  N   UNL     1      40.423  -9.097   9.341  1.00  0.00    -0.299 N 
HETATM   13  C   UNL     1      41.706  -9.208   9.866  1.00  0.00     0.257 C 
HETATM   14  O   UNL     1      42.730  -9.519   9.278  1.00  0.00    -0.267 OA
HETATM   15  H   UNL     1      39.730  -8.836  10.032  1.00  0.00     0.171 HD
BRANCH  13  16
HETATM   16  C   UNL     1      41.758  -9.023  11.338  1.00  0.00     0.032 A 
HETATM   17  C   UNL     1      42.752  -8.215  11.889  1.00  0.00     0.020 A 
HETATM   18  C   UNL     1      42.815  -8.053  13.274  1.00  0.00     0.038 A 
HETATM   19  C   UNL     1      41.871  -8.664  14.106  1.00  0.00     0.068 A 
HETATM   20  C   UNL     1      40.876  -9.471  13.548  1.00  0.00     0.038 A 
HETATM   21  C   UNL     1      40.817  -9.651  12.162  1.00  0.00     0.020 A 
BRANCH  19  22
HETATM   22  O   UNL     1      42.032  -8.426  15.443  1.00  0.00    -0.356 OA
HETATM   23  C   UNL     1      40.950  -7.761  16.087  1.00  0.00     0.210 C 
ENDBRANCH  19  22
ENDBRANCH  13  16
ENDBRANCH  10  12
ENDBRANCH   8  10
ENDBRANCH   5   8
BRANCH   1  24
HETATM   24  N   UNL     1      42.316 -14.059   5.107  1.00  0.00    -0.376 N 
HETATM   25  C   UNL     1      41.746 -14.741   3.934  1.00  0.00     0.143 C 
HETATM   26  C   UNL     1      42.743 -15.781   3.386  1.00  0.00     0.145 C 
HETATM   27  N   UNL     1      43.240 -16.704   4.420  1.00  0.00    -0.349 N 
HETATM   28  C   UNL     1      43.799 -17.947   4.127  1.00  0.00     0.219 C 
HETATM   29  C   UNL     1      43.662 -16.059   5.671  1.00  0.00     0.145 C 
HETATM   30  O   UNL     1      44.501 -18.550   4.939  1.00  0.00    -0.273 OA
HETATM   31  C   UNL     1      42.664 -15.006   6.190  1.00  0.00     0.143 C 
BRANCH  28  32
HETATM   32  C   UNL     1      43.483 -18.531   2.755  1.00  0.00     0.103 C 
BRANCH  32  33
HETATM   33  C   UNL     1      43.470 -20.060   2.722  1.00  0.00     0.005 C 
HETATM   34  C   UNL     1      43.580 -20.625   1.312  1.00  0.00     0.005 C 
ENDBRANCH  32  33
ENDBRANCH  28  32
ENDBRANCH   1  24
TORSDOF 8
ENDMDL
MODEL 10
REMARK VINA RESULT:      -7.3      4.019     11.014
REMARK  8 active torsions:
REMARK  status: ('A' for Active; 'I' for Inactive)
REMARK    1  A    between atoms: C_2  and  C_3 
REMARK    2  A    between atoms: C_3  and  C_4 
REMARK       I    between atoms: C_4  and  N_5 
REMARK    3  A    between atoms: N_8  and  C_9 
REMARK    4  A    between atoms: C_13  and  N_14 
REMARK    5  A    between atoms: N_14  and  C_15 
REMARK    6  A    between atoms: C_15  and  N_16 
REMARK       I    between atoms: N_16  and  C_17 
REMARK    7  A    between atoms: C_17  and  C_18 
REMARK    8  A    between atoms: C_21  and  O_22 
ROOT
HETATM    1  C   UNL     1      42.960 -12.280   6.328  1.00  0.00     0.052 A 
HETATM    2  C   UNL     1      41.947 -11.302   6.359  1.00  0.00     0.062 A 
HETATM    3 CL   UNL     1      40.413 -11.460   5.567  1.00  0.00    -0.082 Cl
HETATM    4  C   UNL     1      42.092 -10.128   7.124  1.00  0.00     0.055 A 
HETATM    5  C   UNL     1      43.235  -9.888   7.892  1.00  0.00     0.036 A 
HETATM    6  C   UNL     1      44.229 -10.854   7.903  1.00  0.00     0.032 A 
HETATM    7  C   UNL     1      44.096 -12.014   7.122  1.00  0.00     0.033 A 
ENDROOT
BRANCH   5   8
HETATM    8  N   UNL     1      43.238  -8.712   8.672  1.00  0.00    -0.333 N 
HETATM    9  H   UNL     1      43.329  -7.857   8.133  1.00  0.00     0.168 HD
BRANCH   8  10
HETATM   10  C   UNL     1      42.878  -8.473   9.948  1.00  0.00     0.179 C 
HETATM   11  S   UNL     1      43.892  -9.020  11.169  1.00  0.00    -0.040 SA
BRANCH  10  12
HETATM   12  N   UNL     1      41.739  -7.843  10.321  1.00  0.00    -0.299 N 
HETATM   13  C   UNL     1      40.546  -8.478  10.649  1.00  0.00     0.257 C 
HETATM   14  O   UNL     1      40.026  -9.429  10.085  1.00  0.00    -0.267 OA
HETATM   15  H   UNL     1      41.958  -7.065  10.932  1.00  0.00     0.171 HD
BRANCH  13  16
HETATM   16  C   UNL     1      39.808  -7.813  11.751  1.00  0.00     0.032 A 
HETATM   17  C   UNL     1      38.484  -7.421  11.548  1.00  0.00     0.020 A 
HETATM   18  C   UNL     1      37.793  -6.778  12.576  1.00  0.00     0.038 A 
HETATM   19  C   UNL     1      38.404  -6.557  13.814  1.00  0.00     0.068 A 
HETATM   20  C   UNL     1      39.729  -6.952  14.013  1.00  0.00     0.038 A 
HETATM   21  C   UNL     1      40.434  -7.582  12.981  1.00  0.00     0.020 A 
BRANCH  19  22
HETATM   22  O   UNL     1      37.626  -5.926  14.744  1.00  0.00    -0.356 OA
HETATM   23  C   UNL     1      38.326  -5.295  15.811  1.00  0.00     0.210 C 
ENDBRANCH  19  22
ENDBRANCH  13  16
ENDBRANCH  10  12
ENDBRANCH   8  10
ENDBRANCH   5   8
BRANCH   1  24
HETATM   24  N   UNL     1      42.981 -13.470   5.587  1.00  0.00    -0.376 N 
HETATM   25  C   UNL     1      43.609 -14.690   6.118  1.00  0.00     0.143 C 
HETATM   26  C   UNL     1      43.081 -15.931   5.371  1.00  0.00     0.145 C 
HETATM   27  N   UNL     1      43.179 -15.807   3.907  1.00  0.00    -0.349 N 
HETATM   28  C   UNL     1      43.164 -16.904   3.047  1.00  0.00     0.219 C 
HETATM   29  C   UNL     1      42.710 -14.525   3.363  1.00  0.00     0.145 C 
HETATM   30  O   UNL     1      42.912 -16.785   1.848  1.00  0.00    -0.273 OA
HETATM   31  C   UNL     1      43.229 -13.298   4.137  1.00  0.00     0.143 C 
BRANCH  28  32
HETATM   32  C   UNL     1      43.496 -18.258   3.662  1.00  0.00     0.103 C 
BRANCH  32  33
HETATM   33  C   UNL     1      44.216 -19.212   2.708  1.00  0.00     0.005 C 
HETATM   34  C   UNL     1      43.281 -20.231   2.070  1.00  0.00     0.005 C 
ENDBRANCH  32  33
ENDBRANCH  28  32
ENDBRANCH   1  24
TORSDOF 8
ENDMDL
