MODEL 1
REMARK VINA RESULT:      -8.5      0.000      0.000
REMARK  3 active torsions:
REMARK  status: ('A' for Active; 'I' for Inactive)
REMARK    1  A    between atoms: C_2  and  N_3 
REMARK       I    between atoms: N_3  and  C_4 
REMARK    2  A    between atoms: C_4  and  C_5 
REMARK    3  A    between atoms: C_5  and  C_6 
ROOT
HETATM    1  C   UNL     1      41.796 -14.269   6.061  1.00  0.00     0.286 C 
HETATM    2  N   UNL     1      42.682 -14.259   4.817  1.00  0.00    -0.056 N 
HETATM    3  H   UNL     1      43.090 -13.317   4.751  1.00  0.00     0.278 HD
HETATM    4  H   UNL     1      43.505 -14.869   5.007  1.00  0.00     0.278 HD
HETATM    5  C   UNL     1      42.048 -14.586   3.497  1.00  0.00     0.209 C 
HETATM    6  C   UNL     1      40.736 -13.780   3.340  1.00  0.00     0.115 C 
HETATM    7  N   UNL     1      39.882 -13.851   4.521  1.00  0.00    -0.353 N 
HETATM    8  C   UNL     1      40.368 -13.769   5.802  1.00  0.00     0.249 C 
HETATM    9  O   UNL     1      39.632 -13.410   6.716  1.00  0.00    -0.271 OA
HETATM   10  C   UNL     1      41.870 -16.096   3.340  1.00  0.00     0.035 C 
HETATM   11  C   UNL     1      41.140 -16.434   2.043  1.00  0.00     0.002 C 
HETATM   12  C   UNL     1      39.797 -15.713   1.968  1.00  0.00     0.002 C 
HETATM   13  C   UNL     1      39.970 -14.198   2.080  1.00  0.00     0.027 C 
HETATM   14  H   UNL     1      38.941 -13.466   4.447  1.00  0.00     0.163 HD
ENDROOT
BRANCH   1  15
HETATM   15  C   UNL     1      41.694 -15.641   6.749  1.00  0.00     0.146 C 
BRANCH  15  16
HETATM   16  C   UNL     1      42.870 -15.960   7.626  1.00  0.00     0.224 C 
HETATM   17  N   UNL     1      43.718 -16.989   7.367  1.00  0.00    -0.327 N 
HETATM   18  H   UNL     1      44.430 -17.066   8.089  1.00  0.00     0.169 HD
HETATM   19  O   UNL     1      43.102 -15.232   8.601  1.00  0.00    -0.273 OA
BRANCH  17  20
HETATM   20  C   UNL     1      43.837 -17.933   6.326  1.00  0.00     0.034 A 
HETATM   21  C   UNL     1      44.312 -17.685   5.036  1.00  0.00     0.031 A 
HETATM   22  C   UNL     1      44.402 -18.722   4.095  1.00  0.00     0.026 A 
HETATM   23  C   UNL     1      44.018 -20.014   4.435  1.00  0.00     0.034 A 
HETATM   24  C   UNL     1      43.542 -20.281   5.711  1.00  0.00     0.026 A 
HETATM   25 CL   UNL     1      44.138 -21.277   3.276  1.00  0.00    -0.084 Cl
HETATM   26  C   UNL     1      43.454 -19.246   6.649  1.00  0.00     0.031 A 
ENDBRANCH  17  20
ENDBRANCH  15  16
ENDBRANCH   1  15
TORSDOF 3
ENDMDL
MODEL 2
REMARK VINA RESULT:      -8.0      1.123      1.615
REMARK  3 active torsions:
REMARK  status: ('A' for Active; 'I' for Inactive)
REMARK    1  A    between atoms: C_2  and  N_3 
REMARK       I    between atoms: N_3  and  C_4 
REMARK    2  A    between atoms: C_4  and  C_5 
REMARK    3  A    between atoms: C_5  and  C_6 
ROOT
HETATM    1  C   UNL     1      41.985 -14.370   6.093  1.00  0.00     0.286 C 
HETATM    2  N   UNL     1      42.009 -13.416   4.900  1.00  0.00    -0.056 N 
HETATM    3  H   UNL     1      41.338 -12.666   5.108  1.00  0.00     0.278 HD
HETATM    4  H   UNL     1      42.930 -12.928   4.903  1.00  0.00     0.278 HD
HETATM    5  C   UNL     1      41.685 -13.973   3.545  1.00  0.00     0.209 C 
HETATM    6  C   UNL     1      40.402 -14.832   3.633  1.00  0.00     0.115 C 
HETATM    7  N   UNL     1      40.426 -15.775   4.748  1.00  0.00    -0.353 N 
HETATM    8  C   UNL     1      40.893 -15.446   5.995  1.00  0.00     0.249 C 
HETATM    9  O   UNL     1      40.521 -16.081   6.977  1.00  0.00    -0.271 OA
HETATM   10  C   UNL     1      42.889 -14.711   2.960  1.00  0.00     0.035 C 
HETATM   11  C   UNL     1      42.540 -15.362   1.624  1.00  0.00     0.002 C 
HETATM   12  C   UNL     1      41.340 -16.294   1.766  1.00  0.00     0.002 C 
HETATM   13  C   UNL     1      40.119 -15.552   2.310  1.00  0.00     0.027 C 
HETATM   14  H   UNL     1      39.684 -16.473   4.792  1.00  0.00     0.163 HD
ENDROOT
BRANCH   1  15
HETATM   15  C   UNL     1      43.322 -15.083   6.355  1.00  0.00     0.146 C 
BRANCH  15  16
HETATM   16  C   UNL     1      43.278 -16.026   7.523  1.00  0.00     0.224 C 
HETATM   17  N   UNL     1      43.355 -17.374   7.376  1.00  0.00    -0.327 N 
HETATM   18  H   UNL     1      43.274 -17.844   8.274  1.00  0.00     0.169 HD
HETATM   19  O   UNL     1      43.212 -15.558   8.667  1.00  0.00    -0.273 OA
BRANCH  17  20
HETATM   20  C   UNL     1      43.541 -18.240   6.279  1.00  0.00     0.034 A 
HETATM   21  C   UNL     1      43.570 -19.635   6.323  1.00  0.00     0.031 A 
HETATM   22  C   UNL     1      43.741 -20.386   5.150  1.00  0.00     0.026 A 
HETATM   23  C   UNL     1      43.886 -19.748   3.923  1.00  0.00     0.034 A 
HETATM   24  C   UNL     1      43.862 -18.362   3.857  1.00  0.00     0.026 A 
HETATM   25 CL   UNL     1      44.089 -20.677   2.492  1.00  0.00    -0.084 Cl
HETATM   26  C   UNL     1      43.689 -17.615   5.028  1.00  0.00     0.031 A 
ENDBRANCH  17  20
ENDBRANCH  15  16
ENDBRANCH   1  15
TORSDOF 3
ENDMDL
MODEL 3
REMARK VINA RESULT:      -7.7      2.339      4.271
REMARK  3 active torsions:
REMARK  status: ('A' for Active; 'I' for Inactive)
REMARK    1  A    between atoms: C_2  and  N_3 
REMARK       I    between atoms: N_3  and  C_4 
REMARK    2  A    between atoms: C_4  and  C_5 
REMARK    3  A    between atoms: C_5  and  C_6 
ROOT
HETATM    1  C   UNL     1      40.682 -14.068   3.490  1.00  0.00     0.286 C 
HETATM    2  N   UNL     1      40.092 -13.967   4.895  1.00  0.00    -0.056 N 
HETATM    3  H   UNL     1      39.742 -13.006   5.001  1.00  0.00     0.278 HD
HETATM    4  H   UNL     1      39.226 -14.547   4.918  1.00  0.00     0.278 HD
HETATM    5  C   UNL     1      40.988 -14.269   6.060  1.00  0.00     0.209 C 
HETATM    6  C   UNL     1      42.329 -13.517   5.889  1.00  0.00     0.115 C 
HETATM    7  N   UNL     1      42.901 -13.674   4.555  1.00  0.00    -0.353 N 
HETATM    8  C   UNL     1      42.150 -13.623   3.408  1.00  0.00     0.249 C 
HETATM    9  O   UNL     1      42.680 -13.335   2.340  1.00  0.00    -0.271 OA
HETATM   10  C   UNL     1      41.141 -15.778   6.249  1.00  0.00     0.035 C 
HETATM   11  C   UNL     1      42.126 -16.096   7.372  1.00  0.00     0.002 C 
HETATM   12  C   UNL     1      43.477 -15.434   7.118  1.00  0.00     0.002 C 
HETATM   13  C   UNL     1      43.338 -13.919   6.971  1.00  0.00     0.027 C 
HETATM   14  H   UNL     1      43.849 -13.330   4.404  1.00  0.00     0.163 HD
ENDROOT
BRANCH   1  15
HETATM   15  C   UNL     1      40.583 -15.470   2.865  1.00  0.00     0.146 C 
BRANCH  15  16
HETATM   16  C   UNL     1      41.440 -15.643   1.645  1.00  0.00     0.224 C 
HETATM   17  N   UNL     1      42.501 -16.490   1.611  1.00  0.00    -0.327 N 
HETATM   18  H   UNL     1      42.976 -16.444   0.713  1.00  0.00     0.169 HD
HETATM   19  O   UNL     1      41.145 -15.021   0.615  1.00  0.00    -0.273 OA
BRANCH  17  20
HETATM   20  C   UNL     1      43.057 -17.413   2.520  1.00  0.00     0.034 A 
HETATM   21  C   UNL     1      43.572 -17.120   3.784  1.00  0.00     0.031 A 
HETATM   22  C   UNL     1      44.079 -18.138   4.605  1.00  0.00     0.026 A 
HETATM   23  C   UNL     1      44.076 -19.458   4.170  1.00  0.00     0.034 A 
HETATM   24  C   UNL     1      43.570 -19.771   2.916  1.00  0.00     0.026 A 
HETATM   25 CL   UNL     1      44.694 -20.698   5.186  1.00  0.00    -0.084 Cl
HETATM   26  C   UNL     1      43.063 -18.755   2.099  1.00  0.00     0.031 A 
ENDBRANCH  17  20
ENDBRANCH  15  16
ENDBRANCH   1  15
TORSDOF 3
ENDMDL
MODEL 4
REMARK VINA RESULT:      -7.4      3.765      5.528
REMARK  3 active torsions:
REMARK  status: ('A' for Active; 'I' for Inactive)
REMARK    1  A    between atoms: C_2  and  N_3 
REMARK       I    between atoms: N_3  and  C_4 
REMARK    2  A    between atoms: C_4  and  C_5 
REMARK    3  A    between atoms: C_5  and  C_6 
ROOT
HETATM    1  C   UNL     1      39.996 -11.291   1.005  1.00  0.00     0.286 C 
HETATM    2  N   UNL     1      40.520 -11.030  -0.406  1.00  0.00    -0.056 N 
HETATM    3  H   UNL     1      40.352 -10.036  -0.605  1.00  0.00     0.278 HD
HETATM    4  H   UNL     1      41.560 -11.100  -0.376  1.00  0.00     0.278 HD
HETATM    5  C   UNL     1      39.946 -11.837  -1.532  1.00  0.00     0.209 C 
HETATM    6  C   UNL     1      38.402 -11.842  -1.430  1.00  0.00     0.115 C 
HETATM    7  N   UNL     1      37.925 -12.149  -0.085  1.00  0.00    -0.353 N 
HETATM    8  C   UNL     1      38.499 -11.632   1.049  1.00  0.00     0.249 C 
HETATM    9  O   UNL     1      37.848 -11.556   2.087  1.00  0.00    -0.271 OA
HETATM   10  C   UNL     1      40.571 -13.232  -1.574  1.00  0.00     0.035 C 
HETATM   11  C   UNL     1      39.926 -14.093  -2.657  1.00  0.00     0.002 C 
HETATM   12  C   UNL     1      38.414 -14.174  -2.463  1.00  0.00     0.002 C 
HETATM   13  C   UNL     1      37.776 -12.785  -2.464  1.00  0.00     0.027 C 
HETATM   14  H   UNL     1      36.925 -12.311   0.036  1.00  0.00     0.163 HD
ENDROOT
BRANCH   1  15
HETATM   15  C   UNL     1      40.750 -12.397   1.762  1.00  0.00     0.146 C 
BRANCH  15  16
HETATM   16  C   UNL     1      42.105 -11.972   2.247  1.00  0.00     0.224 C 
HETATM   17  N   UNL     1      43.027 -12.857   2.707  1.00  0.00    -0.327 N 
HETATM   18  H   UNL     1      43.868 -12.378   3.022  1.00  0.00     0.169 HD
HETATM   19  O   UNL     1      42.412 -10.774   2.188  1.00  0.00    -0.273 OA
BRANCH  17  20
HETATM   20  C   UNL     1      43.079 -14.262   2.818  1.00  0.00     0.034 A 
HETATM   21  C   UNL     1      42.889 -15.006   3.984  1.00  0.00     0.031 A 
HETATM   22  C   UNL     1      42.944 -16.408   3.955  1.00  0.00     0.026 A 
HETATM   23  C   UNL     1      43.190 -17.077   2.762  1.00  0.00     0.034 A 
HETATM   24  C   UNL     1      43.384 -16.356   1.592  1.00  0.00     0.026 A 
HETATM   25 CL   UNL     1      43.249 -18.794   2.738  1.00  0.00    -0.084 Cl
HETATM   26  C   UNL     1      43.326 -14.958   1.622  1.00  0.00     0.031 A 
ENDBRANCH  17  20
ENDBRANCH  15  16
ENDBRANCH   1  15
TORSDOF 3
ENDMDL
MODEL 5
REMARK VINA RESULT:      -7.4      3.261      4.553
REMARK  3 active torsions:
REMARK  status: ('A' for Active; 'I' for Inactive)
REMARK    1  A    between atoms: C_2  and  N_3 
REMARK       I    between atoms: N_3  and  C_4 
REMARK    2  A    between atoms: C_4  and  C_5 
REMARK    3  A    between atoms: C_5  and  C_6 
ROOT
HETATM    1  C   UNL     1      40.580 -13.906   1.647  1.00  0.00     0.286 C 
HETATM    2  N   UNL     1      40.205 -12.469   1.289  1.00  0.00    -0.056 N 
HETATM    3  H   UNL     1      39.333 -12.257   1.790  1.00  0.00     0.278 HD
HETATM    4  H   UNL     1      40.904 -11.838   1.737  1.00  0.00     0.278 HD
HETATM    5  C   UNL     1      40.007 -12.132  -0.159  1.00  0.00     0.209 C 
HETATM    6  C   UNL     1      39.100 -13.198  -0.818  1.00  0.00     0.115 C 
HETATM    7  N   UNL     1      39.512 -14.563  -0.507  1.00  0.00    -0.353 N 
HETATM    8  C   UNL     1      39.915 -14.956   0.744  1.00  0.00     0.249 C 
HETATM    9  O   UNL     1      39.842 -16.136   1.071  1.00  0.00    -0.271 OA
HETATM   10  C   UNL     1      41.351 -11.939  -0.861  1.00  0.00     0.035 C 
HETATM   11  C   UNL     1      41.163 -11.690  -2.355  1.00  0.00     0.002 C 
HETATM   12  C   UNL     1      40.363 -12.817  -3.001  1.00  0.00     0.002 C 
HETATM   13  C   UNL     1      38.998 -12.986  -2.333  1.00  0.00     0.027 C 
HETATM   14  H   UNL     1      39.056 -15.321  -1.014  1.00  0.00     0.163 HD
ENDROOT
BRANCH   1  15
HETATM   15  C   UNL     1      42.093 -14.180   1.647  1.00  0.00     0.146 C 
BRANCH  15  16
HETATM   16  C   UNL     1      42.734 -13.999   2.993  1.00  0.00     0.224 C 
HETATM   17  N   UNL     1      43.195 -15.043   3.729  1.00  0.00    -0.327 N 
HETATM   18  H   UNL     1      43.562 -14.725   4.623  1.00  0.00     0.169 HD
HETATM   19  O   UNL     1      42.887 -12.851   3.432  1.00  0.00    -0.273 OA
BRANCH  17  20
HETATM   20  C   UNL     1      43.293 -16.434   3.518  1.00  0.00     0.034 A 
HETATM   21  C   UNL     1      42.862 -17.130   2.387  1.00  0.00     0.031 A 
HETATM   22  C   UNL     1      43.040 -18.518   2.289  1.00  0.00     0.026 A 
HETATM   23  C   UNL     1      43.650 -19.222   3.320  1.00  0.00     0.034 A 
HETATM   24  C   UNL     1      44.085 -18.550   4.454  1.00  0.00     0.026 A 
HETATM   25 CL   UNL     1      43.868 -20.921   3.187  1.00  0.00    -0.084 Cl
HETATM   26  C   UNL     1      43.908 -17.165   4.549  1.00  0.00     0.031 A 
ENDBRANCH  17  20
ENDBRANCH  15  16
ENDBRANCH   1  15
TORSDOF 3
ENDMDL
MODEL 6
REMARK VINA RESULT:      -7.4      3.332      6.491
REMARK  3 active torsions:
REMARK  status: ('A' for Active; 'I' for Inactive)
REMARK    1  A    between atoms: C_2  and  N_3 
REMARK       I    between atoms: N_3  and  C_4 
REMARK    2  A    between atoms: C_4  and  C_5 
REMARK    3  A    between atoms: C_5  and  C_6 
ROOT
HETATM    1  C   UNL     1      42.078 -14.170   4.094  1.00  0.00     0.286 C 
HETATM    2  N   UNL     1      41.281 -15.434   3.775  1.00  0.00    -0.056 N 
HETATM    3  H   UNL     1      40.456 -15.427   4.389  1.00  0.00     0.278 HD
HETATM    4  H   UNL     1      40.877 -15.323   2.821  1.00  0.00     0.278 HD
HETATM    5  C   UNL     1      41.968 -16.758   3.931  1.00  0.00     0.209 C 
HETATM    6  C   UNL     1      42.698 -16.805   5.295  1.00  0.00     0.115 C 
HETATM    7  N   UNL     1      43.496 -15.610   5.551  1.00  0.00    -0.353 N 
HETATM    8  C   UNL     1      43.060 -14.342   5.262  1.00  0.00     0.249 C 
HETATM    9  O   UNL     1      43.536 -13.379   5.854  1.00  0.00    -0.271 OA
HETATM   10  C   UNL     1      42.873 -17.045   2.732  1.00  0.00     0.035 C 
HETATM   11  C   UNL     1      43.649 -18.345   2.925  1.00  0.00     0.002 C 
HETATM   12  C   UNL     1      44.450 -18.316   4.224  1.00  0.00     0.002 C 
HETATM   13  C   UNL     1      43.546 -18.074   5.432  1.00  0.00     0.027 C 
HETATM   14  H   UNL     1      44.117 -15.622   6.360  1.00  0.00     0.163 HD
ENDROOT
BRANCH   1  15
HETATM   15  C   UNL     1      42.865 -13.605   2.899  1.00  0.00     0.146 C 
BRANCH  15  16
HETATM   16  C   UNL     1      42.449 -12.216   2.511  1.00  0.00     0.224 C 
HETATM   17  N   UNL     1      41.665 -11.963   1.431  1.00  0.00    -0.327 N 
HETATM   18  H   UNL     1      41.520 -10.963   1.312  1.00  0.00     0.169 HD
HETATM   19  O   UNL     1      42.798 -11.267   3.226  1.00  0.00    -0.273 OA
BRANCH  17  20
HETATM   20  C   UNL     1      41.006 -12.767   0.479  1.00  0.00     0.034 A 
HETATM   21  C   UNL     1      40.415 -14.010   0.714  1.00  0.00     0.031 A 
HETATM   22  C   UNL     1      39.767 -14.702  -0.320  1.00  0.00     0.026 A 
HETATM   23  C   UNL     1      39.704 -14.158  -1.598  1.00  0.00     0.034 A 
HETATM   24  C   UNL     1      40.287 -12.925  -1.853  1.00  0.00     0.026 A 
HETATM   25 CL   UNL     1      38.903 -15.012  -2.855  1.00  0.00    -0.084 Cl
HETATM   26  C   UNL     1      40.931 -12.234  -0.820  1.00  0.00     0.031 A 
ENDBRANCH  17  20
ENDBRANCH  15  16
ENDBRANCH   1  15
TORSDOF 3
ENDMDL
MODEL 7
REMARK VINA RESULT:      -7.3      1.731      2.120
REMARK  3 active torsions:
REMARK  status: ('A' for Active; 'I' for Inactive)
REMARK    1  A    between atoms: C_2  and  N_3 
REMARK       I    between atoms: N_3  and  C_4 
REMARK    2  A    between atoms: C_4  and  C_5 
REMARK    3  A    between atoms: C_5  and  C_6 
ROOT
HETATM    1  C   UNL     1      41.558 -13.045   5.062  1.00  0.00     0.286 C 
HETATM    2  N   UNL     1      42.328 -12.387   3.919  1.00  0.00    -0.056 N 
HETATM    3  H   UNL     1      42.535 -11.424   4.217  1.00  0.00     0.278 HD
HETATM    4  H   UNL     1      43.269 -12.834   3.871  1.00  0.00     0.278 HD
HETATM    5  C   UNL     1      41.676 -12.329   2.570  1.00  0.00     0.209 C 
HETATM    6  C   UNL     1      40.223 -11.820   2.719  1.00  0.00     0.115 C 
HETATM    7  N   UNL     1      39.490 -12.504   3.781  1.00  0.00    -0.353 N 
HETATM    8  C   UNL     1      40.043 -12.800   5.001  1.00  0.00     0.249 C 
HETATM    9  O   UNL     1      39.320 -12.971   5.977  1.00  0.00    -0.271 OA
HETATM   10  C   UNL     1      41.793 -13.675   1.853  1.00  0.00     0.035 C 
HETATM   11  C   UNL     1      41.050 -13.655   0.519  1.00  0.00     0.002 C 
HETATM   12  C   UNL     1      39.589 -13.261   0.713  1.00  0.00     0.002 C 
HETATM   13  C   UNL     1      39.464 -11.896   1.390  1.00  0.00     0.027 C 
HETATM   14  H   UNL     1      38.488 -12.328   3.851  1.00  0.00     0.163 HD
ENDROOT
BRANCH   1  15
HETATM   15  C   UNL     1      41.782 -14.562   5.180  1.00  0.00     0.146 C 
BRANCH  15  16
HETATM   16  C   UNL     1      43.041 -14.925   5.914  1.00  0.00     0.224 C 
HETATM   17  N   UNL     1      43.776 -16.024   5.604  1.00  0.00    -0.327 N 
HETATM   18  H   UNL     1      44.571 -16.120   6.232  1.00  0.00     0.169 HD
HETATM   19  O   UNL     1      43.449 -14.172   6.808  1.00  0.00    -0.273 OA
BRANCH  17  20
HETATM   20  C   UNL     1      43.691 -17.022   4.612  1.00  0.00     0.034 A 
HETATM   21  C   UNL     1      43.234 -16.849   3.304  1.00  0.00     0.031 A 
HETATM   22  C   UNL     1      43.222 -17.923   2.402  1.00  0.00     0.026 A 
HETATM   23  C   UNL     1      43.665 -19.179   2.799  1.00  0.00     0.034 A 
HETATM   24  C   UNL     1      44.122 -19.373   4.095  1.00  0.00     0.026 A 
HETATM   25 CL   UNL     1      43.650 -20.487   1.684  1.00  0.00    -0.084 Cl
HETATM   26  C   UNL     1      44.136 -18.300   4.993  1.00  0.00     0.031 A 
ENDBRANCH  17  20
ENDBRANCH  15  16
ENDBRANCH   1  15
TORSDOF 3
ENDMDL
MODEL 8
REMARK VINA RESULT:      -7.1     14.053     16.052
REMARK  3 active torsions:
REMARK  status: ('A' for Active; 'I' for Inactive)
REMARK    1  A    between atoms: C_2  and  N_3 
REMARK       I    between atoms: N_3  and  C_4 
REMARK    2  A    between atoms: C_4  and  C_5 
REMARK    3  A    between atoms: C_5  and  C_6 
ROOT
HETATM    1  C   UNL     1      48.104 -28.915   1.168  1.00  0.00     0.286 C 
HETATM    2  N   UNL     1      48.267 -28.392   2.594  1.00  0.00    -0.056 N 
HETATM    3  H   UNL     1      48.716 -27.470   2.522  1.00  0.00     0.278 HD
HETATM    4  H   UNL     1      47.317 -28.172   2.963  1.00  0.00     0.278 HD
HETATM    5  C   UNL     1      49.055 -29.222   3.564  1.00  0.00     0.209 C 
HETATM    6  C   UNL     1      50.382 -29.666   2.905  1.00  0.00     0.115 C 
HETATM    7  N   UNL     1      50.193 -30.214   1.564  1.00  0.00    -0.353 N 
HETATM    8  C   UNL     1      49.339 -29.662   0.644  1.00  0.00     0.249 C 
HETATM    9  O   UNL     1      49.513 -29.864  -0.554  1.00  0.00    -0.271 OA
HETATM   10  C   UNL     1      48.210 -30.378   4.101  1.00  0.00     0.035 C 
HETATM   11  C   UNL     1      49.031 -31.283   5.015  1.00  0.00     0.002 C 
HETATM   12  C   UNL     1      50.276 -31.799   4.299  1.00  0.00     0.002 C 
HETATM   13  C   UNL     1      51.149 -30.649   3.797  1.00  0.00     0.027 C 
HETATM   14  H   UNL     1      50.996 -30.658   1.119  1.00  0.00     0.163 HD
ENDROOT
BRANCH   1  15
HETATM   15  C   UNL     1      46.884 -29.831   0.970  1.00  0.00     0.146 C 
BRANCH  15  16
HETATM   16  C   UNL     1      45.577 -29.164   1.288  1.00  0.00     0.224 C 
HETATM   17  N   UNL     1      44.675 -28.829   0.329  1.00  0.00    -0.327 N 
HETATM   18  H   UNL     1      43.870 -28.358   0.734  1.00  0.00     0.169 HD
HETATM   19  O   UNL     1      45.290 -28.947   2.473  1.00  0.00    -0.273 OA
BRANCH  17  20
HETATM   20  C   UNL     1      44.604 -29.012  -1.067  1.00  0.00     0.034 A 
HETATM   21  C   UNL     1      44.968 -28.079  -2.041  1.00  0.00     0.031 A 
HETATM   22  C   UNL     1      44.871 -28.393  -3.405  1.00  0.00     0.026 A 
HETATM   23  C   UNL     1      44.410 -29.642  -3.807  1.00  0.00     0.034 A 
HETATM   24  C   UNL     1      44.041 -30.582  -2.855  1.00  0.00     0.026 A 
HETATM   25 CL   UNL     1      44.300 -30.018  -5.480  1.00  0.00    -0.084 Cl
HETATM   26  C   UNL     1      44.141 -30.268  -1.495  1.00  0.00     0.031 A 
ENDBRANCH  17  20
ENDBRANCH  15  16
ENDBRANCH   1  15
TORSDOF 3
ENDMDL
MODEL 9
REMARK VINA RESULT:      -7.1      2.180      3.150
REMARK  3 active torsions:
REMARK  status: ('A' for Active; 'I' for Inactive)
REMARK    1  A    between atoms: C_2  and  N_3 
REMARK       I    between atoms: N_3  and  C_4 
REMARK    2  A    between atoms: C_4  and  C_5 
REMARK    3  A    between atoms: C_5  and  C_6 
ROOT
HETATM    1  C   UNL     1      41.517 -12.146   3.585  1.00  0.00     0.286 C 
HETATM    2  N   UNL     1      41.859 -12.479   2.134  1.00  0.00    -0.056 N 
HETATM    3  H   UNL     1      41.206 -11.946   1.546  1.00  0.00     0.278 HD
HETATM    4  H   UNL     1      42.786 -12.053   1.920  1.00  0.00     0.278 HD
HETATM    5  C   UNL     1      41.804 -13.917   1.709  1.00  0.00     0.209 C 
HETATM    6  C   UNL     1      40.481 -14.551   2.202  1.00  0.00     0.115 C 
HETATM    7  N   UNL     1      40.205 -14.264   3.607  1.00  0.00    -0.353 N 
HETATM    8  C   UNL     1      40.409 -13.032   4.173  1.00  0.00     0.249 C 
HETATM    9  O   UNL     1      39.793 -12.711   5.185  1.00  0.00    -0.271 OA
HETATM   10  C   UNL     1      43.058 -14.665   2.161  1.00  0.00     0.035 C 
HETATM   11  C   UNL     1      42.969 -16.149   1.817  1.00  0.00     0.002 C 
HETATM   12  C   UNL     1      41.711 -16.775   2.414  1.00  0.00     0.002 C 
HETATM   13  C   UNL     1      40.449 -16.060   1.932  1.00  0.00     0.027 C 
HETATM   14  H   UNL     1      39.429 -14.760   4.046  1.00  0.00     0.163 HD
ENDROOT
BRANCH   1  15
HETATM   15  C   UNL     1      42.719 -12.202   4.543  1.00  0.00     0.146 C 
BRANCH  15  16
HETATM   16  C   UNL     1      42.328 -12.194   5.993  1.00  0.00     0.224 C 
HETATM   17  N   UNL     1      42.273 -13.325   6.742  1.00  0.00    -0.327 N 
HETATM   18  H   UNL     1      41.957 -13.122   7.687  1.00  0.00     0.169 HD
HETATM   19  O   UNL     1      42.088 -11.109   6.540  1.00  0.00    -0.273 OA
BRANCH  17  20
HETATM   20  C   UNL     1      42.573 -14.682   6.504  1.00  0.00     0.034 A 
HETATM   21  C   UNL     1      41.650 -15.722   6.371  1.00  0.00     0.031 A 
HETATM   22  C   UNL     1      42.079 -17.032   6.112  1.00  0.00     0.026 A 
HETATM   23  C   UNL     1      43.434 -17.315   5.985  1.00  0.00     0.034 A 
HETATM   24  C   UNL     1      44.368 -16.297   6.116  1.00  0.00     0.026 A 
HETATM   25 CL   UNL     1      43.949 -18.922   5.662  1.00  0.00    -0.084 Cl
HETATM   26  C   UNL     1      43.939 -14.990   6.372  1.00  0.00     0.031 A 
ENDBRANCH  17  20
ENDBRANCH  15  16
ENDBRANCH   1  15
TORSDOF 3
ENDMDL
MODEL 10
REMARK VINA RESULT:      -7.1      2.991      4.785
REMARK  3 active torsions:
REMARK  status: ('A' for Active; 'I' for Inactive)
REMARK    1  A    between atoms: C_2  and  N_3 
REMARK       I    between atoms: N_3  and  C_4 
REMARK    2  A    between atoms: C_4  and  C_5 
REMARK    3  A    between atoms: C_5  and  C_6 
ROOT
HETATM    1  C   UNL     1      41.709 -12.813   3.235  1.00  0.00     0.286 C 
HETATM    2  N   UNL     1      41.279 -13.136   4.664  1.00  0.00    -0.056 N 
HETATM    3  H   UNL     1      40.332 -12.755   4.781  1.00  0.00     0.278 HD
HETATM    4  H   UNL     1      41.138 -14.167   4.729  1.00  0.00     0.278 HD
HETATM    5  C   UNL     1      42.131 -12.626   5.789  1.00  0.00     0.209 C 
HETATM    6  C   UNL     1      42.455 -11.131   5.555  1.00  0.00     0.115 C 
HETATM    7  N   UNL     1      42.917 -10.857   4.197  1.00  0.00    -0.353 N 
HETATM    8  C   UNL     1      42.349 -11.425   3.085  1.00  0.00     0.249 C 
HETATM    9  O   UNL     1      42.458 -10.877   1.992  1.00  0.00    -0.271 OA
HETATM   10  C   UNL     1      43.366 -13.507   5.978  1.00  0.00     0.035 C 
HETATM   11  C   UNL     1      44.287 -12.943   7.056  1.00  0.00     0.002 C 
HETATM   12  C   UNL     1      44.683 -11.503   6.739  1.00  0.00     0.002 C 
HETATM   13  C   UNL     1      43.454 -10.606   6.592  1.00  0.00     0.027 C 
HETATM   14  H   UNL     1      43.285  -9.926   4.002  1.00  0.00     0.163 HD
ENDROOT
BRANCH   1  15
HETATM   15  C   UNL     1      42.674 -13.842   2.621  1.00  0.00     0.146 C 
BRANCH  15  16
HETATM   16  C   UNL     1      42.024 -14.745   1.613  1.00  0.00     0.224 C 
HETATM   17  N   UNL     1      42.128 -16.098   1.669  1.00  0.00    -0.327 N 
HETATM   18  H   UNL     1      41.651 -16.533   0.884  1.00  0.00     0.169 HD
HETATM   19  O   UNL     1      41.331 -14.241   0.719  1.00  0.00    -0.273 OA
BRANCH  17  20
HETATM   20  C   UNL     1      42.720 -17.007   2.571  1.00  0.00     0.034 A 
HETATM   21  C   UNL     1      42.943 -16.791   3.932  1.00  0.00     0.031 A 
HETATM   22  C   UNL     1      43.522 -17.790   4.729  1.00  0.00     0.026 A 
HETATM   23  C   UNL     1      43.883 -19.012   4.173  1.00  0.00     0.034 A 
HETATM   24  C   UNL     1      43.670 -19.246   2.822  1.00  0.00     0.026 A 
HETATM   25 CL   UNL     1      44.586 -20.230   5.160  1.00  0.00    -0.084 Cl
HETATM   26  C   UNL     1      43.091 -18.249   2.028  1.00  0.00     0.031 A 
ENDBRANCH  17  20
ENDBRANCH  15  16
ENDBRANCH   1  15
TORSDOF 3
ENDMDL
