MODEL 1
REMARK VINA RESULT:     -10.2      0.000      0.000
REMARK  7 active torsions:
REMARK  status: ('A' for Active; 'I' for Inactive)
REMARK    1  A    between atoms: N_1  and  C_2 
REMARK    2  A    between atoms: C_2  and  C_3 
REMARK    3  A    between atoms: C_6  and  C_24 
REMARK    4  A    between atoms: C_8  and  C_9 
REMARK    5  A    between atoms: C_13  and  C_15 
REMARK       I    between atoms: C_15  and  N_17 
REMARK    6  A    between atoms: N_17  and  C_18 
REMARK       I    between atoms: C_24  and  N_26 
REMARK    7  A    between atoms: N_26  and  C_27 
ROOT
HETATM    1  C   UNL     1      42.635 -12.068   4.517  1.00  0.00    -0.020 A 
HETATM    2  C   UNL     1      41.907 -12.898   3.645  1.00  0.00     0.011 A 
HETATM    3  C   UNL     1      41.911 -14.284   3.802  1.00  0.00     0.017 A 
HETATM    4  C   UNL     1      42.635 -14.874   4.842  1.00  0.00     0.033 A 
HETATM    5  C   UNL     1      43.354 -14.058   5.725  1.00  0.00     0.030 A 
HETATM    6  C   UNL     1      43.356 -12.653   5.590  1.00  0.00    -0.017 A 
ENDROOT
BRANCH   6   7
HETATM    7  C   UNL     1      44.115 -11.844   6.562  1.00  0.00    -0.024 A 
HETATM    8  C   UNL     1      45.501 -11.659   6.438  1.00  0.00     0.012 A 
HETATM    9  C   UNL     1      46.199 -10.851   7.338  1.00  0.00     0.002 A 
HETATM   10  C   UNL     1      45.516 -10.186   8.355  1.00  0.00     0.017 A 
HETATM   11  C   UNL     1      44.132 -10.344   8.487  1.00  0.00     0.033 A 
HETATM   12  C   UNL     1      43.453 -11.214   7.627  1.00  0.00     0.029 A 
BRANCH  11  13
HETATM   13  C   UNL     1      43.411  -9.540   9.516  1.00  0.00     0.256 C 
HETATM   14  O   UNL     1      42.639  -8.670   9.133  1.00  0.00    -0.267 OA
HETATM   15  N   UNL     1      43.662  -9.915  10.826  1.00  0.00    -0.323 N 
HETATM   16  H   UNL     1      44.295 -10.695  10.974  1.00  0.00     0.169 HD
BRANCH  15  17
HETATM   17  C   UNL     1      43.079  -9.389  11.998  1.00  0.00     0.035 A 
HETATM   18  C   UNL     1      42.050 -10.010  12.708  1.00  0.00     0.029 A 
HETATM   19  C   UNL     1      41.542  -9.428  13.874  1.00  0.00     0.002 A 
HETATM   20  C   UNL     1      42.054  -8.219  14.338  1.00  0.00     0.000 A 
HETATM   21  C   UNL     1      43.075  -7.588  13.634  1.00  0.00     0.002 A 
HETATM   22  C   UNL     1      43.585  -8.171  12.470  1.00  0.00     0.029 A 
ENDBRANCH  15  17
ENDBRANCH  11  13
ENDBRANCH   6   7
BRANCH   1  23
HETATM   23  C   UNL     1      42.633 -10.578   4.238  1.00  0.00     0.306 C 
BRANCH  23  24
HETATM   24  N   UNL     1      42.143 -10.266   2.894  1.00  0.00     0.082 N 
HETATM   25  H   UNL     1      42.131  -9.251   2.793  1.00  0.00     0.313 HD
HETATM   26  H   UNL     1      42.833 -10.598   2.218  1.00  0.00     0.313 HD
ENDBRANCH  23  24
ENDBRANCH   1  23
BRANCH   4  27
HETATM   27  C   UNL     1      42.647 -16.365   4.926  1.00  0.00     0.256 C 
HETATM   28  O   UNL     1      41.871 -16.907   5.707  1.00  0.00    -0.267 OA
HETATM   29  N   UNL     1      43.562 -17.012   4.118  1.00  0.00    -0.320 N 
HETATM   30  H   UNL     1      44.228 -16.452   3.599  1.00  0.00     0.169 HD
BRANCH  29  31
HETATM   31  C   UNL     1      43.730 -18.411   3.970  1.00  0.00     0.076 A 
HETATM   32  C   UNL     1      44.143 -19.267   4.986  1.00  0.00     0.052 A 
HETATM   33  C   UNL     1      44.259 -20.624   4.705  1.00  0.00     0.118 A 
HETATM   34  N   UNL     1      43.991 -21.174   3.499  1.00  0.00    -0.270 NA
HETATM   35  C   UNL     1      43.587 -20.324   2.528  1.00  0.00     0.160 A 
HETATM   36  C   UNL     1      43.447 -18.961   2.719  1.00  0.00     0.160 A 
HETATM   37  F   UNL     1      43.036 -18.176   1.711  1.00  0.00    -0.202 F 
ENDBRANCH  29  31
ENDBRANCH   4  27
TORSDOF 7
ENDMDL
MODEL 2
REMARK VINA RESULT:      -9.6      1.773      2.180
REMARK  7 active torsions:
REMARK  status: ('A' for Active; 'I' for Inactive)
REMARK    1  A    between atoms: N_1  and  C_2 
REMARK    2  A    between atoms: C_2  and  C_3 
REMARK    3  A    between atoms: C_6  and  C_24 
REMARK    4  A    between atoms: C_8  and  C_9 
REMARK    5  A    between atoms: C_13  and  C_15 
REMARK       I    between atoms: C_15  and  N_17 
REMARK    6  A    between atoms: N_17  and  C_18 
REMARK       I    between atoms: C_24  and  N_26 
REMARK    7  A    between atoms: N_26  and  C_27 
ROOT
HETATM    1  C   UNL     1      42.313 -11.949   6.275  1.00  0.00    -0.020 A 
HETATM    2  C   UNL     1      41.620 -12.993   5.635  1.00  0.00     0.011 A 
HETATM    3  C   UNL     1      42.175 -14.268   5.534  1.00  0.00     0.017 A 
HETATM    4  C   UNL     1      43.433 -14.535   6.082  1.00  0.00     0.033 A 
HETATM    5  C   UNL     1      44.129 -13.508   6.733  1.00  0.00     0.030 A 
HETATM    6  C   UNL     1      43.581 -12.212   6.854  1.00  0.00    -0.017 A 
ENDROOT
BRANCH   6   7
HETATM    7  C   UNL     1      44.350 -11.176   7.568  1.00  0.00    -0.024 A 
HETATM    8  C   UNL     1      45.645 -10.816   7.163  1.00  0.00     0.012 A 
HETATM    9  C   UNL     1      46.344  -9.799   7.820  1.00  0.00     0.002 A 
HETATM   10  C   UNL     1      45.743  -9.103   8.867  1.00  0.00     0.017 A 
HETATM   11  C   UNL     1      44.448  -9.436   9.276  1.00  0.00     0.033 A 
HETATM   12  C   UNL     1      43.785 -10.505   8.662  1.00  0.00     0.029 A 
BRANCH  11  13
HETATM   13  C   UNL     1      43.789  -8.608  10.328  1.00  0.00     0.256 C 
HETATM   14  O   UNL     1      43.345  -7.512  10.007  1.00  0.00    -0.267 OA
HETATM   15  N   UNL     1      43.706  -9.210  11.573  1.00  0.00    -0.323 N 
HETATM   16  H   UNL     1      44.082 -10.148  11.662  1.00  0.00     0.169 HD
BRANCH  15  17
HETATM   17  C   UNL     1      43.083  -8.703  12.733  1.00  0.00     0.035 A 
HETATM   18  C   UNL     1      43.487  -7.543  13.396  1.00  0.00     0.029 A 
HETATM   19  C   UNL     1      42.798  -7.099  14.531  1.00  0.00     0.002 A 
HETATM   20  C   UNL     1      41.705  -7.813  15.014  1.00  0.00     0.000 A 
HETATM   21  C   UNL     1      41.298  -8.974  14.364  1.00  0.00     0.002 A 
HETATM   22  C   UNL     1      41.984  -9.416  13.229  1.00  0.00     0.029 A 
ENDBRANCH  15  17
ENDBRANCH  11  13
ENDBRANCH   6   7
BRANCH   1  23
HETATM   23  C   UNL     1      41.670 -10.576   6.282  1.00  0.00     0.306 C 
BRANCH  23  24
HETATM   24  N   UNL     1      40.501 -10.516   7.162  1.00  0.00     0.082 N 
HETATM   25  H   UNL     1      40.091  -9.585   7.074  1.00  0.00     0.313 HD
HETATM   26  H   UNL     1      39.796 -11.158   6.800  1.00  0.00     0.313 HD
ENDBRANCH  23  24
ENDBRANCH   1  23
BRANCH   4  27
HETATM   27  C   UNL     1      44.001 -15.904   5.895  1.00  0.00     0.256 C 
HETATM   28  O   UNL     1      45.079 -16.159   6.420  1.00  0.00    -0.267 OA
HETATM   29  N   UNL     1      43.256 -16.770   5.118  1.00  0.00    -0.320 N 
HETATM   30  H   UNL     1      42.436 -16.409   4.644  1.00  0.00     0.169 HD
BRANCH  29  31
HETATM   31  C   UNL     1      43.542 -18.129   4.841  1.00  0.00     0.076 A 
HETATM   32  C   UNL     1      43.850 -18.629   3.579  1.00  0.00     0.052 A 
HETATM   33  C   UNL     1      44.118 -19.987   3.450  1.00  0.00     0.118 A 
HETATM   34  N   UNL     1      44.105 -20.863   4.479  1.00  0.00    -0.270 NA
HETATM   35  C   UNL     1      43.808 -20.355   5.696  1.00  0.00     0.160 A 
HETATM   36  C   UNL     1      43.525 -19.019   5.915  1.00  0.00     0.160 A 
HETATM   37  F   UNL     1      43.243 -18.582   7.152  1.00  0.00    -0.202 F 
ENDBRANCH  29  31
ENDBRANCH   4  27
TORSDOF 7
ENDMDL
MODEL 3
REMARK VINA RESULT:      -9.6      3.048     10.441
REMARK  7 active torsions:
REMARK  status: ('A' for Active; 'I' for Inactive)
REMARK    1  A    between atoms: N_1  and  C_2 
REMARK    2  A    between atoms: C_2  and  C_3 
REMARK    3  A    between atoms: C_6  and  C_24 
REMARK    4  A    between atoms: C_8  and  C_9 
REMARK    5  A    between atoms: C_13  and  C_15 
REMARK       I    between atoms: C_15  and  N_17 
REMARK    6  A    between atoms: N_17  and  C_18 
REMARK       I    between atoms: C_24  and  N_26 
REMARK    7  A    between atoms: N_26  and  C_27 
ROOT
HETATM    1  C   UNL     1      45.503 -11.124   6.716  1.00  0.00    -0.020 A 
HETATM    2  C   UNL     1      45.970 -10.431   7.849  1.00  0.00     0.011 A 
HETATM    3  C   UNL     1      45.084  -9.937   8.805  1.00  0.00     0.017 A 
HETATM    4  C   UNL     1      43.708 -10.133   8.660  1.00  0.00     0.033 A 
HETATM    5  C   UNL     1      43.229 -10.833   7.544  1.00  0.00     0.030 A 
HETATM    6  C   UNL     1      44.110 -11.349   6.568  1.00  0.00    -0.017 A 
ENDROOT
BRANCH   6   7
HETATM    7  C   UNL     1      43.551 -12.094   5.425  1.00  0.00    -0.024 A 
HETATM    8  C   UNL     1      43.333 -11.476   4.184  1.00  0.00     0.012 A 
HETATM    9  C   UNL     1      42.847 -12.206   3.096  1.00  0.00     0.002 A 
HETATM   10  C   UNL     1      42.607 -13.573   3.224  1.00  0.00     0.017 A 
HETATM   11  C   UNL     1      42.833 -14.211   4.447  1.00  0.00     0.033 A 
HETATM   12  C   UNL     1      43.248 -13.458   5.551  1.00  0.00     0.029 A 
BRANCH  11  13
HETATM   13  C   UNL     1      42.669 -15.692   4.528  1.00  0.00     0.256 C 
HETATM   14  O   UNL     1      41.709 -16.134   5.148  1.00  0.00    -0.267 OA
HETATM   15  N   UNL     1      43.618 -16.420   3.830  1.00  0.00    -0.323 N 
HETATM   16  H   UNL     1      44.326 -15.898   3.323  1.00  0.00     0.169 HD
BRANCH  15  17
HETATM   17  C   UNL     1      43.679 -17.820   3.668  1.00  0.00     0.035 A 
HETATM   18  C   UNL     1      44.123 -18.705   4.653  1.00  0.00     0.029 A 
HETATM   19  C   UNL     1      44.132 -20.084   4.415  1.00  0.00     0.002 A 
HETATM   20  C   UNL     1      43.703 -20.589   3.190  1.00  0.00     0.000 A 
HETATM   21  C   UNL     1      43.266 -19.716   2.200  1.00  0.00     0.002 A 
HETATM   22  C   UNL     1      43.253 -18.339   2.437  1.00  0.00     0.029 A 
ENDBRANCH  15  17
ENDBRANCH  11  13
ENDBRANCH   6   7
BRANCH   1  23
HETATM   23  C   UNL     1      46.526 -11.569   5.690  1.00  0.00     0.306 C 
BRANCH  23  24
HETATM   24  N   UNL     1      47.889 -11.560   6.226  1.00  0.00     0.082 N 
HETATM   25  H   UNL     1      47.840 -11.822   7.211  1.00  0.00     0.313 HD
HETATM   26  H   UNL     1      48.415 -12.308   5.772  1.00  0.00     0.313 HD
ENDBRANCH  23  24
ENDBRANCH   1  23
BRANCH   4  27
HETATM   27  C   UNL     1      42.804  -9.534   9.687  1.00  0.00     0.256 C 
HETATM   28  O   UNL     1      41.991  -8.691   9.321  1.00  0.00    -0.267 OA
HETATM   29  N   UNL     1      42.980  -9.977  10.984  1.00  0.00    -0.320 N 
HETATM   30  H   UNL     1      43.760 -10.593  11.182  1.00  0.00     0.169 HD
BRANCH  29  31
HETATM   31  C   UNL     1      42.217  -9.613  12.120  1.00  0.00     0.076 A 
HETATM   32  C   UNL     1      40.958 -10.125  12.421  1.00  0.00     0.052 A 
HETATM   33  C   UNL     1      40.321  -9.685  13.576  1.00  0.00     0.118 A 
HETATM   34  N   UNL     1      40.850  -8.788  14.439  1.00  0.00    -0.270 NA
HETATM   35  C   UNL     1      42.075  -8.308  14.129  1.00  0.00     0.160 A 
HETATM   36  C   UNL     1      42.779  -8.687  13.000  1.00  0.00     0.160 A 
HETATM   37  F   UNL     1      43.994  -8.173  12.756  1.00  0.00    -0.202 F 
ENDBRANCH  29  31
ENDBRANCH   4  27
TORSDOF 7
ENDMDL
MODEL 4
REMARK VINA RESULT:      -9.4      3.056     10.615
REMARK  7 active torsions:
REMARK  status: ('A' for Active; 'I' for Inactive)
REMARK    1  A    between atoms: N_1  and  C_2 
REMARK    2  A    between atoms: C_2  and  C_3 
REMARK    3  A    between atoms: C_6  and  C_24 
REMARK    4  A    between atoms: C_8  and  C_9 
REMARK    5  A    between atoms: C_13  and  C_15 
REMARK       I    between atoms: C_15  and  N_17 
REMARK    6  A    between atoms: N_17  and  C_18 
REMARK       I    between atoms: C_24  and  N_26 
REMARK    7  A    between atoms: N_26  and  C_27 
ROOT
HETATM    1  C   UNL     1      45.046 -10.712   7.508  1.00  0.00    -0.020 A 
HETATM    2  C   UNL     1      45.753 -10.193   8.608  1.00  0.00     0.011 A 
HETATM    3  C   UNL     1      45.092  -9.515   9.632  1.00  0.00     0.017 A 
HETATM    4  C   UNL     1      43.705  -9.350   9.589  1.00  0.00     0.033 A 
HETATM    5  C   UNL     1      42.986  -9.874   8.505  1.00  0.00     0.030 A 
HETATM    6  C   UNL     1      43.635 -10.571   7.463  1.00  0.00    -0.017 A 
ENDROOT
BRANCH   6   7
HETATM    7  C   UNL     1      42.825 -11.118   6.358  1.00  0.00    -0.024 A 
HETATM    8  C   UNL     1      42.233 -10.281   5.400  1.00  0.00     0.012 A 
HETATM    9  C   UNL     1      41.508 -10.815   4.332  1.00  0.00     0.002 A 
HETATM   10  C   UNL     1      41.395 -12.198   4.187  1.00  0.00     0.017 A 
HETATM   11  C   UNL     1      41.991 -13.049   5.123  1.00  0.00     0.033 A 
HETATM   12  C   UNL     1      42.650 -12.504   6.229  1.00  0.00     0.029 A 
BRANCH  11  13
HETATM   13  C   UNL     1      41.944 -14.522   4.887  1.00  0.00     0.256 C 
HETATM   14  O   UNL     1      40.930 -15.127   5.213  1.00  0.00    -0.267 OA
HETATM   15  N   UNL     1      43.063 -15.045   4.261  1.00  0.00    -0.323 N 
HETATM   16  H   UNL     1      43.802 -14.397   4.010  1.00  0.00     0.169 HD
BRANCH  15  17
HETATM   17  C   UNL     1      43.274 -16.379   3.851  1.00  0.00     0.035 A 
HETATM   18  C   UNL     1      42.834 -16.905   2.635  1.00  0.00     0.029 A 
HETATM   19  C   UNL     1      43.105 -18.235   2.299  1.00  0.00     0.002 A 
HETATM   20  C   UNL     1      43.812 -19.053   3.176  1.00  0.00     0.000 A 
HETATM   21  C   UNL     1      44.250 -18.541   4.394  1.00  0.00     0.002 A 
HETATM   22  C   UNL     1      43.982 -17.210   4.729  1.00  0.00     0.029 A 
ENDBRANCH  15  17
ENDBRANCH  11  13
ENDBRANCH   6   7
BRANCH   1  23
HETATM   23  C   UNL     1      45.847 -11.375   6.405  1.00  0.00     0.306 C 
BRANCH  23  24
HETATM   24  N   UNL     1      47.289 -11.186   6.575  1.00  0.00     0.082 N 
HETATM   25  H   UNL     1      47.748 -12.073   6.367  1.00  0.00     0.313 HD
HETATM   26  H   UNL     1      47.612 -10.537   5.856  1.00  0.00     0.313 HD
ENDBRANCH  23  24
ENDBRANCH   1  23
BRANCH   4  27
HETATM   27  C   UNL     1      43.059  -8.569  10.686  1.00  0.00     0.256 C 
HETATM   28  O   UNL     1      42.363  -7.607  10.377  1.00  0.00    -0.267 OA
HETATM   29  N   UNL     1      43.323  -8.996  11.973  1.00  0.00    -0.320 N 
HETATM   30  H   UNL     1      44.004  -9.734  12.106  1.00  0.00     0.169 HD
BRANCH  29  31
HETATM   31  C   UNL     1      42.788  -8.468  13.173  1.00  0.00     0.076 A 
HETATM   32  C   UNL     1      43.264  -7.326  13.813  1.00  0.00     0.052 A 
HETATM   33  C   UNL     1      42.639  -6.913  14.984  1.00  0.00     0.118 A 
HETATM   34  N   UNL     1      41.587  -7.549  15.547  1.00  0.00    -0.270 NA
HETATM   35  C   UNL     1      41.140  -8.652  14.907  1.00  0.00     0.160 A 
HETATM   36  C   UNL     1      41.702  -9.136  13.740  1.00  0.00     0.160 A 
HETATM   37  F   UNL     1      41.203 -10.235  13.154  1.00  0.00    -0.202 F 
ENDBRANCH  29  31
ENDBRANCH   4  27
TORSDOF 7
ENDMDL
MODEL 5
REMARK VINA RESULT:      -9.3      1.882      2.389
REMARK  7 active torsions:
REMARK  status: ('A' for Active; 'I' for Inactive)
REMARK    1  A    between atoms: N_1  and  C_2 
REMARK    2  A    between atoms: C_2  and  C_3 
REMARK    3  A    between atoms: C_6  and  C_24 
REMARK    4  A    between atoms: C_8  and  C_9 
REMARK    5  A    between atoms: C_13  and  C_15 
REMARK       I    between atoms: C_15  and  N_17 
REMARK    6  A    between atoms: N_17  and  C_18 
REMARK       I    between atoms: C_24  and  N_26 
REMARK    7  A    between atoms: N_26  and  C_27 
ROOT
HETATM    1  C   UNL     1      41.969 -10.838   5.826  1.00  0.00    -0.020 A 
HETATM    2  C   UNL     1      41.142 -11.384   4.827  1.00  0.00     0.011 A 
HETATM    3  C   UNL     1      41.501 -12.553   4.156  1.00  0.00     0.017 A 
HETATM    4  C   UNL     1      42.690 -13.213   4.476  1.00  0.00     0.033 A 
HETATM    5  C   UNL     1      43.518 -12.687   5.478  1.00  0.00     0.030 A 
HETATM    6  C   UNL     1      43.169 -11.510   6.175  1.00  0.00    -0.017 A 
ENDROOT
BRANCH   6   7
HETATM    7  C   UNL     1      44.068 -11.014   7.233  1.00  0.00    -0.024 A 
HETATM    8  C   UNL     1      45.332 -10.483   6.931  1.00  0.00     0.012 A 
HETATM    9  C   UNL     1      46.154  -9.973   7.939  1.00  0.00     0.002 A 
HETATM   10  C   UNL     1      45.709  -9.955   9.261  1.00  0.00     0.017 A 
HETATM   11  C   UNL     1      44.447 -10.466   9.580  1.00  0.00     0.033 A 
HETATM   12  C   UNL     1      43.662 -11.042   8.576  1.00  0.00     0.029 A 
BRANCH  11  13
HETATM   13  C   UNL     1      43.953 -10.339  10.983  1.00  0.00     0.256 C 
HETATM   14  O   UNL     1      44.083 -11.301  11.730  1.00  0.00    -0.267 OA
HETATM   15  N   UNL     1      43.437  -9.095  11.306  1.00  0.00    -0.323 N 
HETATM   16  H   UNL     1      43.446  -8.384  10.581  1.00  0.00     0.169 HD
BRANCH  15  17
HETATM   17  C   UNL     1      42.963  -8.660  12.562  1.00  0.00     0.035 A 
HETATM   18  C   UNL     1      43.503  -7.590  13.276  1.00  0.00     0.029 A 
HETATM   19  C   UNL     1      42.958  -7.212  14.508  1.00  0.00     0.002 A 
HETATM   20  C   UNL     1      41.871  -7.904  15.038  1.00  0.00     0.000 A 
HETATM   21  C   UNL     1      41.329  -8.977  14.337  1.00  0.00     0.002 A 
HETATM   22  C   UNL     1      41.872  -9.353  13.105  1.00  0.00     0.029 A 
ENDBRANCH  15  17
ENDBRANCH  11  13
ENDBRANCH   6   7
BRANCH   1  23
HETATM   23  C   UNL     1      41.540  -9.529   6.458  1.00  0.00     0.306 C 
BRANCH  23  24
HETATM   24  N   UNL     1      40.658  -9.732   7.609  1.00  0.00     0.082 N 
HETATM   25  H   UNL     1      40.980 -10.562   8.108  1.00  0.00     0.313 HD
HETATM   26  H   UNL     1      40.797  -8.956   8.258  1.00  0.00     0.313 HD
ENDBRANCH  23  24
ENDBRANCH   1  23
BRANCH   4  27
HETATM   27  C   UNL     1      43.049 -14.429   3.687  1.00  0.00     0.256 C 
HETATM   28  O   UNL     1      43.468 -14.275   2.544  1.00  0.00    -0.267 OA
HETATM   29  N   UNL     1      42.856 -15.642   4.320  1.00  0.00    -0.320 N 
HETATM   30  H   UNL     1      42.398 -15.648   5.224  1.00  0.00     0.169 HD
BRANCH  29  31
HETATM   31  C   UNL     1      43.173 -16.927   3.815  1.00  0.00     0.076 A 
HETATM   32  C   UNL     1      42.644 -17.467   2.646  1.00  0.00     0.052 A 
HETATM   33  C   UNL     1      43.048 -18.741   2.261  1.00  0.00     0.118 A 
HETATM   34  N   UNL     1      43.932 -19.496   2.950  1.00  0.00    -0.270 NA
HETATM   35  C   UNL     1      44.436 -18.950   4.080  1.00  0.00     0.160 A 
HETATM   36  C   UNL     1      44.088 -17.692   4.538  1.00  0.00     0.160 A 
HETATM   37  F   UNL     1      44.632 -17.210   5.666  1.00  0.00    -0.202 F 
ENDBRANCH  29  31
ENDBRANCH   4  27
TORSDOF 7
ENDMDL
MODEL 6
REMARK VINA RESULT:      -8.8      3.829      8.269
REMARK  7 active torsions:
REMARK  status: ('A' for Active; 'I' for Inactive)
REMARK    1  A    between atoms: N_1  and  C_2 
REMARK    2  A    between atoms: C_2  and  C_3 
REMARK    3  A    between atoms: C_6  and  C_24 
REMARK    4  A    between atoms: C_8  and  C_9 
REMARK    5  A    between atoms: C_13  and  C_15 
REMARK       I    between atoms: C_15  and  N_17 
REMARK    6  A    between atoms: N_17  and  C_18 
REMARK       I    between atoms: C_24  and  N_26 
REMARK    7  A    between atoms: N_26  and  C_27 
ROOT
HETATM    1  C   UNL     1      42.903 -12.306   6.112  1.00  0.00    -0.020 A 
HETATM    2  C   UNL     1      43.933 -13.102   6.647  1.00  0.00     0.011 A 
HETATM    3  C   UNL     1      43.948 -14.483   6.454  1.00  0.00     0.017 A 
HETATM    4  C   UNL     1      42.940 -15.103   5.711  1.00  0.00     0.033 A 
HETATM    5  C   UNL     1      41.914 -14.321   5.161  1.00  0.00     0.030 A 
HETATM    6  C   UNL     1      41.885 -12.920   5.337  1.00  0.00    -0.017 A 
ENDROOT
BRANCH   6   7
HETATM    7  C   UNL     1      40.793 -12.145   4.719  1.00  0.00    -0.024 A 
HETATM    8  C   UNL     1      40.049 -11.212   5.457  1.00  0.00     0.012 A 
HETATM    9  C   UNL     1      39.048 -10.451   4.847  1.00  0.00     0.002 A 
HETATM   10  C   UNL     1      38.803 -10.586   3.481  1.00  0.00     0.017 A 
HETATM   11  C   UNL     1      39.544 -11.500   2.725  1.00  0.00     0.033 A 
HETATM   12  C   UNL     1      40.492 -12.311   3.359  1.00  0.00     0.029 A 
BRANCH  11  13
HETATM   13  C   UNL     1      39.334 -11.550   1.249  1.00  0.00     0.256 C 
HETATM   14  O   UNL     1      39.335 -10.493   0.629  1.00  0.00    -0.267 OA
HETATM   15  N   UNL     1      39.209 -12.825   0.724  1.00  0.00    -0.323 N 
HETATM   16  H   UNL     1      39.279 -13.604   1.370  1.00  0.00     0.169 HD
BRANCH  15  17
HETATM   17  C   UNL     1      39.071 -13.187  -0.633  1.00  0.00     0.035 A 
HETATM   18  C   UNL     1      40.012 -13.932  -1.345  1.00  0.00     0.029 A 
HETATM   19  C   UNL     1      39.786 -14.265  -2.686  1.00  0.00     0.002 A 
HETATM   20  C   UNL     1      38.621 -13.851  -3.326  1.00  0.00     0.000 A 
HETATM   21  C   UNL     1      37.679 -13.102  -2.627  1.00  0.00     0.002 A 
HETATM   22  C   UNL     1      37.903 -12.772  -1.287  1.00  0.00     0.029 A 
ENDBRANCH  15  17
ENDBRANCH  11  13
ENDBRANCH   6   7
BRANCH   1  23
HETATM   23  C   UNL     1      42.924 -10.823   6.425  1.00  0.00     0.306 C 
BRANCH  23  24
HETATM   24  N   UNL     1      42.774 -10.556   7.857  1.00  0.00     0.082 N 
HETATM   25  H   UNL     1      42.757  -9.544   7.987  1.00  0.00     0.313 HD
HETATM   26  H   UNL     1      41.851 -10.882   8.147  1.00  0.00     0.313 HD
ENDBRANCH  23  24
ENDBRANCH   1  23
BRANCH   4  27
HETATM   27  C   UNL     1      42.978 -16.590   5.584  1.00  0.00     0.256 C 
HETATM   28  O   UNL     1      42.460 -17.260   6.471  1.00  0.00    -0.267 OA
HETATM   29  N   UNL     1      43.621 -17.088   4.467  1.00  0.00    -0.320 N 
HETATM   30  H   UNL     1      44.110 -16.439   3.861  1.00  0.00     0.169 HD
BRANCH  29  31
HETATM   31  C   UNL     1      43.741 -18.447   4.087  1.00  0.00     0.076 A 
HETATM   32  C   UNL     1      44.095 -19.480   4.952  1.00  0.00     0.052 A 
HETATM   33  C   UNL     1      44.168 -20.773   4.447  1.00  0.00     0.118 A 
HETATM   34  N   UNL     1      43.912 -21.100   3.160  1.00  0.00    -0.270 NA
HETATM   35  C   UNL     1      43.567 -20.082   2.339  1.00  0.00     0.160 A 
HETATM   36  C   UNL     1      43.472 -18.767   2.756  1.00  0.00     0.160 A 
HETATM   37  F   UNL     1      43.119 -17.806   1.888  1.00  0.00    -0.202 F 
ENDBRANCH  29  31
ENDBRANCH   4  27
TORSDOF 7
ENDMDL
MODEL 7
REMARK VINA RESULT:      -8.8      2.961      5.105
REMARK  7 active torsions:
REMARK  status: ('A' for Active; 'I' for Inactive)
REMARK    1  A    between atoms: N_1  and  C_2 
REMARK    2  A    between atoms: C_2  and  C_3 
REMARK    3  A    between atoms: C_6  and  C_24 
REMARK    4  A    between atoms: C_8  and  C_9 
REMARK    5  A    between atoms: C_13  and  C_15 
REMARK       I    between atoms: C_15  and  N_17 
REMARK    6  A    between atoms: N_17  and  C_18 
REMARK       I    between atoms: C_24  and  N_26 
REMARK    7  A    between atoms: N_26  and  C_27 
ROOT
HETATM    1  C   UNL     1      43.311 -14.207   5.663  1.00  0.00    -0.020 A 
HETATM    2  C   UNL     1      42.635 -14.970   4.692  1.00  0.00     0.011 A 
HETATM    3  C   UNL     1      42.034 -14.362   3.590  1.00  0.00     0.017 A 
HETATM    4  C   UNL     1      42.103 -12.976   3.424  1.00  0.00     0.033 A 
HETATM    5  C   UNL     1      42.784 -12.205   4.377  1.00  0.00     0.030 A 
HETATM    6  C   UNL     1      43.407 -12.801   5.495  1.00  0.00    -0.017 A 
ENDROOT
BRANCH   6   7
HETATM    7  C   UNL     1      44.127 -11.943   6.453  1.00  0.00    -0.024 A 
HETATM    8  C   UNL     1      45.500 -11.687   6.319  1.00  0.00     0.012 A 
HETATM    9  C   UNL     1      46.160 -10.834   7.207  1.00  0.00     0.002 A 
HETATM   10  C   UNL     1      45.447 -10.195   8.221  1.00  0.00     0.017 A 
HETATM   11  C   UNL     1      44.075 -10.424   8.362  1.00  0.00     0.033 A 
HETATM   12  C   UNL     1      43.438 -11.338   7.515  1.00  0.00     0.029 A 
BRANCH  11  13
HETATM   13  C   UNL     1      43.318  -9.649   9.388  1.00  0.00     0.256 C 
HETATM   14  O   UNL     1      42.397  -8.935   9.009  1.00  0.00    -0.267 OA
HETATM   15  N   UNL     1      43.718  -9.871  10.695  1.00  0.00    -0.323 N 
HETATM   16  H   UNL     1      44.470 -10.536  10.846  1.00  0.00     0.169 HD
BRANCH  15  17
HETATM   17  C   UNL     1      43.148  -9.338  11.871  1.00  0.00     0.035 A 
HETATM   18  C   UNL     1      43.576  -8.159  12.484  1.00  0.00     0.029 A 
HETATM   19  C   UNL     1      42.941  -7.689  13.639  1.00  0.00     0.002 A 
HETATM   20  C   UNL     1      41.877  -8.397  14.193  1.00  0.00     0.000 A 
HETATM   21  C   UNL     1      41.447  -9.577  13.594  1.00  0.00     0.002 A 
HETATM   22  C   UNL     1      42.080 -10.045  12.439  1.00  0.00     0.029 A 
ENDBRANCH  15  17
ENDBRANCH  11  13
ENDBRANCH   6   7
BRANCH   1  23
HETATM   23  C   UNL     1      43.877 -14.937   6.864  1.00  0.00     0.306 C 
BRANCH  23  24
HETATM   24  N   UNL     1      42.889 -15.096   7.933  1.00  0.00     0.082 N 
HETATM   25  H   UNL     1      42.663 -16.089   8.005  1.00  0.00     0.313 HD
HETATM   26  H   UNL     1      43.337 -14.856   8.819  1.00  0.00     0.313 HD
ENDBRANCH  23  24
ENDBRANCH   1  23
BRANCH   4  27
HETATM   27  C   UNL     1      41.394 -12.375   2.255  1.00  0.00     0.256 C 
HETATM   28  O   UNL     1      41.834 -11.330   1.787  1.00  0.00    -0.267 OA
HETATM   29  N   UNL     1      40.275 -13.052   1.810  1.00  0.00    -0.320 N 
HETATM   30  H   UNL     1      39.943 -13.844   2.349  1.00  0.00     0.169 HD
BRANCH  29  31
HETATM   31  C   UNL     1      39.470 -12.725   0.692  1.00  0.00     0.076 A 
HETATM   32  C   UNL     1      38.557 -11.674   0.657  1.00  0.00     0.052 A 
HETATM   33  C   UNL     1      37.835 -11.461  -0.511  1.00  0.00     0.118 A 
HETATM   34  N   UNL     1      37.963 -12.209  -1.629  1.00  0.00    -0.270 NA
HETATM   35  C   UNL     1      38.858 -13.222  -1.575  1.00  0.00     0.160 A 
HETATM   36  C   UNL     1      39.616 -13.508  -0.454  1.00  0.00     0.160 A 
HETATM   37  F   UNL     1      40.490 -14.526  -0.471  1.00  0.00    -0.202 F 
ENDBRANCH  29  31
ENDBRANCH   4  27
TORSDOF 7
ENDMDL
MODEL 8
REMARK VINA RESULT:      -8.5      6.593     13.182
REMARK  7 active torsions:
REMARK  status: ('A' for Active; 'I' for Inactive)
REMARK    1  A    between atoms: N_1  and  C_2 
REMARK    2  A    between atoms: C_2  and  C_3 
REMARK    3  A    between atoms: C_6  and  C_24 
REMARK    4  A    between atoms: C_8  and  C_9 
REMARK    5  A    between atoms: C_13  and  C_15 
REMARK       I    between atoms: C_15  and  N_17 
REMARK    6  A    between atoms: N_17  and  C_18 
REMARK       I    between atoms: C_24  and  N_26 
REMARK    7  A    between atoms: N_26  and  C_27 
ROOT
HETATM    1  C   UNL     1      41.208  -5.724  14.580  1.00  0.00    -0.020 A 
HETATM    2  C   UNL     1      41.420  -4.829  15.645  1.00  0.00     0.011 A 
HETATM    3  C   UNL     1      41.550  -5.289  16.955  1.00  0.00     0.017 A 
HETATM    4  C   UNL     1      41.482  -6.657  17.233  1.00  0.00     0.033 A 
HETATM    5  C   UNL     1      41.283  -7.561  16.180  1.00  0.00     0.030 A 
HETATM    6  C   UNL     1      41.158  -7.117  14.845  1.00  0.00    -0.017 A 
ENDROOT
BRANCH   6   7
HETATM    7  C   UNL     1      40.971  -8.115  13.776  1.00  0.00    -0.024 A 
HETATM    8  C   UNL     1      39.693  -8.448  13.301  1.00  0.00     0.012 A 
HETATM    9  C   UNL     1      39.533  -9.360  12.254  1.00  0.00     0.002 A 
HETATM   10  C   UNL     1      40.652  -9.925  11.644  1.00  0.00     0.017 A 
HETATM   11  C   UNL     1      41.934  -9.595  12.092  1.00  0.00     0.033 A 
HETATM   12  C   UNL     1      42.082  -8.739  13.189  1.00  0.00     0.029 A 
BRANCH  11  13
HETATM   13  C   UNL     1      43.115 -10.132  11.354  1.00  0.00     0.256 C 
HETATM   14  O   UNL     1      43.811 -10.972  11.911  1.00  0.00    -0.267 OA
HETATM   15  N   UNL     1      43.266  -9.644  10.067  1.00  0.00    -0.323 N 
HETATM   16  H   UNL     1      42.570  -8.984   9.735  1.00  0.00     0.169 HD
BRANCH  15  17
HETATM   17  C   UNL     1      44.239 -10.015   9.115  1.00  0.00     0.035 A 
HETATM   18  C   UNL     1      44.127 -11.121   8.270  1.00  0.00     0.029 A 
HETATM   19  C   UNL     1      45.131 -11.406   7.338  1.00  0.00     0.002 A 
HETATM   20  C   UNL     1      46.257 -10.592   7.247  1.00  0.00     0.000 A 
HETATM   21  C   UNL     1      46.382  -9.491   8.090  1.00  0.00     0.002 A 
HETATM   22  C   UNL     1      45.377  -9.204   9.018  1.00  0.00     0.029 A 
ENDBRANCH  15  17
ENDBRANCH  11  13
ENDBRANCH   6   7
BRANCH   1  23
HETATM   23  C   UNL     1      41.010  -5.139  13.196  1.00  0.00     0.306 C 
BRANCH  23  24
HETATM   24  N   UNL     1      42.273  -4.988  12.472  1.00  0.00     0.082 N 
HETATM   25  H   UNL     1      42.802  -4.236  12.917  1.00  0.00     0.313 HD
HETATM   26  H   UNL     1      42.827  -5.832  12.618  1.00  0.00     0.313 HD
ENDBRANCH  23  24
ENDBRANCH   1  23
BRANCH   4  27
HETATM   27  C   UNL     1      41.572  -7.087  18.660  1.00  0.00     0.256 C 
HETATM   28  O   UNL     1      41.579  -6.218  19.526  1.00  0.00    -0.267 OA
HETATM   29  N   UNL     1      41.662  -8.448  18.881  1.00  0.00    -0.320 N 
HETATM   30  H   UNL     1      41.762  -9.061  18.080  1.00  0.00     0.169 HD
BRANCH  29  31
HETATM   31  C   UNL     1      41.697  -9.109  20.133  1.00  0.00     0.076 A 
HETATM   32  C   UNL     1      42.855  -9.336  20.872  1.00  0.00     0.052 A 
HETATM   33  C   UNL     1      42.745  -9.992  22.092  1.00  0.00     0.118 A 
HETATM   34  N   UNL     1      41.577 -10.425  22.618  1.00  0.00    -0.270 NA
HETATM   35  C   UNL     1      40.465 -10.189  21.886  1.00  0.00     0.160 A 
HETATM   36  C   UNL     1      40.482  -9.547  20.661  1.00  0.00     0.160 A 
HETATM   37  F   UNL     1      39.339  -9.341  19.989  1.00  0.00    -0.202 F 
ENDBRANCH  29  31
ENDBRANCH   4  27
TORSDOF 7
ENDMDL
MODEL 9
REMARK VINA RESULT:      -8.4      4.325      8.829
REMARK  7 active torsions:
REMARK  status: ('A' for Active; 'I' for Inactive)
REMARK    1  A    between atoms: N_1  and  C_2 
REMARK    2  A    between atoms: C_2  and  C_3 
REMARK    3  A    between atoms: C_6  and  C_24 
REMARK    4  A    between atoms: C_8  and  C_9 
REMARK    5  A    between atoms: C_13  and  C_15 
REMARK       I    between atoms: C_15  and  N_17 
REMARK    6  A    between atoms: N_17  and  C_18 
REMARK       I    between atoms: C_24  and  N_26 
REMARK    7  A    between atoms: N_26  and  C_27 
ROOT
HETATM    1  C   UNL     1      40.051 -11.022   5.246  1.00  0.00    -0.020 A 
HETATM    2  C   UNL     1      39.063 -10.335   4.517  1.00  0.00     0.011 A 
HETATM    3  C   UNL     1      38.918 -10.531   3.144  1.00  0.00     0.017 A 
HETATM    4  C   UNL     1      39.748 -11.429   2.467  1.00  0.00     0.033 A 
HETATM    5  C   UNL     1      40.728 -12.129   3.183  1.00  0.00     0.030 A 
HETATM    6  C   UNL     1      40.887 -11.952   4.575  1.00  0.00    -0.017 A 
ENDROOT
BRANCH   6   7
HETATM    7  C   UNL     1      41.921 -12.731   5.281  1.00  0.00    -0.024 A 
HETATM    8  C   UNL     1      42.789 -12.129   6.205  1.00  0.00     0.012 A 
HETATM    9  C   UNL     1      43.733 -12.888   6.901  1.00  0.00     0.002 A 
HETATM   10  C   UNL     1      43.799 -14.267   6.710  1.00  0.00     0.017 A 
HETATM   11  C   UNL     1      42.933 -14.889   5.804  1.00  0.00     0.033 A 
HETATM   12  C   UNL     1      42.042 -14.111   5.057  1.00  0.00     0.029 A 
BRANCH  11  13
HETATM   13  C   UNL     1      42.953 -16.377   5.695  1.00  0.00     0.256 C 
HETATM   14  O   UNL     1      42.407 -17.028   6.577  1.00  0.00    -0.267 OA
HETATM   15  N   UNL     1      43.559 -16.867   4.550  1.00  0.00    -0.323 N 
HETATM   16  H   UNL     1      43.922 -16.188   3.888  1.00  0.00     0.169 HD
BRANCH  15  17
HETATM   17  C   UNL     1      43.667 -18.213   4.143  1.00  0.00     0.035 A 
HETATM   18  C   UNL     1      43.447 -18.658   2.838  1.00  0.00     0.029 A 
HETATM   19  C   UNL     1      43.597 -20.012   2.516  1.00  0.00     0.002 A 
HETATM   20  C   UNL     1      43.962 -20.931   3.496  1.00  0.00     0.000 A 
HETATM   21  C   UNL     1      44.177 -20.499   4.801  1.00  0.00     0.002 A 
HETATM   22  C   UNL     1      44.031 -19.147   5.122  1.00  0.00     0.029 A 
ENDBRANCH  15  17
ENDBRANCH  11  13
ENDBRANCH   6   7
BRANCH   1  23
HETATM   23  C   UNL     1      40.189 -10.701   6.722  1.00  0.00     0.306 C 
BRANCH  23  24
HETATM   24  N   UNL     1      40.082  -9.266   6.989  1.00  0.00     0.082 N 
HETATM   25  H   UNL     1      39.550  -8.844   6.227  1.00  0.00     0.313 HD
HETATM   26  H   UNL     1      39.508  -9.139   7.824  1.00  0.00     0.313 HD
ENDBRANCH  23  24
ENDBRANCH   1  23
BRANCH   4  27
HETATM   27  C   UNL     1      39.582 -11.557   0.988  1.00  0.00     0.256 C 
HETATM   28  O   UNL     1      39.718 -10.549   0.302  1.00  0.00    -0.267 OA
HETATM   29  N   UNL     1      39.265 -12.817   0.519  1.00  0.00    -0.320 N 
HETATM   30  H   UNL     1      39.067 -13.547   1.194  1.00  0.00     0.169 HD
BRANCH  29  31
HETATM   31  C   UNL     1      39.115 -13.211  -0.833  1.00  0.00     0.076 A 
HETATM   32  C   UNL     1      40.005 -14.036  -1.517  1.00  0.00     0.052 A 
HETATM   33  C   UNL     1      39.732 -14.351  -2.843  1.00  0.00     0.118 A 
HETATM   34  N   UNL     1      38.648 -13.910  -3.519  1.00  0.00    -0.270 NA
HETATM   35  C   UNL     1      37.796 -13.114  -2.834  1.00  0.00     0.160 A 
HETATM   36  C   UNL     1      37.990 -12.748  -1.515  1.00  0.00     0.160 A 
HETATM   37  F   UNL     1      37.100 -11.958  -0.894  1.00  0.00    -0.202 F 
ENDBRANCH  29  31
ENDBRANCH   4  27
TORSDOF 7
ENDMDL
MODEL 10
REMARK VINA RESULT:      -8.2      5.334      9.592
REMARK  7 active torsions:
REMARK  status: ('A' for Active; 'I' for Inactive)
REMARK    1  A    between atoms: N_1  and  C_2 
REMARK    2  A    between atoms: C_2  and  C_3 
REMARK    3  A    between atoms: C_6  and  C_24 
REMARK    4  A    between atoms: C_8  and  C_9 
REMARK    5  A    between atoms: C_13  and  C_15 
REMARK       I    between atoms: C_15  and  N_17 
REMARK    6  A    between atoms: N_17  and  C_18 
REMARK       I    between atoms: C_24  and  N_26 
REMARK    7  A    between atoms: N_26  and  C_27 
ROOT
HETATM    1  C   UNL     1      39.633  -8.254  12.828  1.00  0.00    -0.020 A 
HETATM    2  C   UNL     1      39.488  -9.022  11.658  1.00  0.00     0.011 A 
HETATM    3  C   UNL     1      40.588  -9.634  11.060  1.00  0.00     0.017 A 
HETATM    4  C   UNL     1      41.861  -9.504  11.622  1.00  0.00     0.033 A 
HETATM    5  C   UNL     1      42.018  -8.752  12.795  1.00  0.00     0.030 A 
HETATM    6  C   UNL     1      40.916  -8.131  13.422  1.00  0.00    -0.017 A 
ENDROOT
BRANCH   6   7
HETATM    7  C   UNL     1      41.138  -7.370  14.665  1.00  0.00    -0.024 A 
HETATM    8  C   UNL     1      41.344  -5.981  14.646  1.00  0.00     0.012 A 
HETATM    9  C   UNL     1      41.506  -5.265  15.835  1.00  0.00     0.002 A 
HETATM   10  C   UNL     1      41.427  -5.922  17.062  1.00  0.00     0.017 A 
HETATM   11  C   UNL     1      41.206  -7.303  17.103  1.00  0.00     0.033 A 
HETATM   12  C   UNL     1      41.121  -8.023  15.906  1.00  0.00     0.029 A 
BRANCH  11  13
HETATM   13  C   UNL     1      41.022  -7.963  18.428  1.00  0.00     0.256 C 
HETATM   14  O   UNL     1      39.879  -8.176  18.814  1.00  0.00    -0.267 OA
HETATM   15  N   UNL     1      42.198  -8.318  19.068  1.00  0.00    -0.323 N 
HETATM   16  H   UNL     1      43.069  -8.114  18.589  1.00  0.00     0.169 HD
BRANCH  15  17
HETATM   17  C   UNL     1      42.337  -9.011  20.289  1.00  0.00     0.035 A 
HETATM   18  C   UNL     1      41.593 -10.139  20.640  1.00  0.00     0.029 A 
HETATM   19  C   UNL     1      41.809 -10.779  21.865  1.00  0.00     0.002 A 
HETATM   20  C   UNL     1      42.767 -10.293  22.752  1.00  0.00     0.000 A 
HETATM   21  C   UNL     1      43.509  -9.166  22.416  1.00  0.00     0.002 A 
HETATM   22  C   UNL     1      43.296  -8.528  21.190  1.00  0.00     0.029 A 
ENDBRANCH  15  17
ENDBRANCH  11  13
ENDBRANCH   6   7
BRANCH   1  23
HETATM   23  C   UNL     1      38.399  -7.566  13.378  1.00  0.00     0.306 C 
BRANCH  23  24
HETATM   24  N   UNL     1      37.452  -7.200  12.322  1.00  0.00     0.082 N 
HETATM   25  H   UNL     1      37.386  -7.986  11.674  1.00  0.00     0.313 HD
HETATM   26  H   UNL     1      36.525  -7.116  12.741  1.00  0.00     0.313 HD
ENDBRANCH  23  24
ENDBRANCH   1  23
BRANCH   4  27
HETATM   27  C   UNL     1      43.010 -10.136  10.907  1.00  0.00     0.256 C 
HETATM   28  O   UNL     1      43.792 -10.819  11.560  1.00  0.00    -0.267 OA
HETATM   29  N   UNL     1      43.102  -9.873   9.554  1.00  0.00    -0.320 N 
HETATM   30  H   UNL     1      42.460  -9.202   9.148  1.00  0.00     0.169 HD
BRANCH  29  31
HETATM   31  C   UNL     1      44.055 -10.396   8.646  1.00  0.00     0.076 A 
HETATM   32  C   UNL     1      43.838 -11.499   7.824  1.00  0.00     0.052 A 
HETATM   33  C   UNL     1      44.859 -11.903   6.972  1.00  0.00     0.118 A 
HETATM   34  N   UNL     1      46.061 -11.288   6.884  1.00  0.00    -0.270 NA
HETATM   35  C   UNL     1      46.248 -10.218   7.689  1.00  0.00     0.160 A 
HETATM   36  C   UNL     1      45.288  -9.749   8.568  1.00  0.00     0.160 A 
HETATM   37  F   UNL     1      45.539  -8.677   9.334  1.00  0.00    -0.202 F 
ENDBRANCH  29  31
ENDBRANCH   4  27
TORSDOF 7
ENDMDL
