MODEL 1
REMARK VINA RESULT:      -8.1      0.000      0.000
REMARK  5 active torsions:
REMARK  status: ('A' for Active; 'I' for Inactive)
REMARK    1  A    between atoms: C_2  and  O_3 
REMARK    2  A    between atoms: C_2  and  C_4 
REMARK    3  A    between atoms: C_4  and  N_5 
REMARK       I    between atoms: N_5  and  C_6 
REMARK    4  A    between atoms: C_6  and  C_7 
REMARK    5  A    between atoms: C_15  and  C_16 
ROOT
HETATM    1  C   UNL     1      42.786 -13.258   3.226  1.00  0.00     0.046 A 
HETATM    2  C   UNL     1      41.961 -13.177   2.083  1.00  0.00     0.008 A 
HETATM    3  C   UNL     1      41.613 -14.405   1.488  1.00  0.00     0.068 A 
HETATM    4  C   UNL     1      40.796 -14.399   0.365  1.00  0.00     0.032 A 
HETATM    5  C   UNL     1      40.309 -13.215  -0.191  1.00  0.00     0.002 A 
HETATM    6  C   UNL     1      40.643 -11.999   0.387  1.00  0.00     0.001 A 
HETATM    7  C   UNL     1      41.460 -11.978   1.516  1.00  0.00     0.015 A 
HETATM    8  N   UNL     1      42.029 -15.592   1.961  1.00  0.00    -0.248 NA
HETATM    9  C   UNL     1      42.826 -15.645   3.055  1.00  0.00     0.068 A 
HETATM   10  C   UNL     1      43.229 -14.493   3.708  1.00  0.00     0.050 A 
ENDROOT
BRANCH   1  11
HETATM   11  C   UNL     1      43.241 -12.043   3.947  1.00  0.00     0.252 C 
HETATM   12  N   UNL     1      42.784 -11.924   5.242  1.00  0.00    -0.354 N 
HETATM   13  H   UNL     1      42.096 -12.573   5.603  1.00  0.00     0.162 HD
HETATM   14  O   UNL     1      43.966 -11.218   3.408  1.00  0.00    -0.268 OA
BRANCH  12  15
HETATM   15  C   UNL     1      43.162 -10.797   6.083  1.00  0.00     0.154 C 
BRANCH  15  16
HETATM   16  C   UNL     1      44.106 -11.212   7.220  1.00  0.00     0.132 C 
HETATM   17  C   UNL     1      45.538 -11.339   6.725  1.00  0.00     0.041 C 
BRANCH  16  18
HETATM   18  O   UNL     1      43.699 -12.485   7.733  1.00  0.00    -0.394 OA
HETATM   19  H   UNL     1      43.722 -12.400   8.703  1.00  0.00     0.210 HD
ENDBRANCH  16  18
ENDBRANCH  15  16
ENDBRANCH  12  15
ENDBRANCH   1  11
BRANCH   9  20
HETATM   20  C   UNL     1      43.232 -17.000   3.485  1.00  0.00    -0.007 A 
HETATM   21  C   UNL     1      43.547 -17.260   4.833  1.00  0.00     0.015 A 
HETATM   22  C   UNL     1      43.932 -18.535   5.262  1.00  0.00     0.024 A 
HETATM   23  C   UNL     1      44.014 -19.575   4.344  1.00  0.00     0.034 A 
HETATM   24 CL   UNL     1      44.486 -21.144   4.865  1.00  0.00    -0.084 Cl
HETATM   25  C   UNL     1      43.718 -19.350   3.004  1.00  0.00     0.024 A 
HETATM   26  C   UNL     1      43.332 -18.073   2.579  1.00  0.00     0.015 A 
ENDBRANCH   9  20
TORSDOF 5
ENDMDL
MODEL 2
REMARK VINA RESULT:      -8.1      2.936      5.701
REMARK  5 active torsions:
REMARK  status: ('A' for Active; 'I' for Inactive)
REMARK    1  A    between atoms: C_2  and  O_3 
REMARK    2  A    between atoms: C_2  and  C_4 
REMARK    3  A    between atoms: C_4  and  N_5 
REMARK       I    between atoms: N_5  and  C_6 
REMARK    4  A    between atoms: C_6  and  C_7 
REMARK    5  A    between atoms: C_15  and  C_16 
ROOT
HETATM    1  C   UNL     1      42.694 -14.718   4.290  1.00  0.00     0.046 A 
HETATM    2  C   UNL     1      43.171 -16.032   4.089  1.00  0.00     0.008 A 
HETATM    3  C   UNL     1      42.906 -16.595   2.827  1.00  0.00     0.068 A 
HETATM    4  C   UNL     1      43.353 -17.883   2.559  1.00  0.00     0.032 A 
HETATM    5  C   UNL     1      44.058 -18.633   3.501  1.00  0.00     0.002 A 
HETATM    6  C   UNL     1      44.328 -18.089   4.747  1.00  0.00     0.001 A 
HETATM    7  C   UNL     1      43.891 -16.798   5.041  1.00  0.00     0.015 A 
HETATM    8  N   UNL     1      42.242 -15.942   1.858  1.00  0.00    -0.248 NA
HETATM    9  C   UNL     1      41.788 -14.685   2.075  1.00  0.00     0.068 A 
HETATM   10  C   UNL     1      41.992 -14.045   3.285  1.00  0.00     0.050 A 
ENDROOT
BRANCH   1  11
HETATM   11  C   UNL     1      42.891 -14.005   5.578  1.00  0.00     0.252 C 
HETATM   12  N   UNL     1      43.745 -12.924   5.524  1.00  0.00    -0.354 N 
HETATM   13  H   UNL     1      44.272 -12.730   4.682  1.00  0.00     0.162 HD
HETATM   14  O   UNL     1      42.329 -14.372   6.599  1.00  0.00    -0.268 OA
BRANCH  12  15
HETATM   15  C   UNL     1      44.021 -12.112   6.701  1.00  0.00     0.154 C 
BRANCH  15  16
HETATM   16  C   UNL     1      45.465 -11.593   6.722  1.00  0.00     0.132 C 
HETATM   17  C   UNL     1      45.632 -10.477   7.742  1.00  0.00     0.041 C 
BRANCH  16  18
HETATM   18  O   UNL     1      45.799 -11.069   5.432  1.00  0.00    -0.394 OA
HETATM   19  H   UNL     1      46.347 -10.282   5.599  1.00  0.00     0.210 HD
ENDBRANCH  16  18
ENDBRANCH  15  16
ENDBRANCH  12  15
ENDBRANCH   1  11
BRANCH   9  20
HETATM   20  C   UNL     1      41.063 -14.062   0.946  1.00  0.00    -0.007 A 
HETATM   21  C   UNL     1      40.214 -14.833   0.129  1.00  0.00     0.015 A 
HETATM   22  C   UNL     1      39.516 -14.265  -0.943  1.00  0.00     0.024 A 
HETATM   23  C   UNL     1      39.662 -12.911  -1.219  1.00  0.00     0.034 A 
HETATM   24 CL   UNL     1      38.808 -12.206  -2.535  1.00  0.00    -0.084 Cl
HETATM   25  C   UNL     1      40.500 -12.123  -0.437  1.00  0.00     0.024 A 
HETATM   26  C   UNL     1      41.196 -12.696   0.636  1.00  0.00     0.015 A 
ENDBRANCH   9  20
TORSDOF 5
ENDMDL
MODEL 3
REMARK VINA RESULT:      -8.0      2.464      5.129
REMARK  5 active torsions:
REMARK  status: ('A' for Active; 'I' for Inactive)
REMARK    1  A    between atoms: C_2  and  O_3 
REMARK    2  A    between atoms: C_2  and  C_4 
REMARK    3  A    between atoms: C_4  and  N_5 
REMARK       I    between atoms: N_5  and  C_6 
REMARK    4  A    between atoms: C_6  and  C_7 
REMARK    5  A    between atoms: C_15  and  C_16 
ROOT
HETATM    1  C   UNL     1      41.518 -13.618   2.024  1.00  0.00     0.046 A 
HETATM    2  C   UNL     1      42.038 -12.727   2.988  1.00  0.00     0.008 A 
HETATM    3  C   UNL     1      42.872 -13.299   3.967  1.00  0.00     0.068 A 
HETATM    4  C   UNL     1      43.424 -12.478   4.942  1.00  0.00     0.032 A 
HETATM    5  C   UNL     1      43.178 -11.104   4.980  1.00  0.00     0.002 A 
HETATM    6  C   UNL     1      42.360 -10.528   4.020  1.00  0.00     0.001 A 
HETATM    7  C   UNL     1      41.794 -11.330   3.030  1.00  0.00     0.015 A 
HETATM    8  N   UNL     1      43.170 -14.609   4.001  1.00  0.00    -0.248 NA
HETATM    9  C   UNL     1      42.655 -15.446   3.070  1.00  0.00     0.068 A 
HETATM   10  C   UNL     1      41.818 -14.983   2.070  1.00  0.00     0.050 A 
ENDROOT
BRANCH   1  11
HETATM   11  C   UNL     1      40.614 -13.156   0.941  1.00  0.00     0.252 C 
HETATM   12  N   UNL     1      41.191 -13.072  -0.308  1.00  0.00    -0.354 N 
HETATM   13  H   UNL     1      42.188 -13.209  -0.421  1.00  0.00     0.162 HD
HETATM   14  O   UNL     1      39.447 -12.871   1.167  1.00  0.00    -0.268 OA
BRANCH  12  15
HETATM   15  C   UNL     1      40.426 -12.654  -1.474  1.00  0.00     0.154 C 
BRANCH  15  16
HETATM   16  C   UNL     1      41.325 -12.122  -2.599  1.00  0.00     0.132 C 
HETATM   17  C   UNL     1      40.646 -10.991  -3.355  1.00  0.00     0.041 C 
BRANCH  16  18
HETATM   18  O   UNL     1      41.597 -13.177  -3.527  1.00  0.00    -0.394 OA
HETATM   19  H   UNL     1      41.044 -13.927  -3.245  1.00  0.00     0.210 HD
ENDBRANCH  16  18
ENDBRANCH  15  16
ENDBRANCH  12  15
ENDBRANCH   1  11
BRANCH   9  20
HETATM   20  C   UNL     1      43.039 -16.868   3.206  1.00  0.00    -0.007 A 
HETATM   21  C   UNL     1      43.647 -17.335   4.387  1.00  0.00     0.015 A 
HETATM   22  C   UNL     1      44.016 -18.677   4.539  1.00  0.00     0.024 A 
HETATM   23  C   UNL     1      43.787 -19.576   3.504  1.00  0.00     0.034 A 
HETATM   24 CL   UNL     1      44.239 -21.225   3.684  1.00  0.00    -0.084 Cl
HETATM   25  C   UNL     1      43.197 -19.144   2.321  1.00  0.00     0.024 A 
HETATM   26  C   UNL     1      42.828 -17.802   2.174  1.00  0.00     0.015 A 
ENDBRANCH   9  20
TORSDOF 5
ENDMDL
MODEL 4
REMARK VINA RESULT:      -8.0      3.827      6.895
REMARK  5 active torsions:
REMARK  status: ('A' for Active; 'I' for Inactive)
REMARK    1  A    between atoms: C_2  and  O_3 
REMARK    2  A    between atoms: C_2  and  C_4 
REMARK    3  A    between atoms: C_4  and  N_5 
REMARK       I    between atoms: N_5  and  C_6 
REMARK    4  A    between atoms: C_6  and  C_7 
REMARK    5  A    between atoms: C_15  and  C_16 
ROOT
HETATM    1  C   UNL     1      42.757 -15.705   5.061  1.00  0.00     0.046 A 
HETATM    2  C   UNL     1      41.784 -15.386   4.088  1.00  0.00     0.008 A 
HETATM    3  C   UNL     1      41.504 -14.016   3.926  1.00  0.00     0.068 A 
HETATM    4  C   UNL     1      40.562 -13.631   2.980  1.00  0.00     0.032 A 
HETATM    5  C   UNL     1      39.888 -14.559   2.186  1.00  0.00     0.002 A 
HETATM    6  C   UNL     1      40.157 -15.911   2.334  1.00  0.00     0.001 A 
HETATM    7  C   UNL     1      41.098 -16.324   3.275  1.00  0.00     0.015 A 
HETATM    8  N   UNL     1      42.112 -13.054   4.642  1.00  0.00    -0.248 NA
HETATM    9  C   UNL     1      43.037 -13.384   5.574  1.00  0.00     0.068 A 
HETATM   10  C   UNL     1      43.378 -14.704   5.814  1.00  0.00     0.050 A 
ENDROOT
BRANCH   1  11
HETATM   11  C   UNL     1      43.142 -17.110   5.347  1.00  0.00     0.252 C 
HETATM   12  N   UNL     1      43.784 -17.763   4.316  1.00  0.00    -0.354 N 
HETATM   13  H   UNL     1      43.865 -17.327   3.406  1.00  0.00     0.162 HD
HETATM   14  O   UNL     1      42.893 -17.630   6.425  1.00  0.00    -0.268 OA
BRANCH  12  15
HETATM   15  C   UNL     1      44.242 -19.138   4.454  1.00  0.00     0.154 C 
BRANCH  15  16
HETATM   16  C   UNL     1      44.196 -19.901   3.122  1.00  0.00     0.132 C 
HETATM   17  C   UNL     1      43.100 -19.361   2.218  1.00  0.00     0.041 C 
BRANCH  16  18
HETATM   18  O   UNL     1      43.920 -21.283   3.378  1.00  0.00    -0.394 OA
HETATM   19  H   UNL     1      43.447 -21.608   2.592  1.00  0.00     0.210 HD
ENDBRANCH  16  18
ENDBRANCH  15  16
ENDBRANCH  12  15
ENDBRANCH   1  11
BRANCH   9  20
HETATM   20  C   UNL     1      43.636 -12.250   6.309  1.00  0.00    -0.007 A 
HETATM   21  C   UNL     1      42.842 -11.160   6.715  1.00  0.00     0.015 A 
HETATM   22  C   UNL     1      43.387 -10.077   7.415  1.00  0.00     0.024 A 
HETATM   23  C   UNL     1      44.743 -10.064   7.716  1.00  0.00     0.034 A 
HETATM   24 CL   UNL     1      45.420  -8.737   8.574  1.00  0.00    -0.084 Cl
HETATM   25  C   UNL     1      45.557 -11.122   7.322  1.00  0.00     0.024 A 
HETATM   26  C   UNL     1      45.007 -12.203   6.623  1.00  0.00     0.015 A 
ENDBRANCH   9  20
TORSDOF 5
ENDMDL
MODEL 5
REMARK VINA RESULT:      -8.0      3.597      5.437
REMARK  5 active torsions:
REMARK  status: ('A' for Active; 'I' for Inactive)
REMARK    1  A    between atoms: C_2  and  O_3 
REMARK    2  A    between atoms: C_2  and  C_4 
REMARK    3  A    between atoms: C_4  and  N_5 
REMARK       I    between atoms: N_5  and  C_6 
REMARK    4  A    between atoms: C_6  and  C_7 
REMARK    5  A    between atoms: C_15  and  C_16 
ROOT
HETATM    1  C   UNL     1      40.430 -14.363   0.818  1.00  0.00     0.046 A 
HETATM    2  C   UNL     1      39.978 -13.404   1.750  1.00  0.00     0.008 A 
HETATM    3  C   UNL     1      40.350 -13.623   3.089  1.00  0.00     0.068 A 
HETATM    4  C   UNL     1      39.945 -12.714   4.057  1.00  0.00     0.032 A 
HETATM    5  C   UNL     1      39.183 -11.588   3.742  1.00  0.00     0.002 A 
HETATM    6  C   UNL     1      38.811 -11.358   2.426  1.00  0.00     0.001 A 
HETATM    7  C   UNL     1      39.206 -12.256   1.436  1.00  0.00     0.015 A 
HETATM    8  N   UNL     1      41.090 -14.676   3.481  1.00  0.00    -0.248 NA
HETATM    9  C   UNL     1      41.508 -15.587   2.571  1.00  0.00     0.068 A 
HETATM   10  C   UNL     1      41.189 -15.464   1.230  1.00  0.00     0.050 A 
ENDROOT
BRANCH   1  11
HETATM   11  C   UNL     1      40.102 -14.265  -0.626  1.00  0.00     0.252 C 
HETATM   12  N   UNL     1      40.869 -13.370  -1.342  1.00  0.00    -0.354 N 
HETATM   13  H   UNL     1      41.519 -12.758  -0.865  1.00  0.00     0.162 HD
HETATM   14  O   UNL     1      39.207 -14.935  -1.121  1.00  0.00    -0.268 OA
BRANCH  12  15
HETATM   15  C   UNL     1      40.680 -13.178  -2.772  1.00  0.00     0.154 C 
BRANCH  15  16
HETATM   16  C   UNL     1      39.672 -12.062  -3.080  1.00  0.00     0.132 C 
HETATM   17  C   UNL     1      39.699 -10.987  -2.005  1.00  0.00     0.041 C 
BRANCH  16  18
HETATM   18  O   UNL     1      38.352 -12.615  -3.123  1.00  0.00    -0.394 OA
HETATM   19  H   UNL     1      38.470 -13.580  -3.150  1.00  0.00     0.210 HD
ENDBRANCH  16  18
ENDBRANCH  15  16
ENDBRANCH  12  15
ENDBRANCH   1  11
BRANCH   9  20
HETATM   20  C   UNL     1      42.308 -16.708   3.110  1.00  0.00    -0.007 A 
HETATM   21  C   UNL     1      42.677 -16.736   4.468  1.00  0.00     0.015 A 
HETATM   22  C   UNL     1      43.431 -17.789   5.001  1.00  0.00     0.024 A 
HETATM   23  C   UNL     1      43.834 -18.832   4.177  1.00  0.00     0.034 A 
HETATM   24 CL   UNL     1      44.761 -20.128   4.824  1.00  0.00    -0.084 Cl
HETATM   25  C   UNL     1      43.493 -18.831   2.828  1.00  0.00     0.024 A 
HETATM   26  C   UNL     1      42.738 -17.777   2.300  1.00  0.00     0.015 A 
ENDBRANCH   9  20
TORSDOF 5
ENDMDL
MODEL 6
REMARK VINA RESULT:      -7.8      1.530      2.296
REMARK  5 active torsions:
REMARK  status: ('A' for Active; 'I' for Inactive)
REMARK    1  A    between atoms: C_2  and  O_3 
REMARK    2  A    between atoms: C_2  and  C_4 
REMARK    3  A    between atoms: C_4  and  N_5 
REMARK       I    between atoms: N_5  and  C_6 
REMARK    4  A    between atoms: C_6  and  C_7 
REMARK    5  A    between atoms: C_15  and  C_16 
ROOT
HETATM    1  C   UNL     1      42.255 -13.253   2.880  1.00  0.00     0.046 A 
HETATM    2  C   UNL     1      41.413 -13.354   1.751  1.00  0.00     0.008 A 
HETATM    3  C   UNL     1      41.175 -14.658   1.276  1.00  0.00     0.068 A 
HETATM    4  C   UNL     1      40.350 -14.831   0.173  1.00  0.00     0.032 A 
HETATM    5  C   UNL     1      39.748 -13.753  -0.478  1.00  0.00     0.002 A 
HETATM    6  C   UNL     1      39.972 -12.464  -0.020  1.00  0.00     0.001 A 
HETATM    7  C   UNL     1      40.796 -12.264   1.087  1.00  0.00     0.015 A 
HETATM    8  N   UNL     1      41.707 -15.753   1.847  1.00  0.00    -0.248 NA
HETATM    9  C   UNL     1      42.516 -15.632   2.925  1.00  0.00     0.068 A 
HETATM   10  C   UNL     1      42.817 -14.393   3.464  1.00  0.00     0.050 A 
ENDROOT
BRANCH   1  11
HETATM   11  C   UNL     1      42.602 -11.940   3.479  1.00  0.00     0.252 C 
HETATM   12  N   UNL     1      41.868 -11.592   4.594  1.00  0.00    -0.354 N 
HETATM   13  H   UNL     1      41.081 -12.158   4.885  1.00  0.00     0.162 HD
HETATM   14  O   UNL     1      43.475 -11.233   2.998  1.00  0.00    -0.268 OA
BRANCH  12  15
HETATM   15  C   UNL     1      42.107 -10.344   5.304  1.00  0.00     0.154 C 
BRANCH  15  16
HETATM   16  C   UNL     1      41.189  -9.214   4.818  1.00  0.00     0.132 C 
HETATM   17  C   UNL     1      39.802  -9.740   4.485  1.00  0.00     0.041 C 
BRANCH  16  18
HETATM   18  O   UNL     1      41.741  -8.632   3.632  1.00  0.00    -0.394 OA
HETATM   19  H   UNL     1      40.980  -8.411   3.067  1.00  0.00     0.210 HD
ENDBRANCH  16  18
ENDBRANCH  15  16
ENDBRANCH  12  15
ENDBRANCH   1  11
BRANCH   9  20
HETATM   20  C   UNL     1      43.053 -16.898   3.468  1.00  0.00    -0.007 A 
HETATM   21  C   UNL     1      43.290 -17.997   2.619  1.00  0.00     0.015 A 
HETATM   22  C   UNL     1      43.801 -19.204   3.110  1.00  0.00     0.024 A 
HETATM   23  C   UNL     1      44.077 -19.334   4.466  1.00  0.00     0.034 A 
HETATM   24 CL   UNL     1      44.704 -20.815   5.076  1.00  0.00    -0.084 Cl
HETATM   25  C   UNL     1      43.846 -18.271   5.332  1.00  0.00     0.024 A 
HETATM   26  C   UNL     1      43.337 -17.065   4.837  1.00  0.00     0.015 A 
ENDBRANCH   9  20
TORSDOF 5
ENDMDL
MODEL 7
REMARK VINA RESULT:      -7.7      3.149      5.586
REMARK  5 active torsions:
REMARK  status: ('A' for Active; 'I' for Inactive)
REMARK    1  A    between atoms: C_2  and  O_3 
REMARK    2  A    between atoms: C_2  and  C_4 
REMARK    3  A    between atoms: C_4  and  N_5 
REMARK       I    between atoms: N_5  and  C_6 
REMARK    4  A    between atoms: C_6  and  C_7 
REMARK    5  A    between atoms: C_15  and  C_16 
ROOT
HETATM    1  C   UNL     1      40.388 -13.169   1.315  1.00  0.00     0.046 A 
HETATM    2  C   UNL     1      39.909 -12.393   2.393  1.00  0.00     0.008 A 
HETATM    3  C   UNL     1      40.229 -12.863   3.680  1.00  0.00     0.068 A 
HETATM    4  C   UNL     1      39.795 -12.144   4.786  1.00  0.00     0.032 A 
HETATM    5  C   UNL     1      39.054 -10.968   4.660  1.00  0.00     0.002 A 
HETATM    6  C   UNL     1      38.734 -10.492   3.398  1.00  0.00     0.001 A 
HETATM    7  C   UNL     1      39.158 -11.195   2.272  1.00  0.00     0.015 A 
HETATM    8  N   UNL     1      40.945 -13.981   3.894  1.00  0.00    -0.248 NA
HETATM    9  C   UNL     1      41.389 -14.713   2.846  1.00  0.00     0.068 A 
HETATM   10  C   UNL     1      41.121 -14.338   1.541  1.00  0.00     0.050 A 
ENDROOT
BRANCH   1  11
HETATM   11  C   UNL     1      40.114 -12.798  -0.096  1.00  0.00     0.252 C 
HETATM   12  N   UNL     1      38.926 -13.275  -0.607  1.00  0.00    -0.354 N 
HETATM   13  H   UNL     1      38.362 -13.924  -0.072  1.00  0.00     0.162 HD
HETATM   14  O   UNL     1      40.904 -12.123  -0.740  1.00  0.00    -0.268 OA
BRANCH  12  15
HETATM   15  C   UNL     1      38.509 -12.977  -1.970  1.00  0.00     0.154 C 
BRANCH  15  16
HETATM   16  C   UNL     1      38.991 -14.037  -2.970  1.00  0.00     0.132 C 
HETATM   17  C   UNL     1      38.820 -15.440  -2.407  1.00  0.00     0.041 C 
BRANCH  16  18
HETATM   18  O   UNL     1      40.382 -13.835  -3.241  1.00  0.00    -0.394 OA
HETATM   19  H   UNL     1      40.565 -14.324  -4.063  1.00  0.00     0.210 HD
ENDBRANCH  16  18
ENDBRANCH  15  16
ENDBRANCH  12  15
ENDBRANCH   1  11
BRANCH   9  20
HETATM   20  C   UNL     1      42.159 -15.927   3.194  1.00  0.00    -0.007 A 
HETATM   21  C   UNL     1      42.573 -16.156   4.520  1.00  0.00     0.015 A 
HETATM   22  C   UNL     1      43.299 -17.300   4.873  1.00  0.00     0.024 A 
HETATM   23  C   UNL     1      43.630 -18.234   3.899  1.00  0.00     0.034 A 
HETATM   24 CL   UNL     1      44.523 -19.640   4.325  1.00  0.00    -0.084 Cl
HETATM   25  C   UNL     1      43.243 -18.033   2.578  1.00  0.00     0.024 A 
HETATM   26  C   UNL     1      42.515 -16.889   2.229  1.00  0.00     0.015 A 
ENDBRANCH   9  20
TORSDOF 5
ENDMDL
MODEL 8
REMARK VINA RESULT:      -7.6      1.908      4.734
REMARK  5 active torsions:
REMARK  status: ('A' for Active; 'I' for Inactive)
REMARK    1  A    between atoms: C_2  and  O_3 
REMARK    2  A    between atoms: C_2  and  C_4 
REMARK    3  A    between atoms: C_4  and  N_5 
REMARK       I    between atoms: N_5  and  C_6 
REMARK    4  A    between atoms: C_6  and  C_7 
REMARK    5  A    between atoms: C_15  and  C_16 
ROOT
HETATM    1  C   UNL     1      42.457 -12.850   3.556  1.00  0.00     0.046 A 
HETATM    2  C   UNL     1      42.848 -12.422   4.843  1.00  0.00     0.008 A 
HETATM    3  C   UNL     1      43.380 -13.415   5.687  1.00  0.00     0.068 A 
HETATM    4  C   UNL     1      43.792 -13.061   6.965  1.00  0.00     0.032 A 
HETATM    5  C   UNL     1      43.697 -11.750   7.437  1.00  0.00     0.002 A 
HETATM    6  C   UNL     1      43.177 -10.762   6.615  1.00  0.00     0.001 A 
HETATM    7  C   UNL     1      42.758 -11.092   5.328  1.00  0.00     0.015 A 
HETATM    8  N   UNL     1      43.516 -14.699   5.312  1.00  0.00    -0.248 NA
HETATM    9  C   UNL     1      43.128 -15.089   4.075  1.00  0.00     0.068 A 
HETATM   10  C   UNL     1      42.587 -14.189   3.173  1.00  0.00     0.050 A 
ENDROOT
BRANCH   1  11
HETATM   11  C   UNL     1      41.868 -11.913   2.567  1.00  0.00     0.252 C 
HETATM   12  N   UNL     1      40.538 -12.129   2.275  1.00  0.00    -0.354 N 
HETATM   13  H   UNL     1      40.061 -12.945   2.636  1.00  0.00     0.162 HD
HETATM   14  O   UNL     1      42.536 -11.025   2.057  1.00  0.00    -0.268 OA
BRANCH  12  15
HETATM   15  C   UNL     1      39.816 -11.278   1.339  1.00  0.00     0.154 C 
BRANCH  15  16
HETATM   16  C   UNL     1      39.852 -11.829  -0.093  1.00  0.00     0.132 C 
HETATM   17  C   UNL     1      39.793 -13.349  -0.098  1.00  0.00     0.041 C 
BRANCH  16  18
HETATM   18  O   UNL     1      41.074 -11.430  -0.723  1.00  0.00    -0.394 OA
HETATM   19  H   UNL     1      41.607 -12.241  -0.805  1.00  0.00     0.210 HD
ENDBRANCH  16  18
ENDBRANCH  15  16
ENDBRANCH  12  15
ENDBRANCH   1  11
BRANCH   9  20
HETATM   20  C   UNL     1      43.313 -16.524   3.769  1.00  0.00    -0.007 A 
HETATM   21  C   UNL     1      43.920 -17.383   4.706  1.00  0.00     0.015 A 
HETATM   22  C   UNL     1      44.103 -18.745   4.440  1.00  0.00     0.024 A 
HETATM   23  C   UNL     1      43.685 -19.270   3.223  1.00  0.00     0.034 A 
HETATM   24 CL   UNL     1      43.907 -20.942   2.889  1.00  0.00    -0.084 Cl
HETATM   25  C   UNL     1      43.090 -18.447   2.273  1.00  0.00     0.024 A 
HETATM   26  C   UNL     1      42.908 -17.086   2.544  1.00  0.00     0.015 A 
ENDBRANCH   9  20
TORSDOF 5
ENDMDL
MODEL 9
REMARK VINA RESULT:      -7.6      3.640      6.835
REMARK  5 active torsions:
REMARK  status: ('A' for Active; 'I' for Inactive)
REMARK    1  A    between atoms: C_2  and  O_3 
REMARK    2  A    between atoms: C_2  and  C_4 
REMARK    3  A    between atoms: C_4  and  N_5 
REMARK       I    between atoms: N_5  and  C_6 
REMARK    4  A    between atoms: C_6  and  C_7 
REMARK    5  A    between atoms: C_15  and  C_16 
ROOT
HETATM    1  C   UNL     1      42.554 -15.457   4.189  1.00  0.00     0.046 A 
HETATM    2  C   UNL     1      42.969 -14.284   4.857  1.00  0.00     0.008 A 
HETATM    3  C   UNL     1      42.695 -13.071   4.197  1.00  0.00     0.068 A 
HETATM    4  C   UNL     1      43.069 -11.878   4.802  1.00  0.00     0.032 A 
HETATM    5  C   UNL     1      43.707 -11.845   6.043  1.00  0.00     0.002 A 
HETATM    6  C   UNL     1      43.981 -13.032   6.704  1.00  0.00     0.001 A 
HETATM    7  C   UNL     1      43.614 -14.243   6.119  1.00  0.00     0.015 A 
HETATM    8  N   UNL     1      42.077 -13.009   3.005  1.00  0.00    -0.248 NA
HETATM    9  C   UNL     1      41.694 -14.147   2.379  1.00  0.00     0.068 A 
HETATM   10  C   UNL     1      41.924 -15.390   2.942  1.00  0.00     0.050 A 
ENDROOT
BRANCH   1  11
HETATM   11  C   UNL     1      42.790 -16.806   4.761  1.00  0.00     0.252 C 
HETATM   12  N   UNL     1      43.682 -17.591   4.062  1.00  0.00    -0.354 N 
HETATM   13  H   UNL     1      44.040 -17.285   3.166  1.00  0.00     0.162 HD
HETATM   14  O   UNL     1      42.219 -17.173   5.778  1.00  0.00    -0.268 OA
BRANCH  12  15
HETATM   15  C   UNL     1      44.031 -18.931   4.511  1.00  0.00     0.154 C 
BRANCH  15  16
HETATM   16  C   UNL     1      44.188 -19.913   3.342  1.00  0.00     0.132 C 
HETATM   17  C   UNL     1      43.184 -19.618   2.240  1.00  0.00     0.041 C 
BRANCH  16  18
HETATM   18  O   UNL     1      43.957 -21.247   3.809  1.00  0.00    -0.394 OA
HETATM   19  H   UNL     1      43.334 -21.645   3.176  1.00  0.00     0.210 HD
ENDBRANCH  16  18
ENDBRANCH  15  16
ENDBRANCH  12  15
ENDBRANCH   1  11
BRANCH   9  20
HETATM   20  C   UNL     1      41.032 -13.965   1.070  1.00  0.00    -0.007 A 
HETATM   21  C   UNL     1      41.145 -12.746   0.373  1.00  0.00     0.015 A 
HETATM   22  C   UNL     1      40.530 -12.552  -0.869  1.00  0.00     0.024 A 
HETATM   23  C   UNL     1      39.782 -13.578  -1.434  1.00  0.00     0.034 A 
HETATM   24 CL   UNL     1      39.023 -13.347  -2.959  1.00  0.00    -0.084 Cl
HETATM   25  C   UNL     1      39.643 -14.791  -0.768  1.00  0.00     0.024 A 
HETATM   26  C   UNL     1      40.261 -14.981   0.474  1.00  0.00     0.015 A 
ENDBRANCH   9  20
TORSDOF 5
ENDMDL
MODEL 10
REMARK VINA RESULT:      -7.5      4.345      7.093
REMARK  5 active torsions:
REMARK  status: ('A' for Active; 'I' for Inactive)
REMARK    1  A    between atoms: C_2  and  O_3 
REMARK    2  A    between atoms: C_2  and  C_4 
REMARK    3  A    between atoms: C_4  and  N_5 
REMARK       I    between atoms: N_5  and  C_6 
REMARK    4  A    between atoms: C_6  and  C_7 
REMARK    5  A    between atoms: C_15  and  C_16 
ROOT
HETATM    1  C   UNL     1      42.064 -16.593   3.042  1.00  0.00     0.046 A 
HETATM    2  C   UNL     1      41.617 -16.030   4.257  1.00  0.00     0.008 A 
HETATM    3  C   UNL     1      40.866 -14.844   4.147  1.00  0.00     0.068 A 
HETATM    4  C   UNL     1      40.388 -14.241   5.302  1.00  0.00     0.032 A 
HETATM    5  C   UNL     1      40.627 -14.776   6.569  1.00  0.00     0.002 A 
HETATM    6  C   UNL     1      41.362 -15.944   6.693  1.00  0.00     0.001 A 
HETATM    7  C   UNL     1      41.852 -16.570   5.548  1.00  0.00     0.015 A 
HETATM    8  N   UNL     1      40.582 -14.265   2.967  1.00  0.00    -0.248 NA
HETATM    9  C   UNL     1      41.027 -14.819   1.814  1.00  0.00     0.068 A 
HETATM   10  C   UNL     1      41.778 -15.981   1.818  1.00  0.00     0.050 A 
ENDROOT
BRANCH   1  11
HETATM   11  C   UNL     1      42.876 -17.835   3.010  1.00  0.00     0.252 C 
HETATM   12  N   UNL     1      43.794 -17.961   4.031  1.00  0.00    -0.354 N 
HETATM   13  H   UNL     1      43.958 -17.193   4.669  1.00  0.00     0.162 HD
HETATM   14  O   UNL     1      42.727 -18.668   2.128  1.00  0.00    -0.268 OA
BRANCH  12  15
HETATM   15  C   UNL     1      44.649 -19.135   4.146  1.00  0.00     0.154 C 
BRANCH  15  16
HETATM   16  C   UNL     1      43.985 -20.259   4.953  1.00  0.00     0.132 C 
HETATM   17  C   UNL     1      43.505 -19.754   6.304  1.00  0.00     0.041 C 
BRANCH  16  18
HETATM   18  O   UNL     1      44.938 -21.303   5.182  1.00  0.00    -0.394 OA
HETATM   19  H   UNL     1      44.423 -22.067   5.498  1.00  0.00     0.210 HD
ENDBRANCH  16  18
ENDBRANCH  15  16
ENDBRANCH  12  15
ENDBRANCH   1  11
BRANCH   9  20
HETATM   20  C   UNL     1      40.665 -14.096   0.576  1.00  0.00    -0.007 A 
HETATM   21  C   UNL     1      41.110 -12.777   0.362  1.00  0.00     0.015 A 
HETATM   22  C   UNL     1      40.782 -12.074  -0.804  1.00  0.00     0.024 A 
HETATM   23  C   UNL     1      39.995 -12.681  -1.776  1.00  0.00     0.034 A 
HETATM   24 CL   UNL     1      39.588 -11.824  -3.209  1.00  0.00    -0.084 Cl
HETATM   25  C   UNL     1      39.533 -13.980  -1.590  1.00  0.00     0.024 A 
HETATM   26  C   UNL     1      39.864 -14.680  -0.423  1.00  0.00     0.015 A 
ENDBRANCH   9  20
TORSDOF 5
ENDMDL
