MODEL 1
REMARK VINA RESULT:      -9.2      0.000      0.000
REMARK  5 active torsions:
REMARK  status: ('A' for Active; 'I' for Inactive)
REMARK    1  A    between atoms: C_7  and  C_8 
REMARK    2  A    between atoms: N_9  and  C_10 
REMARK    3  A    between atoms: C_10  and  C_11 
REMARK       I    between atoms: C_11  and  N_12 
REMARK    4  A    between atoms: N_12  and  C_13 
REMARK    5  A    between atoms: C_13  and  C_14 
ROOT
HETATM    1  C   UNL     1      42.269 -13.670   5.486  1.00  0.00     0.158 A 
HETATM    2  N   UNL     1      43.393 -12.761   5.334  1.00  0.00    -0.326 N 
HETATM    3  C   UNL     1      43.188 -11.839   4.328  1.00  0.00     0.255 A 
HETATM    4  O   UNL     1      43.897 -10.903   4.012  1.00  0.00    -0.267 OA
HETATM    5  C   UNL     1      41.916 -12.193   3.679  1.00  0.00     0.040 A 
HETATM    6  C   UNL     1      41.382 -13.303   4.335  1.00  0.00    -0.015 A 
HETATM    7  C   UNL     1      41.289 -11.585   2.607  1.00  0.00     0.017 A 
HETATM    8  C   UNL     1      40.068 -12.118   2.191  1.00  0.00     0.001 A 
HETATM    9  C   UNL     1      39.511 -13.231   2.847  1.00  0.00     0.001 A 
HETATM   10  C   UNL     1      40.164 -13.829   3.930  1.00  0.00     0.011 A 
ENDROOT
BRANCH   1  11
HETATM   11  C   UNL     1      42.627 -15.118   5.379  1.00  0.00     0.004 A 
HETATM   12  C   UNL     1      42.826 -15.973   6.463  1.00  0.00     0.017 A 
HETATM   13  C   UNL     1      42.713 -15.709   7.928  1.00  0.00     0.069 C 
HETATM   14  N   UNL     1      43.192 -17.207   5.971  1.00  0.00    -0.354 N 
HETATM   15  C   UNL     1      43.502 -18.355   6.799  1.00  0.00     0.156 C 
HETATM   16  C   UNL     1      43.248 -17.182   4.594  1.00  0.00     0.045 A 
HETATM   17  C   UNL     1      42.870 -15.897   4.192  1.00  0.00     0.001 A 
HETATM   18  C   UNL     1      43.605 -18.176   3.665  1.00  0.00     0.030 A 
HETATM   19  C   UNL     1      42.834 -15.615   2.807  1.00  0.00     0.014 A 
HETATM   20  C   UNL     1      43.188 -16.599   1.878  1.00  0.00     0.001 A 
HETATM   21  C   UNL     1      43.573 -17.862   2.304  1.00  0.00     0.002 A 
ENDBRANCH   1  11
BRANCH   2  22
HETATM   22  C   UNL     1      44.553 -12.791   6.218  1.00  0.00     0.229 C 
BRANCH  22  23
HETATM   23  C   UNL     1      44.706 -11.509   7.038  1.00  0.00     0.235 C 
HETATM   24  N   UNL     1      43.638 -11.225   7.859  1.00  0.00    -0.357 N 
HETATM   25  H   UNL     1      42.777 -11.748   7.726  1.00  0.00     0.162 HD
HETATM   26  O   UNL     1      45.663 -10.751   6.902  1.00  0.00    -0.272 OA
BRANCH  24  27
HETATM   27  C   UNL     1      43.593 -10.055   8.716  1.00  0.00     0.154 C 
BRANCH  27  28
HETATM   28  C   UNL     1      44.336 -10.218  10.050  1.00  0.00     0.139 C 
HETATM   29  O   UNL     1      43.887 -11.422  10.706  1.00  0.00    -0.384 OA
HETATM   30  C   UNL     1      43.532 -11.090  12.054  1.00  0.00     0.168 C 
HETATM   31  C   UNL     1      43.191  -9.619  12.050  1.00  0.00     0.029 C 
HETATM   32  C   UNL     1      44.171  -9.073  11.041  1.00  0.00     0.035 C 
ENDBRANCH  27  28
ENDBRANCH  24  27
ENDBRANCH  22  23
ENDBRANCH   2  22
TORSDOF 5
ENDMDL
MODEL 2
REMARK VINA RESULT:      -9.1      3.296      8.336
REMARK  5 active torsions:
REMARK  status: ('A' for Active; 'I' for Inactive)
REMARK    1  A    between atoms: C_7  and  C_8 
REMARK    2  A    between atoms: N_9  and  C_10 
REMARK    3  A    between atoms: C_10  and  C_11 
REMARK       I    between atoms: C_11  and  N_12 
REMARK    4  A    between atoms: N_12  and  C_13 
REMARK    5  A    between atoms: C_13  and  C_14 
ROOT
HETATM    1  C   UNL     1      41.506 -13.916   4.849  1.00  0.00     0.158 A 
HETATM    2  N   UNL     1      42.117 -13.882   3.530  1.00  0.00    -0.326 N 
HETATM    3  C   UNL     1      42.983 -14.936   3.327  1.00  0.00     0.255 A 
HETATM    4  O   UNL     1      43.580 -15.232   2.310  1.00  0.00    -0.267 OA
HETATM    5  C   UNL     1      43.064 -15.671   4.599  1.00  0.00     0.040 A 
HETATM    6  C   UNL     1      42.220 -15.050   5.520  1.00  0.00    -0.015 A 
HETATM    7  C   UNL     1      43.815 -16.789   4.909  1.00  0.00     0.017 A 
HETATM    8  C   UNL     1      43.698 -17.302   6.203  1.00  0.00     0.001 A 
HETATM    9  C   UNL     1      42.844 -16.693   7.141  1.00  0.00     0.001 A 
HETATM   10  C   UNL     1      42.094 -15.562   6.802  1.00  0.00     0.011 A 
ENDROOT
BRANCH   1  11
HETATM   11  C   UNL     1      41.706 -12.672   5.654  1.00  0.00     0.004 A 
HETATM   12  C   UNL     1      40.699 -11.768   5.990  1.00  0.00     0.017 A 
HETATM   13  C   UNL     1      39.237 -11.802   5.689  1.00  0.00     0.069 C 
HETATM   14  N   UNL     1      41.275 -10.727   6.686  1.00  0.00    -0.354 N 
HETATM   15  C   UNL     1      40.545  -9.581   7.189  1.00  0.00     0.156 C 
HETATM   16  C   UNL     1      42.635 -10.920   6.807  1.00  0.00     0.045 A 
HETATM   17  C   UNL     1      42.931 -12.143   6.198  1.00  0.00     0.001 A 
HETATM   18  C   UNL     1      43.633 -10.121   7.394  1.00  0.00     0.030 A 
HETATM   19  C   UNL     1      44.276 -12.580   6.199  1.00  0.00     0.014 A 
HETATM   20  C   UNL     1      45.273 -11.791   6.781  1.00  0.00     0.001 A 
HETATM   21  C   UNL     1      44.953 -10.574   7.367  1.00  0.00     0.002 A 
ENDBRANCH   1  11
BRANCH   2  22
HETATM   22  C   UNL     1      41.765 -12.883   2.526  1.00  0.00     0.229 C 
BRANCH  22  23
HETATM   23  C   UNL     1      40.584 -13.311   1.654  1.00  0.00     0.235 C 
HETATM   24  N   UNL     1      40.927 -14.074   0.561  1.00  0.00    -0.357 N 
HETATM   25  H   UNL     1      41.909 -14.133   0.305  1.00  0.00     0.162 HD
HETATM   26  O   UNL     1      39.437 -12.925   1.864  1.00  0.00    -0.272 OA
BRANCH  24  27
HETATM   27  C   UNL     1      39.951 -14.578  -0.386  1.00  0.00     0.154 C 
BRANCH  27  28
HETATM   28  C   UNL     1      39.600 -13.600  -1.516  1.00  0.00     0.139 C 
HETATM   29  O   UNL     1      38.234 -13.161  -1.363  1.00  0.00    -0.384 OA
HETATM   30  C   UNL     1      37.565 -13.337  -2.619  1.00  0.00     0.168 C 
HETATM   31  C   UNL     1      38.323 -14.419  -3.351  1.00  0.00     0.029 C 
HETATM   32  C   UNL     1      39.745 -14.146  -2.930  1.00  0.00     0.035 C 
ENDBRANCH  27  28
ENDBRANCH  24  27
ENDBRANCH  22  23
ENDBRANCH   2  22
TORSDOF 5
ENDMDL
MODEL 3
REMARK VINA RESULT:      -8.9      2.774      7.251
REMARK  5 active torsions:
REMARK  status: ('A' for Active; 'I' for Inactive)
REMARK    1  A    between atoms: C_7  and  C_8 
REMARK    2  A    between atoms: N_9  and  C_10 
REMARK    3  A    between atoms: C_10  and  C_11 
REMARK       I    between atoms: C_11  and  N_12 
REMARK    4  A    between atoms: N_12  and  C_13 
REMARK    5  A    between atoms: C_13  and  C_14 
ROOT
HETATM    1  C   UNL     1      42.553 -12.755   4.496  1.00  0.00     0.158 A 
HETATM    2  N   UNL     1      41.211 -12.466   4.975  1.00  0.00    -0.326 N 
HETATM    3  C   UNL     1      41.213 -11.579   6.032  1.00  0.00     0.255 A 
HETATM    4  O   UNL     1      40.258 -11.080   6.594  1.00  0.00    -0.267 OA
HETATM    5  C   UNL     1      42.621 -11.328   6.375  1.00  0.00     0.040 A 
HETATM    6  C   UNL     1      43.424 -12.053   5.493  1.00  0.00    -0.015 A 
HETATM    7  C   UNL     1      43.142 -10.529   7.375  1.00  0.00     0.017 A 
HETATM    8  C   UNL     1      44.533 -10.455   7.479  1.00  0.00     0.001 A 
HETATM    9  C   UNL     1      45.357 -11.173   6.592  1.00  0.00     0.001 A 
HETATM   10  C   UNL     1      44.806 -11.975   5.587  1.00  0.00     0.011 A 
ENDROOT
BRANCH   1  11
HETATM   11  C   UNL     1      42.904 -14.209   4.484  1.00  0.00     0.004 A 
HETATM   12  C   UNL     1      43.086 -14.977   3.335  1.00  0.00     0.017 A 
HETATM   13  C   UNL     1      43.017 -14.584   1.896  1.00  0.00     0.069 C 
HETATM   14  N   UNL     1      43.343 -16.274   3.724  1.00  0.00    -0.354 N 
HETATM   15  C   UNL     1      43.570 -17.371   2.805  1.00  0.00     0.156 C 
HETATM   16  C   UNL     1      43.326 -16.379   5.099  1.00  0.00     0.045 A 
HETATM   17  C   UNL     1      43.084 -15.098   5.604  1.00  0.00     0.001 A 
HETATM   18  C   UNL     1      43.496 -17.491   5.943  1.00  0.00     0.030 A 
HETATM   19  C   UNL     1      43.031 -14.934   7.008  1.00  0.00     0.014 A 
HETATM   20  C   UNL     1      43.199 -16.035   7.853  1.00  0.00     0.001 A 
HETATM   21  C   UNL     1      43.424 -17.299   7.324  1.00  0.00     0.002 A 
ENDBRANCH   1  11
BRANCH   2  22
HETATM   22  C   UNL     1      40.015 -13.000   4.333  1.00  0.00     0.229 C 
BRANCH  22  23
HETATM   23  C   UNL     1      39.742 -12.365   2.969  1.00  0.00     0.235 C 
HETATM   24  N   UNL     1      39.694 -13.257   1.922  1.00  0.00    -0.357 N 
HETATM   25  H   UNL     1      40.025 -14.205   2.082  1.00  0.00     0.162 HD
HETATM   26  O   UNL     1      39.664 -11.149   2.813  1.00  0.00    -0.272 OA
BRANCH  24  27
HETATM   27  C   UNL     1      39.444 -12.851   0.552  1.00  0.00     0.154 C 
BRANCH  27  28
HETATM   28  C   UNL     1      40.209 -13.667  -0.500  1.00  0.00     0.139 C 
HETATM   29  O   UNL     1      40.601 -12.802  -1.587  1.00  0.00    -0.384 OA
HETATM   30  C   UNL     1      40.192 -13.416  -2.816  1.00  0.00     0.168 C 
HETATM   31  C   UNL     1      39.044 -14.332  -2.467  1.00  0.00     0.029 C 
HETATM   32  C   UNL     1      39.449 -14.840  -1.106  1.00  0.00     0.035 C 
ENDBRANCH  27  28
ENDBRANCH  24  27
ENDBRANCH  22  23
ENDBRANCH   2  22
TORSDOF 5
ENDMDL
MODEL 4
REMARK VINA RESULT:      -8.5      1.610      2.137
REMARK  5 active torsions:
REMARK  status: ('A' for Active; 'I' for Inactive)
REMARK    1  A    between atoms: C_7  and  C_8 
REMARK    2  A    between atoms: N_9  and  C_10 
REMARK    3  A    between atoms: C_10  and  C_11 
REMARK       I    between atoms: C_11  and  N_12 
REMARK    4  A    between atoms: N_12  and  C_13 
REMARK    5  A    between atoms: C_13  and  C_14 
ROOT
HETATM    1  C   UNL     1      41.582 -14.445   4.250  1.00  0.00     0.158 A 
HETATM    2  N   UNL     1      42.492 -13.324   4.086  1.00  0.00    -0.326 N 
HETATM    3  C   UNL     1      42.427 -12.778   2.820  1.00  0.00     0.255 A 
HETATM    4  O   UNL     1      42.996 -11.790   2.399  1.00  0.00    -0.267 OA
HETATM    5  C   UNL     1      41.516 -13.627   2.037  1.00  0.00     0.040 A 
HETATM    6  C   UNL     1      41.039 -14.642   2.867  1.00  0.00    -0.015 A 
HETATM    7  C   UNL     1      41.142 -13.507   0.711  1.00  0.00     0.017 A 
HETATM    8  C   UNL     1      40.242 -14.450   0.211  1.00  0.00     0.001 A 
HETATM    9  C   UNL     1      39.744 -15.475   1.037  1.00  0.00     0.001 A 
HETATM   10  C   UNL     1      40.137 -15.575   2.376  1.00  0.00     0.011 A 
ENDROOT
BRANCH   1  11
HETATM   11  C   UNL     1      42.238 -15.712   4.698  1.00  0.00     0.004 A 
HETATM   12  C   UNL     1      42.406 -16.097   6.028  1.00  0.00     0.017 A 
HETATM   13  C   UNL     1      41.979 -15.416   7.286  1.00  0.00     0.069 C 
HETATM   14  N   UNL     1      43.097 -17.289   6.043  1.00  0.00    -0.354 N 
HETATM   15  C   UNL     1      43.477 -17.996   7.250  1.00  0.00     0.156 C 
HETATM   16  C   UNL     1      43.395 -17.692   4.759  1.00  0.00     0.045 A 
HETATM   17  C   UNL     1      42.845 -16.742   3.893  1.00  0.00     0.001 A 
HETATM   18  C   UNL     1      44.107 -18.807   4.282  1.00  0.00     0.030 A 
HETATM   19  C   UNL     1      43.003 -16.936   2.502  1.00  0.00     0.014 A 
HETATM   20  C   UNL     1      43.711 -18.042   2.021  1.00  0.00     0.001 A 
HETATM   21  C   UNL     1      44.259 -18.964   2.902  1.00  0.00     0.002 A 
ENDBRANCH   1  11
BRANCH   2  22
HETATM   22  C   UNL     1      43.303 -12.803   5.181  1.00  0.00     0.229 C 
BRANCH  22  23
HETATM   23  C   UNL     1      42.641 -11.629   5.902  1.00  0.00     0.235 C 
HETATM   24  N   UNL     1      43.169 -11.349   7.142  1.00  0.00    -0.357 N 
HETATM   25  H   UNL     1      43.795 -12.030   7.563  1.00  0.00     0.162 HD
HETATM   26  O   UNL     1      41.660 -11.046   5.448  1.00  0.00    -0.272 OA
BRANCH  24  27
HETATM   27  C   UNL     1      42.679 -10.272   7.982  1.00  0.00     0.154 C 
BRANCH  27  28
HETATM   28  C   UNL     1      43.706  -9.166   8.258  1.00  0.00     0.139 C 
HETATM   29  O   UNL     1      44.977  -9.537   7.683  1.00  0.00    -0.384 OA
HETATM   30  C   UNL     1      45.984  -9.387   8.692  1.00  0.00     0.168 C 
HETATM   31  C   UNL     1      45.273  -9.507  10.018  1.00  0.00     0.029 C 
HETATM   32  C   UNL     1      43.950  -8.844   9.727  1.00  0.00     0.035 C 
ENDBRANCH  27  28
ENDBRANCH  24  27
ENDBRANCH  22  23
ENDBRANCH   2  22
TORSDOF 5
ENDMDL
MODEL 5
REMARK VINA RESULT:      -8.4     16.534     18.843
REMARK  5 active torsions:
REMARK  status: ('A' for Active; 'I' for Inactive)
REMARK    1  A    between atoms: C_7  and  C_8 
REMARK    2  A    between atoms: N_9  and  C_10 
REMARK    3  A    between atoms: C_10  and  C_11 
REMARK       I    between atoms: C_11  and  N_12 
REMARK    4  A    between atoms: N_12  and  C_13 
REMARK    5  A    between atoms: C_13  and  C_14 
ROOT
HETATM    1  C   UNL     1      47.985 -29.183  -0.189  1.00  0.00     0.158 A 
HETATM    2  N   UNL     1      47.907 -29.036   1.256  1.00  0.00    -0.326 N 
HETATM    3  C   UNL     1      48.979 -29.617   1.900  1.00  0.00     0.255 A 
HETATM    4  O   UNL     1      49.245 -29.594   3.086  1.00  0.00    -0.267 OA
HETATM    5  C   UNL     1      49.779 -30.296   0.868  1.00  0.00     0.040 A 
HETATM    6  C   UNL     1      49.175 -30.076  -0.371  1.00  0.00    -0.015 A 
HETATM    7  C   UNL     1      50.937 -31.037   1.015  1.00  0.00     0.017 A 
HETATM    8  C   UNL     1      51.509 -31.569  -0.143  1.00  0.00     0.001 A 
HETATM    9  C   UNL     1      50.918 -31.350  -1.401  1.00  0.00     0.001 A 
HETATM   10  C   UNL     1      49.746 -30.595  -1.523  1.00  0.00     0.011 A 
ENDROOT
BRANCH   1  11
HETATM   11  C   UNL     1      46.791 -29.836  -0.808  1.00  0.00     0.004 A 
HETATM   12  C   UNL     1      46.304 -31.097  -0.467  1.00  0.00     0.017 A 
HETATM   13  C   UNL     1      46.785 -32.068   0.560  1.00  0.00     0.069 C 
HETATM   14  N   UNL     1      45.230 -31.376  -1.286  1.00  0.00    -0.354 N 
HETATM   15  C   UNL     1      44.471 -32.609  -1.242  1.00  0.00     0.156 C 
HETATM   16  C   UNL     1      45.006 -30.334  -2.161  1.00  0.00     0.045 A 
HETATM   17  C   UNL     1      45.947 -29.343  -1.867  1.00  0.00     0.001 A 
HETATM   18  C   UNL     1      44.062 -30.181  -3.192  1.00  0.00     0.030 A 
HETATM   19  C   UNL     1      45.919 -28.150  -2.627  1.00  0.00     0.014 A 
HETATM   20  C   UNL     1      44.982 -27.991  -3.653  1.00  0.00     0.001 A 
HETATM   21  C   UNL     1      44.068 -28.997  -3.933  1.00  0.00     0.002 A 
ENDBRANCH   1  11
BRANCH   2  22
HETATM   22  C   UNL     1      46.848 -28.276   1.911  1.00  0.00     0.229 C 
BRANCH  22  23
HETATM   23  C   UNL     1      45.781 -29.170   2.543  1.00  0.00     0.235 C 
HETATM   24  N   UNL     1      44.491 -28.876   2.163  1.00  0.00    -0.357 N 
HETATM   25  H   UNL     1      44.322 -28.003   1.671  1.00  0.00     0.162 HD
HETATM   26  O   UNL     1      46.050 -30.019   3.389  1.00  0.00    -0.272 OA
BRANCH  24  27
HETATM   27  C   UNL     1      43.339 -29.611   2.651  1.00  0.00     0.154 C 
BRANCH  27  28
HETATM   28  C   UNL     1      42.735 -30.590   1.635  1.00  0.00     0.139 C 
HETATM   29  O   UNL     1      41.323 -30.328   1.497  1.00  0.00    -0.384 OA
HETATM   30  C   UNL     1      40.621 -31.568   1.653  1.00  0.00     0.168 C 
HETATM   31  C   UNL     1      41.523 -32.463   2.468  1.00  0.00     0.029 C 
HETATM   32  C   UNL     1      42.890 -32.068   1.970  1.00  0.00     0.035 C 
ENDBRANCH  27  28
ENDBRANCH  24  27
ENDBRANCH  22  23
ENDBRANCH   2  22
TORSDOF 5
ENDMDL
MODEL 6
REMARK VINA RESULT:      -8.3      5.558      9.482
REMARK  5 active torsions:
REMARK  status: ('A' for Active; 'I' for Inactive)
REMARK    1  A    between atoms: C_7  and  C_8 
REMARK    2  A    between atoms: N_9  and  C_10 
REMARK    3  A    between atoms: C_10  and  C_11 
REMARK       I    between atoms: C_11  and  N_12 
REMARK    4  A    between atoms: N_12  and  C_13 
REMARK    5  A    between atoms: C_13  and  C_14 
ROOT
HETATM    1  C   UNL     1      39.478  -8.758  12.250  1.00  0.00     0.158 A 
HETATM    2  N   UNL     1      40.586  -8.951  13.171  1.00  0.00    -0.326 N 
HETATM    3  C   UNL     1      40.594  -8.014  14.184  1.00  0.00     0.255 A 
HETATM    4  O   UNL     1      41.333  -7.955  15.146  1.00  0.00    -0.267 OA
HETATM    5  C   UNL     1      39.512  -7.061  13.889  1.00  0.00     0.040 A 
HETATM    6  C   UNL     1      38.869  -7.473  12.721  1.00  0.00    -0.015 A 
HETATM    7  C   UNL     1      39.132  -5.934  14.594  1.00  0.00     0.017 A 
HETATM    8  C   UNL     1      38.051  -5.201  14.099  1.00  0.00     0.001 A 
HETATM    9  C   UNL     1      37.386  -5.608  12.928  1.00  0.00     0.001 A 
HETATM   10  C   UNL     1      37.789  -6.753  12.233  1.00  0.00     0.011 A 
ENDROOT
BRANCH   1  11
HETATM   11  C   UNL     1      39.886  -8.605  10.819  1.00  0.00     0.004 A 
HETATM   12  C   UNL     1      39.503  -9.459   9.785  1.00  0.00     0.017 A 
HETATM   13  C   UNL     1      38.617 -10.660   9.808  1.00  0.00     0.069 C 
HETATM   14  N   UNL     1      40.117  -9.028   8.627  1.00  0.00    -0.354 N 
HETATM   15  C   UNL     1      39.974  -9.677   7.340  1.00  0.00     0.156 C 
HETATM   16  C   UNL     1      40.898  -7.921   8.878  1.00  0.00     0.045 A 
HETATM   17  C   UNL     1      40.751  -7.613  10.233  1.00  0.00     0.001 A 
HETATM   18  C   UNL     1      41.729  -7.166   8.030  1.00  0.00     0.030 A 
HETATM   19  C   UNL     1      41.451  -6.495  10.744  1.00  0.00     0.014 A 
HETATM   20  C   UNL     1      42.278  -5.740   9.906  1.00  0.00     0.001 A 
HETATM   21  C   UNL     1      42.417  -6.076   8.567  1.00  0.00     0.002 A 
ENDBRANCH   1  11
BRANCH   2  22
HETATM   22  C   UNL     1      41.513 -10.072  13.061  1.00  0.00     0.229 C 
BRANCH  22  23
HETATM   23  C   UNL     1      42.820  -9.694  12.364  1.00  0.00     0.235 C 
HETATM   24  N   UNL     1      43.332 -10.670  11.540  1.00  0.00    -0.357 N 
HETATM   25  H   UNL     1      42.938 -11.605  11.600  1.00  0.00     0.162 HD
HETATM   26  O   UNL     1      43.408  -8.640  12.594  1.00  0.00    -0.272 OA
BRANCH  24  27
HETATM   27  C   UNL     1      44.562 -10.503  10.789  1.00  0.00     0.154 C 
BRANCH  27  28
HETATM   28  C   UNL     1      44.358 -10.151   9.309  1.00  0.00     0.139 C 
HETATM   29  O   UNL     1      44.919 -11.196   8.486  1.00  0.00    -0.384 OA
HETATM   30  C   UNL     1      45.776 -10.585   7.513  1.00  0.00     0.168 C 
HETATM   31  C   UNL     1      46.209  -9.264   8.103  1.00  0.00     0.029 C 
HETATM   32  C   UNL     1      44.973  -8.835   8.852  1.00  0.00     0.035 C 
ENDBRANCH  27  28
ENDBRANCH  24  27
ENDBRANCH  22  23
ENDBRANCH   2  22
TORSDOF 5
ENDMDL
MODEL 7
REMARK VINA RESULT:      -8.3     16.586     18.749
REMARK  5 active torsions:
REMARK  status: ('A' for Active; 'I' for Inactive)
REMARK    1  A    between atoms: C_7  and  C_8 
REMARK    2  A    between atoms: N_9  and  C_10 
REMARK    3  A    between atoms: C_10  and  C_11 
REMARK       I    between atoms: C_11  and  N_12 
REMARK    4  A    between atoms: N_12  and  C_13 
REMARK    5  A    between atoms: C_13  and  C_14 
ROOT
HETATM    1  C   UNL     1      44.569 -29.093   0.096  1.00  0.00     0.158 A 
HETATM    2  N   UNL     1      45.903 -28.610   0.415  1.00  0.00    -0.326 N 
HETATM    3  C   UNL     1      46.601 -28.220  -0.710  1.00  0.00     0.255 A 
HETATM    4  O   UNL     1      47.698 -27.700  -0.770  1.00  0.00    -0.267 OA
HETATM    5  C   UNL     1      45.759 -28.552  -1.869  1.00  0.00     0.040 A 
HETATM    6  C   UNL     1      44.566 -29.106  -1.402  1.00  0.00    -0.015 A 
HETATM    7  C   UNL     1      46.025 -28.376  -3.215  1.00  0.00     0.017 A 
HETATM    8  C   UNL     1      45.038 -28.770  -4.121  1.00  0.00     0.001 A 
HETATM    9  C   UNL     1      43.826 -29.322  -3.666  1.00  0.00     0.001 A 
HETATM   10  C   UNL     1      43.580 -29.490  -2.299  1.00  0.00     0.011 A 
ENDROOT
BRANCH   1  11
HETATM   11  C   UNL     1      44.277 -30.472   0.595  1.00  0.00     0.004 A 
HETATM   12  C   UNL     1      43.228 -30.806   1.449  1.00  0.00     0.017 A 
HETATM   13  C   UNL     1      42.158 -29.948   2.040  1.00  0.00     0.069 C 
HETATM   14  N   UNL     1      43.315 -32.154   1.727  1.00  0.00    -0.354 N 
HETATM   15  C   UNL     1      42.404 -32.868   2.598  1.00  0.00     0.156 C 
HETATM   16  C   UNL     1      44.400 -32.710   1.083  1.00  0.00     0.045 A 
HETATM   17  C   UNL     1      45.005 -31.690   0.343  1.00  0.00     0.001 A 
HETATM   18  C   UNL     1      44.908 -34.022   1.093  1.00  0.00     0.030 A 
HETATM   19  C   UNL     1      46.147 -32.011  -0.427  1.00  0.00     0.014 A 
HETATM   20  C   UNL     1      46.657 -33.313  -0.421  1.00  0.00     0.001 A 
HETATM   21  C   UNL     1      46.046 -34.304   0.335  1.00  0.00     0.002 A 
ENDBRANCH   1  11
BRANCH   2  22
HETATM   22  C   UNL     1      46.385 -28.480   1.785  1.00  0.00     0.229 C 
BRANCH  22  23
HETATM   23  C   UNL     1      47.407 -29.555   2.158  1.00  0.00     0.235 C 
HETATM   24  N   UNL     1      48.682 -29.315   1.699  1.00  0.00    -0.357 N 
HETATM   25  H   UNL     1      48.814 -28.582   1.007  1.00  0.00     0.162 HD
HETATM   26  O   UNL     1      47.091 -30.589   2.741  1.00  0.00    -0.272 OA
BRANCH  24  27
HETATM   27  C   UNL     1      49.792 -30.215   1.949  1.00  0.00     0.154 C 
BRANCH  27  28
HETATM   28  C   UNL     1      50.735 -30.407   0.753  1.00  0.00     0.139 C 
HETATM   29  O   UNL     1      50.240 -29.653  -0.374  1.00  0.00    -0.384 OA
HETATM   30  C   UNL     1      50.193 -30.527  -1.509  1.00  0.00     0.168 C 
HETATM   31  C   UNL     1      50.081 -31.928  -0.958  1.00  0.00     0.029 C 
HETATM   32  C   UNL     1      50.927 -31.845   0.288  1.00  0.00     0.035 C 
ENDBRANCH  27  28
ENDBRANCH  24  27
ENDBRANCH  22  23
ENDBRANCH   2  22
TORSDOF 5
ENDMDL
MODEL 8
REMARK VINA RESULT:      -8.1      3.815      9.441
REMARK  5 active torsions:
REMARK  status: ('A' for Active; 'I' for Inactive)
REMARK    1  A    between atoms: C_7  and  C_8 
REMARK    2  A    between atoms: N_9  and  C_10 
REMARK    3  A    between atoms: C_10  and  C_11 
REMARK       I    between atoms: C_11  and  N_12 
REMARK    4  A    between atoms: N_12  and  C_13 
REMARK    5  A    between atoms: C_13  and  C_14 
ROOT
HETATM    1  C   UNL     1      41.899  -9.304  10.225  1.00  0.00     0.158 A 
HETATM    2  N   UNL     1      41.341  -8.945   8.931  1.00  0.00    -0.326 N 
HETATM    3  C   UNL     1      42.292  -8.950   7.931  1.00  0.00     0.255 A 
HETATM    4  O   UNL     1      42.128  -8.777   6.739  1.00  0.00    -0.267 OA
HETATM    5  C   UNL     1      43.587  -9.213   8.577  1.00  0.00     0.040 A 
HETATM    6  C   UNL     1      43.369  -9.386   9.945  1.00  0.00    -0.015 A 
HETATM    7  C   UNL     1      44.843  -9.295   8.004  1.00  0.00     0.017 A 
HETATM    8  C   UNL     1      45.918  -9.571   8.851  1.00  0.00     0.001 A 
HETATM    9  C   UNL     1      45.714  -9.757  10.231  1.00  0.00     0.001 A 
HETATM   10  C   UNL     1      44.434  -9.670  10.787  1.00  0.00     0.011 A 
ENDROOT
BRANCH   1  11
HETATM   11  C   UNL     1      41.667  -8.290  11.300  1.00  0.00     0.004 A 
HETATM   12  C   UNL     1      41.048  -8.551  12.522  1.00  0.00     0.017 A 
HETATM   13  C   UNL     1      40.511  -9.830  13.074  1.00  0.00     0.069 C 
HETATM   14  N   UNL     1      40.966  -7.365  13.220  1.00  0.00    -0.354 N 
HETATM   15  C   UNL     1      40.367  -7.232  14.532  1.00  0.00     0.156 C 
HETATM   16  C   UNL     1      41.507  -6.333  12.485  1.00  0.00     0.045 A 
HETATM   17  C   UNL     1      41.981  -6.884  11.291  1.00  0.00     0.001 A 
HETATM   18  C   UNL     1      41.615  -4.958  12.762  1.00  0.00     0.030 A 
HETATM   19  C   UNL     1      42.601  -6.022  10.357  1.00  0.00     0.014 A 
HETATM   20  C   UNL     1      42.711  -4.654  10.626  1.00  0.00     0.001 A 
HETATM   21  C   UNL     1      42.219  -4.130  11.814  1.00  0.00     0.002 A 
ENDBRANCH   1  11
BRANCH   2  22
HETATM   22  C   UNL     1      39.917  -8.700   8.730  1.00  0.00     0.229 C 
BRANCH  22  23
HETATM   23  C   UNL     1      39.174  -9.927   8.200  1.00  0.00     0.235 C 
HETATM   24  N   UNL     1      39.113 -10.009   6.827  1.00  0.00    -0.357 N 
HETATM   25  H   UNL     1      39.376  -9.190   6.285  1.00  0.00     0.162 HD
HETATM   26  O   UNL     1      38.602 -10.721   8.941  1.00  0.00    -0.272 OA
BRANCH  24  27
HETATM   27  C   UNL     1      38.454 -11.098   6.131  1.00  0.00     0.154 C 
BRANCH  27  28
HETATM   28  C   UNL     1      39.400 -12.003   5.330  1.00  0.00     0.139 C 
HETATM   29  O   UNL     1      39.559 -13.260   6.021  1.00  0.00    -0.384 OA
HETATM   30  C   UNL     1      40.962 -13.531   6.136  1.00  0.00     0.168 C 
HETATM   31  C   UNL     1      41.657 -12.193   6.064  1.00  0.00     0.029 C 
HETATM   32  C   UNL     1      40.794 -11.444   5.079  1.00  0.00     0.035 C 
ENDBRANCH  27  28
ENDBRANCH  24  27
ENDBRANCH  22  23
ENDBRANCH   2  22
TORSDOF 5
ENDMDL
MODEL 9
REMARK VINA RESULT:      -8.1      3.028      7.487
REMARK  5 active torsions:
REMARK  status: ('A' for Active; 'I' for Inactive)
REMARK    1  A    between atoms: C_7  and  C_8 
REMARK    2  A    between atoms: N_9  and  C_10 
REMARK    3  A    between atoms: C_10  and  C_11 
REMARK       I    between atoms: C_11  and  N_12 
REMARK    4  A    between atoms: N_12  and  C_13 
REMARK    5  A    between atoms: C_13  and  C_14 
ROOT
HETATM    1  C   UNL     1      41.444 -13.332   4.612  1.00  0.00     0.158 A 
HETATM    2  N   UNL     1      42.185 -13.232   3.365  1.00  0.00    -0.326 N 
HETATM    3  C   UNL     1      42.939 -14.360   3.113  1.00  0.00     0.255 A 
HETATM    4  O   UNL     1      43.597 -14.617   2.124  1.00  0.00    -0.267 OA
HETATM    5  C   UNL     1      42.804 -15.234   4.289  1.00  0.00     0.040 A 
HETATM    6  C   UNL     1      41.949 -14.614   5.201  1.00  0.00    -0.015 A 
HETATM    7  C   UNL     1      43.385 -16.466   4.527  1.00  0.00     0.017 A 
HETATM    8  C   UNL     1      43.078 -17.097   5.734  1.00  0.00     0.001 A 
HETATM    9  C   UNL     1      42.211 -16.490   6.660  1.00  0.00     0.001 A 
HETATM   10  C   UNL     1      41.635 -15.243   6.396  1.00  0.00     0.011 A 
ENDROOT
BRANCH   1  11
HETATM   11  C   UNL     1      41.705 -12.219   5.575  1.00  0.00     0.004 A 
HETATM   12  C   UNL     1      40.743 -11.321   6.038  1.00  0.00     0.017 A 
HETATM   13  C   UNL     1      39.281 -11.245   5.746  1.00  0.00     0.069 C 
HETATM   14  N   UNL     1      41.370 -10.412   6.863  1.00  0.00    -0.354 N 
HETATM   15  C   UNL     1      40.697  -9.311   7.521  1.00  0.00     0.156 C 
HETATM   16  C   UNL     1      42.718 -10.684   6.947  1.00  0.00     0.045 A 
HETATM   17  C   UNL     1      42.954 -11.827   6.176  1.00  0.00     0.001 A 
HETATM   18  C   UNL     1      43.755 -10.020   7.628  1.00  0.00     0.030 A 
HETATM   19  C   UNL     1      44.277 -12.324   6.108  1.00  0.00     0.014 A 
HETATM   20  C   UNL     1      45.311 -11.669   6.783  1.00  0.00     0.001 A 
HETATM   21  C   UNL     1      45.052 -10.528   7.530  1.00  0.00     0.002 A 
ENDBRANCH   1  11
BRANCH   2  22
HETATM   22  C   UNL     1      42.055 -12.094   2.462  1.00  0.00     0.229 C 
BRANCH  22  23
HETATM   23  C   UNL     1      41.021 -12.326   1.360  1.00  0.00     0.235 C 
HETATM   24  N   UNL     1      40.968 -11.334   0.407  1.00  0.00    -0.357 N 
HETATM   25  H   UNL     1      41.452 -10.461   0.596  1.00  0.00     0.162 HD
HETATM   26  O   UNL     1      40.241 -13.275   1.379  1.00  0.00    -0.272 OA
BRANCH  24  27
HETATM   27  C   UNL     1      40.054 -11.372  -0.719  1.00  0.00     0.154 C 
BRANCH  27  28
HETATM   28  C   UNL     1      38.760 -10.572  -0.512  1.00  0.00     0.139 C 
HETATM   29  O   UNL     1      38.935  -9.653   0.587  1.00  0.00    -0.384 OA
HETATM   30  C   UNL     1      37.832  -9.820   1.487  1.00  0.00     0.168 C 
HETATM   31  C   UNL     1      37.315 -11.221   1.266  1.00  0.00     0.029 C 
HETATM   32  C   UNL     1      37.514 -11.398  -0.219  1.00  0.00     0.035 C 
ENDBRANCH  27  28
ENDBRANCH  24  27
ENDBRANCH  22  23
ENDBRANCH   2  22
TORSDOF 5
ENDMDL
MODEL 10
REMARK VINA RESULT:      -8.0     16.695     19.187
REMARK  5 active torsions:
REMARK  status: ('A' for Active; 'I' for Inactive)
REMARK    1  A    between atoms: C_7  and  C_8 
REMARK    2  A    between atoms: N_9  and  C_10 
REMARK    3  A    between atoms: C_10  and  C_11 
REMARK       I    between atoms: C_11  and  N_12 
REMARK    4  A    between atoms: N_12  and  C_13 
REMARK    5  A    between atoms: C_13  and  C_14 
ROOT
HETATM    1  C   UNL     1      49.307 -29.659   0.230  1.00  0.00     0.158 A 
HETATM    2  N   UNL     1      48.144 -28.794   0.351  1.00  0.00    -0.326 N 
HETATM    3  C   UNL     1      47.768 -28.602   1.664  1.00  0.00     0.255 A 
HETATM    4  O   UNL     1      46.896 -27.875   2.097  1.00  0.00    -0.267 OA
HETATM    5  C   UNL     1      48.637 -29.461   2.485  1.00  0.00     0.040 A 
HETATM    6  C   UNL     1      49.528 -30.121   1.638  1.00  0.00    -0.015 A 
HETATM    7  C   UNL     1      48.638 -29.637   3.856  1.00  0.00     0.017 A 
HETATM    8  C   UNL     1      49.588 -30.511   4.390  1.00  0.00     0.001 A 
HETATM    9  C   UNL     1      50.499 -31.178   3.551  1.00  0.00     0.001 A 
HETATM   10  C   UNL     1      50.479 -30.982   2.166  1.00  0.00     0.011 A 
ENDROOT
BRANCH   1  11
HETATM   11  C   UNL     1      49.100 -30.853  -0.645  1.00  0.00     0.004 A 
HETATM   12  C   UNL     1      49.860 -31.157  -1.774  1.00  0.00     0.017 A 
HETATM   13  C   UNL     1      51.031 -30.443  -2.364  1.00  0.00     0.069 C 
HETATM   14  N   UNL     1      49.338 -32.297  -2.346  1.00  0.00    -0.354 N 
HETATM   15  C   UNL     1      49.854 -32.913  -3.552  1.00  0.00     0.156 C 
HETATM   16  C   UNL     1      48.250 -32.744  -1.628  1.00  0.00     0.045 A 
HETATM   17  C   UNL     1      48.093 -31.879  -0.541  1.00  0.00     0.001 A 
HETATM   18  C   UNL     1      47.383 -33.830  -1.844  1.00  0.00     0.030 A 
HETATM   19  C   UNL     1      47.039 -32.133   0.367  1.00  0.00     0.014 A 
HETATM   20  C   UNL     1      46.174 -33.211   0.159  1.00  0.00     0.001 A 
HETATM   21  C   UNL     1      46.343 -34.046  -0.937  1.00  0.00     0.002 A 
ENDBRANCH   1  11
BRANCH   2  22
HETATM   22  C   UNL     1      47.523 -28.147  -0.800  1.00  0.00     0.229 C 
BRANCH  22  23
HETATM   23  C   UNL     1      46.189 -28.784  -1.190  1.00  0.00     0.235 C 
HETATM   24  N   UNL     1      45.140 -28.468  -0.356  1.00  0.00    -0.357 N 
HETATM   25  H   UNL     1      45.350 -28.020   0.532  1.00  0.00     0.162 HD
HETATM   26  O   UNL     1      46.087 -29.583  -2.117  1.00  0.00    -0.272 OA
BRANCH  24  27
HETATM   27  C   UNL     1      43.794 -28.972  -0.558  1.00  0.00     0.154 C 
BRANCH  27  28
HETATM   28  C   UNL     1      43.343 -30.008   0.481  1.00  0.00     0.139 C 
HETATM   29  O   UNL     1      42.070 -29.612   1.033  1.00  0.00    -0.384 OA
HETATM   30  C   UNL     1      42.172 -29.652   2.462  1.00  0.00     0.168 C 
HETATM   31  C   UNL     1      43.638 -29.487   2.785  1.00  0.00     0.029 C 
HETATM   32  C   UNL     1      44.295 -30.230   1.649  1.00  0.00     0.035 C 
ENDBRANCH  27  28
ENDBRANCH  24  27
ENDBRANCH  22  23
ENDBRANCH   2  22
TORSDOF 5
ENDMDL
