MODEL 1
REMARK VINA RESULT:      -7.6      0.000      0.000
REMARK  5 active torsions:
REMARK  status: ('A' for Active; 'I' for Inactive)
REMARK    1  A    between atoms: C_3  and  N_4 
REMARK       I    between atoms: N_4  and  C_5 
REMARK       I    between atoms: C_5  and  N_6 
REMARK    2  A    between atoms: N_6  and  C_7 
REMARK    3  A    between atoms: C_7  and  C_8 
REMARK    4  A    between atoms: C_8  and  O_9 
REMARK    5  A    between atoms: O_9  and  C_10 
ROOT
HETATM    1  N   UNL     1      39.652 -13.910   3.216  1.00  0.00    -0.307 N 
HETATM    2  C   UNL     1      40.653 -13.664   4.127  1.00  0.00     0.320 C 
HETATM    3  N   UNL     1      40.354 -14.235   5.348  1.00  0.00    -0.340 N 
HETATM    4  O   UNL     1      41.672 -13.022   3.927  1.00  0.00    -0.247 OA
HETATM    5  H   UNL     1      38.732 -13.914   3.634  1.00  0.00     0.170 HD
HETATM    6  H   UNL     1      39.754 -15.042   5.271  1.00  0.00     0.164 HD
ENDROOT
BRANCH   3   7
HETATM    7  C   UNL     1      41.384 -14.337   6.379  1.00  0.00     0.156 C 
BRANCH   7   8
HETATM    8  C   UNL     1      42.147 -15.679   6.425  1.00  0.00     0.142 C 
HETATM    9  C   UNL     1      42.894 -15.863   7.748  1.00  0.00     0.042 C 
BRANCH   8  10
HETATM   10  O   UNL     1      43.184 -15.649   5.425  1.00  0.00    -0.345 OA
BRANCH  10  11
HETATM   11  C   UNL     1      43.401 -16.754   4.657  1.00  0.00     0.069 A 
HETATM   12  C   UNL     1      44.201 -17.845   4.992  1.00  0.00     0.038 A 
HETATM   13  C   UNL     1      44.325 -18.920   4.102  1.00  0.00     0.026 A 
HETATM   14  C   UNL     1      43.642 -18.904   2.887  1.00  0.00     0.034 A 
HETATM   15 CL   UNL     1      43.799 -20.226   1.798  1.00  0.00    -0.084 Cl
HETATM   16  C   UNL     1      42.827 -17.827   2.554  1.00  0.00     0.026 A 
HETATM   17  C   UNL     1      42.706 -16.757   3.443  1.00  0.00     0.038 A 
ENDBRANCH  10  11
ENDBRANCH   8  10
ENDBRANCH   7   8
ENDBRANCH   3   7
BRANCH   1  18
HETATM   18  C   UNL     1      39.705 -13.670   1.821  1.00  0.00     0.059 A 
HETATM   19  C   UNL     1      39.865 -14.640   0.818  1.00  0.00    -0.032 A 
HETATM   20  C   UNL     1      39.952 -16.121   1.056  1.00  0.00     0.050 C 
HETATM   21  C   UNL     1      39.924 -14.209  -0.520  1.00  0.00     0.028 A 
HETATM   22  C   UNL     1      39.760 -12.867  -0.818  1.00  0.00     0.117 A 
HETATM   23  N   UNL     1      39.540 -11.923   0.113  1.00  0.00    -0.271 NA
HETATM   24  C   UNL     1      39.517 -12.349   1.398  1.00  0.00     0.146 A 
ENDBRANCH   1  18
TORSDOF 5
ENDMDL
MODEL 2
REMARK VINA RESULT:      -7.3      3.179      5.827
REMARK  5 active torsions:
REMARK  status: ('A' for Active; 'I' for Inactive)
REMARK    1  A    between atoms: C_3  and  N_4 
REMARK       I    between atoms: N_4  and  C_5 
REMARK       I    between atoms: C_5  and  N_6 
REMARK    2  A    between atoms: N_6  and  C_7 
REMARK    3  A    between atoms: C_7  and  C_8 
REMARK    4  A    between atoms: C_8  and  O_9 
REMARK    5  A    between atoms: O_9  and  C_10 
ROOT
HETATM    1  N   UNL     1      44.345 -17.442   5.160  1.00  0.00    -0.307 N 
HETATM    2  C   UNL     1      43.447 -16.630   5.813  1.00  0.00     0.320 C 
HETATM    3  N   UNL     1      44.099 -15.587   6.441  1.00  0.00    -0.340 N 
HETATM    4  O   UNL     1      42.238 -16.785   5.867  1.00  0.00    -0.247 OA
HETATM    5  H   UNL     1      45.225 -17.531   5.649  1.00  0.00     0.170 HD
HETATM    6  H   UNL     1      44.969 -15.337   5.993  1.00  0.00     0.164 HD
ENDROOT
BRANCH   3   7
HETATM    7  C   UNL     1      43.336 -14.456   6.962  1.00  0.00     0.156 C 
BRANCH   7   8
HETATM    8  C   UNL     1      43.512 -13.126   6.198  1.00  0.00     0.142 C 
HETATM    9  C   UNL     1      43.865 -11.973   7.140  1.00  0.00     0.042 C 
BRANCH   8  10
HETATM   10  O   UNL     1      42.242 -12.753   5.629  1.00  0.00    -0.345 OA
BRANCH  10  11
HETATM   11  C   UNL     1      41.918 -13.191   4.380  1.00  0.00     0.069 A 
HETATM   12  C   UNL     1      42.660 -12.987   3.217  1.00  0.00     0.038 A 
HETATM   13  C   UNL     1      42.205 -13.504   1.999  1.00  0.00     0.026 A 
HETATM   14  C   UNL     1      41.017 -14.232   1.947  1.00  0.00     0.034 A 
HETATM   15 CL   UNL     1      40.462 -14.863   0.447  1.00  0.00    -0.084 Cl
HETATM   16  C   UNL     1      40.280 -14.454   3.106  1.00  0.00     0.026 A 
HETATM   17  C   UNL     1      40.736 -13.937   4.319  1.00  0.00     0.038 A 
ENDBRANCH  10  11
ENDBRANCH   8  10
ENDBRANCH   7   8
ENDBRANCH   3   7
BRANCH   1  18
HETATM   18  C   UNL     1      44.033 -18.475   4.242  1.00  0.00     0.059 A 
HETATM   19  C   UNL     1      43.577 -18.303   2.925  1.00  0.00    -0.032 A 
HETATM   20  C   UNL     1      43.392 -16.978   2.241  1.00  0.00     0.050 C 
HETATM   21  C   UNL     1      43.289 -19.452   2.165  1.00  0.00     0.028 A 
HETATM   22  C   UNL     1      43.522 -20.707   2.703  1.00  0.00     0.117 A 
HETATM   23  N   UNL     1      44.021 -20.904   3.935  1.00  0.00    -0.271 NA
HETATM   24  C   UNL     1      44.262 -19.789   4.665  1.00  0.00     0.146 A 
ENDBRANCH   1  18
TORSDOF 5
ENDMDL
MODEL 3
REMARK VINA RESULT:      -7.3      5.051      7.636
REMARK  5 active torsions:
REMARK  status: ('A' for Active; 'I' for Inactive)
REMARK    1  A    between atoms: C_3  and  N_4 
REMARK       I    between atoms: N_4  and  C_5 
REMARK       I    between atoms: C_5  and  N_6 
REMARK    2  A    between atoms: N_6  and  C_7 
REMARK    3  A    between atoms: C_7  and  C_8 
REMARK    4  A    between atoms: C_8  and  O_9 
REMARK    5  A    between atoms: O_9  and  C_10 
ROOT
HETATM    1  N   UNL     1      44.305 -17.287   5.107  1.00  0.00    -0.307 N 
HETATM    2  C   UNL     1      43.410 -16.599   5.892  1.00  0.00     0.320 C 
HETATM    3  N   UNL     1      44.013 -15.503   6.476  1.00  0.00    -0.340 N 
HETATM    4  O   UNL     1      42.241 -16.893   6.085  1.00  0.00    -0.247 OA
HETATM    5  H   UNL     1      45.243 -17.286   5.484  1.00  0.00     0.170 HD
HETATM    6  H   UNL     1      44.788 -15.145   5.938  1.00  0.00     0.164 HD
ENDROOT
BRANCH   3   7
HETATM    7  C   UNL     1      43.199 -14.480   7.127  1.00  0.00     0.156 C 
BRANCH   7   8
HETATM    8  C   UNL     1      43.246 -13.080   6.478  1.00  0.00     0.142 C 
HETATM    9  C   UNL     1      43.222 -13.162   4.950  1.00  0.00     0.042 C 
BRANCH   8  10
HETATM   10  O   UNL     1      44.516 -12.474   6.788  1.00  0.00    -0.345 OA
BRANCH  10  11
HETATM   11  C   UNL     1      44.543 -11.229   7.342  1.00  0.00     0.069 A 
HETATM   12  C   UNL     1      45.681 -10.531   7.744  1.00  0.00     0.038 A 
HETATM   13  C   UNL     1      45.556  -9.249   8.292  1.00  0.00     0.026 A 
HETATM   14  C   UNL     1      44.297  -8.665   8.427  1.00  0.00     0.034 A 
HETATM   15 CL   UNL     1      44.150  -7.090   9.103  1.00  0.00    -0.084 Cl
HETATM   16  C   UNL     1      43.159  -9.348   8.011  1.00  0.00     0.026 A 
HETATM   17  C   UNL     1      43.287 -10.627   7.465  1.00  0.00     0.038 A 
ENDBRANCH  10  11
ENDBRANCH   8  10
ENDBRANCH   7   8
ENDBRANCH   3   7
BRANCH   1  18
HETATM   18  C   UNL     1      44.000 -18.327   4.194  1.00  0.00     0.059 A 
HETATM   19  C   UNL     1      43.518 -18.166   2.885  1.00  0.00    -0.032 A 
HETATM   20  C   UNL     1      43.295 -16.845   2.204  1.00  0.00     0.050 C 
HETATM   21  C   UNL     1      43.242 -19.321   2.131  1.00  0.00     0.028 A 
HETATM   22  C   UNL     1      43.509 -20.570   2.665  1.00  0.00     0.117 A 
HETATM   23  N   UNL     1      44.033 -20.756   3.889  1.00  0.00    -0.271 NA
HETATM   24  C   UNL     1      44.263 -19.636   4.614  1.00  0.00     0.146 A 
ENDBRANCH   1  18
TORSDOF 5
ENDMDL
MODEL 4
REMARK VINA RESULT:      -7.2      3.565      6.762
REMARK  5 active torsions:
REMARK  status: ('A' for Active; 'I' for Inactive)
REMARK    1  A    between atoms: C_3  and  N_4 
REMARK       I    between atoms: N_4  and  C_5 
REMARK       I    between atoms: C_5  and  N_6 
REMARK    2  A    between atoms: N_6  and  C_7 
REMARK    3  A    between atoms: C_7  and  C_8 
REMARK    4  A    between atoms: C_8  and  O_9 
REMARK    5  A    between atoms: O_9  and  C_10 
ROOT
HETATM    1  N   UNL     1      43.459 -17.239   2.226  1.00  0.00    -0.307 N 
HETATM    2  C   UNL     1      42.309 -16.484   2.222  1.00  0.00     0.320 C 
HETATM    3  N   UNL     1      42.376 -15.496   1.260  1.00  0.00    -0.340 N 
HETATM    4  O   UNL     1      41.348 -16.625   2.961  1.00  0.00    -0.247 OA
HETATM    5  H   UNL     1      44.287 -16.698   2.021  1.00  0.00     0.170 HD
HETATM    6  H   UNL     1      42.976 -15.738   0.485  1.00  0.00     0.164 HD
ENDROOT
BRANCH   3   7
HETATM    7  C   UNL     1      41.175 -14.752   0.890  1.00  0.00     0.156 C 
BRANCH   7   8
HETATM    8  C   UNL     1      40.866 -13.514   1.760  1.00  0.00     0.142 C 
HETATM    9  C   UNL     1      39.977 -12.509   1.023  1.00  0.00     0.042 C 
BRANCH   8  10
HETATM   10  O   UNL     1      42.096 -12.803   1.999  1.00  0.00    -0.345 OA
BRANCH  10  11
HETATM   11  C   UNL     1      42.562 -12.687   3.274  1.00  0.00     0.069 A 
HETATM   12  C   UNL     1      42.155 -13.444   4.372  1.00  0.00     0.038 A 
HETATM   13  C   UNL     1      42.731 -13.218   5.628  1.00  0.00     0.026 A 
HETATM   14  C   UNL     1      43.719 -12.245   5.780  1.00  0.00     0.034 A 
HETATM   15 CL   UNL     1      44.421 -11.971   7.326  1.00  0.00    -0.084 Cl
HETATM   16  C   UNL     1      44.143 -11.499   4.686  1.00  0.00     0.026 A 
HETATM   17  C   UNL     1      43.566 -11.726   3.435  1.00  0.00     0.038 A 
ENDBRANCH  10  11
ENDBRANCH   8  10
ENDBRANCH   7   8
ENDBRANCH   3   7
BRANCH   1  18
HETATM   18  C   UNL     1      43.663 -18.457   2.919  1.00  0.00     0.059 A 
HETATM   19  C   UNL     1      44.021 -18.593   4.270  1.00  0.00    -0.032 A 
HETATM   20  C   UNL     1      44.194 -17.455   5.235  1.00  0.00     0.050 C 
HETATM   21  C   UNL     1      44.210 -19.890   4.781  1.00  0.00     0.028 A 
HETATM   22  C   UNL     1      43.979 -20.988   3.970  1.00  0.00     0.117 A 
HETATM   23  N   UNL     1      43.572 -20.894   2.692  1.00  0.00    -0.271 NA
HETATM   24  C   UNL     1      43.426 -19.639   2.206  1.00  0.00     0.146 A 
ENDBRANCH   1  18
TORSDOF 5
ENDMDL
MODEL 5
REMARK VINA RESULT:      -7.1      3.824      6.042
REMARK  5 active torsions:
REMARK  status: ('A' for Active; 'I' for Inactive)
REMARK    1  A    between atoms: C_3  and  N_4 
REMARK       I    between atoms: N_4  and  C_5 
REMARK       I    between atoms: C_5  and  N_6 
REMARK    2  A    between atoms: N_6  and  C_7 
REMARK    3  A    between atoms: C_7  and  C_8 
REMARK    4  A    between atoms: C_8  and  O_9 
REMARK    5  A    between atoms: O_9  and  C_10 
ROOT
HETATM    1  N   UNL     1      43.665 -12.214   7.535  1.00  0.00    -0.307 N 
HETATM    2  C   UNL     1      42.902 -12.485   6.423  1.00  0.00     0.320 C 
HETATM    3  N   UNL     1      42.167 -13.640   6.603  1.00  0.00    -0.340 N 
HETATM    4  O   UNL     1      42.864 -11.829   5.395  1.00  0.00    -0.247 OA
HETATM    5  H   UNL     1      44.015 -13.048   7.986  1.00  0.00     0.170 HD
HETATM    6  H   UNL     1      41.962 -13.831   7.573  1.00  0.00     0.164 HD
ENDROOT
BRANCH   3   7
HETATM    7  C   UNL     1      41.090 -13.974   5.676  1.00  0.00     0.156 C 
BRANCH   7   8
HETATM    8  C   UNL     1      41.229 -15.335   4.959  1.00  0.00     0.142 C 
HETATM    9  C   UNL     1      40.515 -16.454   5.721  1.00  0.00     0.042 C 
BRANCH   8  10
HETATM   10  O   UNL     1      42.617 -15.718   4.969  1.00  0.00    -0.345 OA
BRANCH  10  11
HETATM   11  C   UNL     1      42.997 -16.863   4.335  1.00  0.00     0.069 A 
HETATM   12  C   UNL     1      43.718 -17.916   4.897  1.00  0.00     0.038 A 
HETATM   13  C   UNL     1      44.032 -19.039   4.123  1.00  0.00     0.026 A 
HETATM   14  C   UNL     1      43.616 -19.112   2.794  1.00  0.00     0.034 A 
HETATM   15 CL   UNL     1      44.006 -20.494   1.847  1.00  0.00    -0.084 Cl
HETATM   16  C   UNL     1      42.881 -18.074   2.232  1.00  0.00     0.026 A 
HETATM   17  C   UNL     1      42.570 -16.954   3.006  1.00  0.00     0.038 A 
ENDBRANCH  10  11
ENDBRANCH   8  10
ENDBRANCH   7   8
ENDBRANCH   3   7
BRANCH   1  18
HETATM   18  C   UNL     1      44.374 -11.016   7.799  1.00  0.00     0.059 A 
HETATM   19  C   UNL     1      43.822  -9.812   8.266  1.00  0.00    -0.032 A 
HETATM   20  C   UNL     1      42.377  -9.606   8.623  1.00  0.00     0.050 C 
HETATM   21  C   UNL     1      44.680  -8.712   8.445  1.00  0.00     0.028 A 
HETATM   22  C   UNL     1      46.039  -8.858   8.221  1.00  0.00     0.117 A 
HETATM   23  N   UNL     1      46.607 -10.014   7.838  1.00  0.00    -0.271 NA
HETATM   24  C   UNL     1      45.764 -11.055   7.640  1.00  0.00     0.146 A 
ENDBRANCH   1  18
TORSDOF 5
ENDMDL
MODEL 6
REMARK VINA RESULT:      -7.1      2.679      6.077
REMARK  5 active torsions:
REMARK  status: ('A' for Active; 'I' for Inactive)
REMARK    1  A    between atoms: C_3  and  N_4 
REMARK       I    between atoms: N_4  and  C_5 
REMARK       I    between atoms: C_5  and  N_6 
REMARK    2  A    between atoms: N_6  and  C_7 
REMARK    3  A    between atoms: C_7  and  C_8 
REMARK    4  A    between atoms: C_8  and  O_9 
REMARK    5  A    between atoms: O_9  and  C_10 
ROOT
HETATM    1  N   UNL     1      43.444 -16.451   4.947  1.00  0.00    -0.307 N 
HETATM    2  C   UNL     1      42.276 -15.877   5.394  1.00  0.00     0.320 C 
HETATM    3  N   UNL     1      42.479 -14.553   5.728  1.00  0.00    -0.340 N 
HETATM    4  O   UNL     1      41.194 -16.431   5.507  1.00  0.00    -0.247 OA
HETATM    5  H   UNL     1      44.263 -16.103   5.427  1.00  0.00     0.170 HD
HETATM    6  H   UNL     1      43.238 -14.127   5.216  1.00  0.00     0.164 HD
ENDROOT
BRANCH   3   7
HETATM    7  C   UNL     1      41.337 -13.674   5.966  1.00  0.00     0.156 C 
BRANCH   7   8
HETATM    8  C   UNL     1      40.899 -12.814   4.761  1.00  0.00     0.142 C 
HETATM    9  C   UNL     1      40.321 -11.468   5.204  1.00  0.00     0.042 C 
BRANCH   8  10
HETATM   10  O   UNL     1      39.805 -13.477   4.098  1.00  0.00    -0.345 OA
BRANCH  10  11
HETATM   11  C   UNL     1      39.807 -13.570   2.739  1.00  0.00     0.069 A 
HETATM   12  C   UNL     1      39.631 -12.518   1.841  1.00  0.00     0.038 A 
HETATM   13  C   UNL     1      39.665 -12.762   0.463  1.00  0.00     0.026 A 
HETATM   14  C   UNL     1      39.885 -14.053  -0.013  1.00  0.00     0.034 A 
HETATM   15 CL   UNL     1      39.923 -14.348  -1.708  1.00  0.00    -0.084 Cl
HETATM   16  C   UNL     1      40.078 -15.105   0.876  1.00  0.00     0.026 A 
HETATM   17  C   UNL     1      40.043 -14.859   2.249  1.00  0.00     0.038 A 
ENDBRANCH  10  11
ENDBRANCH   8  10
ENDBRANCH   7   8
ENDBRANCH   3   7
BRANCH   1  18
HETATM   18  C   UNL     1      43.575 -17.715   4.322  1.00  0.00     0.059 A 
HETATM   19  C   UNL     1      43.425 -17.982   2.951  1.00  0.00    -0.032 A 
HETATM   20  C   UNL     1      43.152 -16.947   1.896  1.00  0.00     0.050 C 
HETATM   21  C   UNL     1      43.565 -19.311   2.513  1.00  0.00     0.028 A 
HETATM   22  C   UNL     1      43.905 -20.301   3.419  1.00  0.00     0.117 A 
HETATM   23  N   UNL     1      44.121 -20.068   4.725  1.00  0.00    -0.271 NA
HETATM   24  C   UNL     1      43.951 -18.789   5.137  1.00  0.00     0.146 A 
ENDBRANCH   1  18
TORSDOF 5
ENDMDL
MODEL 7
REMARK VINA RESULT:      -6.8      1.906      2.083
REMARK  5 active torsions:
REMARK  status: ('A' for Active; 'I' for Inactive)
REMARK    1  A    between atoms: C_3  and  N_4 
REMARK       I    between atoms: N_4  and  C_5 
REMARK       I    between atoms: C_5  and  N_6 
REMARK    2  A    between atoms: N_6  and  C_7 
REMARK    3  A    between atoms: C_7  and  C_8 
REMARK    4  A    between atoms: C_8  and  O_9 
REMARK    5  A    between atoms: O_9  and  C_10 
ROOT
HETATM    1  N   UNL     1      40.183 -13.735   3.865  1.00  0.00    -0.307 N 
HETATM    2  C   UNL     1      40.450 -13.980   5.192  1.00  0.00     0.320 C 
HETATM    3  N   UNL     1      40.216 -15.305   5.502  1.00  0.00    -0.340 N 
HETATM    4  O   UNL     1      40.828 -13.164   6.017  1.00  0.00    -0.247 OA
HETATM    5  H   UNL     1      39.402 -14.274   3.514  1.00  0.00     0.170 HD
HETATM    6  H   UNL     1      40.325 -15.922   4.710  1.00  0.00     0.164 HD
ENDROOT
BRANCH   3   7
HETATM    7  C   UNL     1      40.686 -15.854   6.771  1.00  0.00     0.156 C 
BRANCH   7   8
HETATM    8  C   UNL     1      42.162 -16.307   6.793  1.00  0.00     0.142 C 
HETATM    9  C   UNL     1      42.999 -15.467   7.760  1.00  0.00     0.042 C 
BRANCH   8  10
HETATM   10  O   UNL     1      42.738 -16.052   5.498  1.00  0.00    -0.345 OA
BRANCH  10  11
HETATM   11  C   UNL     1      43.086 -17.104   4.704  1.00  0.00     0.069 A 
HETATM   12  C   UNL     1      43.809 -18.229   5.097  1.00  0.00     0.038 A 
HETATM   13  C   UNL     1      44.087 -19.240   4.170  1.00  0.00     0.026 A 
HETATM   14  C   UNL     1      43.632 -19.129   2.857  1.00  0.00     0.034 A 
HETATM   15 CL   UNL     1      43.978 -20.374   1.721  1.00  0.00    -0.084 Cl
HETATM   16  C   UNL     1      42.894 -18.019   2.461  1.00  0.00     0.026 A 
HETATM   17  C   UNL     1      42.620 -17.012   3.388  1.00  0.00     0.038 A 
ENDBRANCH  10  11
ENDBRANCH   8  10
ENDBRANCH   7   8
ENDBRANCH   3   7
BRANCH   1  18
HETATM   18  C   UNL     1      40.506 -12.560   3.144  1.00  0.00     0.059 A 
HETATM   19  C   UNL     1      41.773 -12.214   2.649  1.00  0.00    -0.032 A 
HETATM   20  C   UNL     1      43.004 -13.069   2.753  1.00  0.00     0.050 C 
HETATM   21  C   UNL     1      41.912 -10.985   1.977  1.00  0.00     0.028 A 
HETATM   22  C   UNL     1      40.800 -10.188   1.767  1.00  0.00     0.117 A 
HETATM   23  N   UNL     1      39.562 -10.521   2.170  1.00  0.00    -0.271 NA
HETATM   24  C   UNL     1      39.451 -11.691   2.842  1.00  0.00     0.146 A 
ENDBRANCH   1  18
TORSDOF 5
ENDMDL
MODEL 8
REMARK VINA RESULT:      -6.7      3.881      6.214
REMARK  5 active torsions:
REMARK  status: ('A' for Active; 'I' for Inactive)
REMARK    1  A    between atoms: C_3  and  N_4 
REMARK       I    between atoms: N_4  and  C_5 
REMARK       I    between atoms: C_5  and  N_6 
REMARK    2  A    between atoms: N_6  and  C_7 
REMARK    3  A    between atoms: C_7  and  C_8 
REMARK    4  A    between atoms: C_8  and  O_9 
REMARK    5  A    between atoms: O_9  and  C_10 
ROOT
HETATM    1  N   UNL     1      43.015 -11.700   7.324  1.00  0.00    -0.307 N 
HETATM    2  C   UNL     1      42.243 -11.669   6.186  1.00  0.00     0.320 C 
HETATM    3  N   UNL     1      41.330 -12.705   6.186  1.00  0.00    -0.340 N 
HETATM    4  O   UNL     1      42.332 -10.864   5.272  1.00  0.00    -0.247 OA
HETATM    5  H   UNL     1      43.218 -12.639   7.638  1.00  0.00     0.170 HD
HETATM    6  H   UNL     1      41.076 -13.008   7.115  1.00  0.00     0.164 HD
ENDROOT
BRANCH   3   7
HETATM    7  C   UNL     1      40.234 -12.714   5.221  1.00  0.00     0.156 C 
BRANCH   7   8
HETATM    8  C   UNL     1      40.478 -13.552   3.947  1.00  0.00     0.142 C 
HETATM    9  C   UNL     1      39.448 -13.243   2.858  1.00  0.00     0.042 C 
BRANCH   8  10
HETATM   10  O   UNL     1      40.262 -14.941   4.265  1.00  0.00    -0.345 OA
BRANCH  10  11
HETATM   11  C   UNL     1      41.268 -15.837   4.053  1.00  0.00     0.069 A 
HETATM   12  C   UNL     1      42.216 -16.247   4.989  1.00  0.00     0.038 A 
HETATM   13  C   UNL     1      43.190 -17.186   4.630  1.00  0.00     0.026 A 
HETATM   14  C   UNL     1      43.208 -17.718   3.342  1.00  0.00     0.034 A 
HETATM   15 CL   UNL     1      44.410 -18.870   2.906  1.00  0.00    -0.084 Cl
HETATM   16  C   UNL     1      42.255 -17.327   2.408  1.00  0.00     0.026 A 
HETATM   17  C   UNL     1      41.284 -16.391   2.769  1.00  0.00     0.038 A 
ENDBRANCH  10  11
ENDBRANCH   8  10
ENDBRANCH   7   8
ENDBRANCH   3   7
BRANCH   1  18
HETATM   18  C   UNL     1      43.899 -10.687   7.770  1.00  0.00     0.059 A 
HETATM   19  C   UNL     1      45.250 -10.549   7.412  1.00  0.00    -0.032 A 
HETATM   20  C   UNL     1      45.980 -11.433   6.440  1.00  0.00     0.050 C 
HETATM   21  C   UNL     1      45.984  -9.492   7.979  1.00  0.00     0.028 A 
HETATM   22  C   UNL     1      45.351  -8.586   8.814  1.00  0.00     0.117 A 
HETATM   23  N   UNL     1      44.045  -8.651   9.123  1.00  0.00    -0.271 NA
HETATM   24  C   UNL     1      43.360  -9.693   8.595  1.00  0.00     0.146 A 
ENDBRANCH   1  18
TORSDOF 5
ENDMDL
MODEL 9
REMARK VINA RESULT:      -6.5     14.394     15.934
REMARK  5 active torsions:
REMARK  status: ('A' for Active; 'I' for Inactive)
REMARK    1  A    between atoms: C_3  and  N_4 
REMARK       I    between atoms: N_4  and  C_5 
REMARK       I    between atoms: C_5  and  N_6 
REMARK    2  A    between atoms: N_6  and  C_7 
REMARK    3  A    between atoms: C_7  and  C_8 
REMARK    4  A    between atoms: C_8  and  O_9 
REMARK    5  A    between atoms: O_9  and  C_10 
ROOT
HETATM    1  N   UNL     1      42.404 -29.778   3.224  1.00  0.00    -0.307 N 
HETATM    2  C   UNL     1      43.657 -30.053   2.729  1.00  0.00     0.320 C 
HETATM    3  N   UNL     1      44.360 -28.886   2.504  1.00  0.00    -0.340 N 
HETATM    4  O   UNL     1      44.117 -31.159   2.494  1.00  0.00    -0.247 OA
HETATM    5  H   UNL     1      42.001 -28.937   2.834  1.00  0.00     0.170 HD
HETATM    6  H   UNL     1      44.068 -28.126   3.102  1.00  0.00     0.164 HD
ENDROOT
BRANCH   3   7
HETATM    7  C   UNL     1      45.796 -28.936   2.241  1.00  0.00     0.156 C 
BRANCH   7   8
HETATM    8  C   UNL     1      46.195 -29.086   0.757  1.00  0.00     0.142 C 
HETATM    9  C   UNL     1      47.606 -28.556   0.492  1.00  0.00     0.042 C 
BRANCH   8  10
HETATM   10  O   UNL     1      45.337 -28.242  -0.035  1.00  0.00    -0.345 OA
BRANCH  10  11
HETATM   11  C   UNL     1      45.058 -28.595  -1.321  1.00  0.00     0.069 A 
HETATM   12  C   UNL     1      45.429 -27.894  -2.467  1.00  0.00     0.038 A 
HETATM   13  C   UNL     1      45.078 -28.383  -3.731  1.00  0.00     0.026 A 
HETATM   14  C   UNL     1      44.366 -29.577  -3.846  1.00  0.00     0.034 A 
HETATM   15 CL   UNL     1      43.936 -30.173  -5.401  1.00  0.00    -0.084 Cl
HETATM   16  C   UNL     1      44.008 -30.292  -2.708  1.00  0.00     0.026 A 
HETATM   17  C   UNL     1      44.359 -29.800  -1.449  1.00  0.00     0.038 A 
ENDBRANCH  10  11
ENDBRANCH   8  10
ENDBRANCH   7   8
ENDBRANCH   3   7
BRANCH   1  18
HETATM   18  C   UNL     1      41.489 -30.714   3.768  1.00  0.00     0.059 A 
HETATM   19  C   UNL     1      40.614 -31.536   3.041  1.00  0.00    -0.032 A 
HETATM   20  C   UNL     1      40.537 -31.604   1.542  1.00  0.00     0.050 C 
HETATM   21  C   UNL     1      39.753 -32.388   3.757  1.00  0.00     0.028 A 
HETATM   22  C   UNL     1      39.833 -32.442   5.138  1.00  0.00     0.117 A 
HETATM   23  N   UNL     1      40.705 -31.717   5.859  1.00  0.00    -0.271 NA
HETATM   24  C   UNL     1      41.505 -30.879   5.158  1.00  0.00     0.146 A 
ENDBRANCH   1  18
TORSDOF 5
ENDMDL
MODEL 10
REMARK VINA RESULT:      -6.4      4.805      7.444
REMARK  5 active torsions:
REMARK  status: ('A' for Active; 'I' for Inactive)
REMARK    1  A    between atoms: C_3  and  N_4 
REMARK       I    between atoms: N_4  and  C_5 
REMARK       I    between atoms: C_5  and  N_6 
REMARK    2  A    between atoms: N_6  and  C_7 
REMARK    3  A    between atoms: C_7  and  C_8 
REMARK    4  A    between atoms: C_8  and  O_9 
REMARK    5  A    between atoms: O_9  and  C_10 
ROOT
HETATM    1  N   UNL     1      43.098 -10.691   8.844  1.00  0.00    -0.307 N 
HETATM    2  C   UNL     1      42.828 -10.422   7.522  1.00  0.00     0.320 C 
HETATM    3  N   UNL     1      42.841 -11.583   6.774  1.00  0.00    -0.340 N 
HETATM    4  O   UNL     1      42.618  -9.323   7.036  1.00  0.00    -0.247 OA
HETATM    5  H   UNL     1      43.765 -11.441   8.966  1.00  0.00     0.170 HD
HETATM    6  H   UNL     1      42.606 -12.404   7.314  1.00  0.00     0.164 HD
ENDROOT
BRANCH   3   7
HETATM    7  C   UNL     1      42.318 -11.580   5.411  1.00  0.00     0.156 C 
BRANCH   7   8
HETATM    8  C   UNL     1      41.803 -12.941   4.894  1.00  0.00     0.142 C 
HETATM    9  C   UNL     1      40.445 -13.302   5.501  1.00  0.00     0.042 C 
BRANCH   8  10
HETATM   10  O   UNL     1      42.694 -13.974   5.357  1.00  0.00    -0.345 OA
BRANCH  10  11
HETATM   11  C   UNL     1      42.884 -15.084   4.590  1.00  0.00     0.069 A 
HETATM   12  C   UNL     1      42.832 -15.142   3.198  1.00  0.00     0.038 A 
HETATM   13  C   UNL     1      43.057 -16.357   2.540  1.00  0.00     0.026 A 
HETATM   14  C   UNL     1      43.343 -17.507   3.274  1.00  0.00     0.034 A 
HETATM   15 CL   UNL     1      43.616 -18.998   2.461  1.00  0.00    -0.084 Cl
HETATM   16  C   UNL     1      43.414 -17.454   4.662  1.00  0.00     0.026 A 
HETATM   17  C   UNL     1      43.189 -16.241   5.315  1.00  0.00     0.038 A 
ENDBRANCH  10  11
ENDBRANCH   8  10
ENDBRANCH   7   8
ENDBRANCH   3   7
BRANCH   1  18
HETATM   18  C   UNL     1      42.961  -9.794   9.931  1.00  0.00     0.059 A 
HETATM   19  C   UNL     1      44.000  -9.305  10.739  1.00  0.00    -0.032 A 
HETATM   20  C   UNL     1      45.459  -9.613  10.549  1.00  0.00     0.050 C 
HETATM   21  C   UNL     1      43.670  -8.439  11.797  1.00  0.00     0.028 A 
HETATM   22  C   UNL     1      42.355  -8.043  11.975  1.00  0.00     0.117 A 
HETATM   23  N   UNL     1      41.347  -8.439  11.179  1.00  0.00    -0.271 NA
HETATM   24  C   UNL     1      41.677  -9.297  10.185  1.00  0.00     0.146 A 
ENDBRANCH   1  18
TORSDOF 5
ENDMDL
