MODEL 1
REMARK VINA RESULT:      -8.3      0.000      0.000
REMARK  3 active torsions:
REMARK  status: ('A' for Active; 'I' for Inactive)
REMARK    1  A    between atoms: C_2  and  N_3 
REMARK    2  A    between atoms: C_7  and  N_8 
REMARK    3  A    between atoms: N_8  and  C_9 
ROOT
HETATM    1  N   UNL     1      42.454 -15.185   4.565  1.00  0.00    -0.230 N 
HETATM    2  C   UNL     1      41.814 -15.160   5.804  1.00  0.00     0.335 A 
HETATM    3  O   UNL     1      41.515 -16.129   6.503  1.00  0.00    -0.246 OA
HETATM    4  N   UNL     1      41.526 -13.929   6.326  1.00  0.00    -0.294 N 
HETATM    5  C   UNL     1      41.867 -12.725   5.796  1.00  0.00     0.114 A 
HETATM    6  C   UNL     1      42.466 -12.735   4.604  1.00  0.00     0.123 A 
HETATM    7  C   UNL     1      42.761 -13.999   3.899  1.00  0.00     0.259 A 
HETATM    8  O   UNL     1      43.215 -13.885   2.761  1.00  0.00    -0.267 OA
HETATM    9  H   UNL     1      41.093 -13.965   7.239  1.00  0.00     0.172 HD
ENDROOT
BRANCH   5  10
HETATM   10  N   UNL     1      41.526 -11.577   6.477  1.00  0.00    -0.342 N 
HETATM   11  H   UNL     1      40.666 -11.654   7.011  1.00  0.00     0.167 HD
BRANCH  10  12
HETATM   12  C   UNL     1      42.379 -10.576   6.998  1.00  0.00     0.036 A 
HETATM   13  C   UNL     1      43.714 -10.926   7.267  1.00  0.00     0.069 A 
HETATM   14  C   UNL     1      44.557  -9.970   7.799  1.00  0.00     0.107 A 
HETATM   15  C   UNL     1      44.122  -8.700   8.082  1.00  0.00     0.105 A 
HETATM   16  O   UNL     1      45.872 -10.149   8.098  1.00  0.00    -0.323 OA
HETATM   17  O   UNL     1      45.108  -7.915   8.591  1.00  0.00    -0.323 OA
HETATM   18  C   UNL     1      42.821  -8.318   7.855  1.00  0.00     0.042 A 
HETATM   19  C   UNL     1      46.216  -8.837   8.592  1.00  0.00     0.352 A 
HETATM   20  C   UNL     1      41.946  -9.269   7.314  1.00  0.00     0.032 A 
ENDBRANCH  10  12
ENDBRANCH   5  10
BRANCH   1  21
HETATM   21  C   UNL     1      42.784 -16.456   3.949  1.00  0.00     0.047 A 
HETATM   22  C   UNL     1      43.806 -17.281   4.454  1.00  0.00     0.031 A 
HETATM   23  C   UNL     1      44.129 -18.506   3.853  1.00  0.00     0.021 A 
HETATM   24  C   UNL     1      43.430 -18.932   2.731  1.00  0.00     0.011 A 
HETATM   25  C   UNL     1      42.414 -18.144   2.207  1.00  0.00     0.021 A 
HETATM   26 BR   UNL     1      43.860 -20.583   1.920  1.00  0.00    -0.051 Br
HETATM   27  C   UNL     1      42.097 -16.919   2.811  1.00  0.00     0.031 A 
ENDBRANCH   1  21
TORSDOF 3
ENDMDL
MODEL 2
REMARK VINA RESULT:      -8.2      4.154      8.589
REMARK  3 active torsions:
REMARK  status: ('A' for Active; 'I' for Inactive)
REMARK    1  A    between atoms: C_2  and  N_3 
REMARK    2  A    between atoms: C_7  and  N_8 
REMARK    3  A    between atoms: N_8  and  C_9 
ROOT
HETATM    1  N   UNL     1      41.264 -13.557   5.407  1.00  0.00    -0.230 N 
HETATM    2  C   UNL     1      42.525 -13.786   4.855  1.00  0.00     0.335 A 
HETATM    3  O   UNL     1      43.158 -13.032   4.116  1.00  0.00    -0.246 OA
HETATM    4  N   UNL     1      43.150 -14.952   5.204  1.00  0.00    -0.294 N 
HETATM    5  C   UNL     1      42.702 -15.875   6.094  1.00  0.00     0.114 A 
HETATM    6  C   UNL     1      41.490 -15.675   6.618  1.00  0.00     0.123 A 
HETATM    7  C   UNL     1      40.681 -14.494   6.260  1.00  0.00     0.259 A 
HETATM    8  O   UNL     1      39.539 -14.467   6.718  1.00  0.00    -0.267 OA
HETATM    9  H   UNL     1      44.072 -15.054   4.804  1.00  0.00     0.172 HD
ENDROOT
BRANCH   5  10
HETATM   10  N   UNL     1      43.480 -16.982   6.356  1.00  0.00    -0.342 N 
HETATM   11  H   UNL     1      43.618 -17.165   7.346  1.00  0.00     0.167 HD
BRANCH  10  12
HETATM   12  C   UNL     1      43.632 -18.155   5.581  1.00  0.00     0.036 A 
HETATM   13  C   UNL     1      43.588 -18.027   4.181  1.00  0.00     0.069 A 
HETATM   14  C   UNL     1      43.711 -19.163   3.406  1.00  0.00     0.107 A 
HETATM   15  C   UNL     1      43.860 -20.407   3.965  1.00  0.00     0.105 A 
HETATM   16  O   UNL     1      43.703 -19.201   2.046  1.00  0.00    -0.323 OA
HETATM   17  O   UNL     1      43.970 -21.387   3.031  1.00  0.00    -0.323 OA
HETATM   18  C   UNL     1      43.889 -20.584   5.328  1.00  0.00     0.042 A 
HETATM   19  C   UNL     1      43.877 -20.616   1.816  1.00  0.00     0.352 A 
HETATM   20  C   UNL     1      43.768 -19.446   6.138  1.00  0.00     0.032 A 
ENDBRANCH  10  12
ENDBRANCH   5  10
BRANCH   1  21
HETATM   21  C   UNL     1      40.542 -12.345   5.076  1.00  0.00     0.047 A 
HETATM   22  C   UNL     1      40.631 -11.187   5.872  1.00  0.00     0.031 A 
HETATM   23  C   UNL     1      39.926 -10.018   5.554  1.00  0.00     0.021 A 
HETATM   24  C   UNL     1      39.115  -9.984   4.427  1.00  0.00     0.011 A 
HETATM   25  C   UNL     1      39.004 -11.106   3.619  1.00  0.00     0.021 A 
HETATM   26 BR   UNL     1      38.165  -8.409   3.995  1.00  0.00    -0.051 Br
HETATM   27  C   UNL     1      39.710 -12.273   3.942  1.00  0.00     0.031 A 
ENDBRANCH   1  21
TORSDOF 3
ENDMDL
MODEL 3
REMARK VINA RESULT:      -8.1      5.902      8.241
REMARK  3 active torsions:
REMARK  status: ('A' for Active; 'I' for Inactive)
REMARK    1  A    between atoms: C_2  and  N_3 
REMARK    2  A    between atoms: C_7  and  N_8 
REMARK    3  A    between atoms: N_8  and  C_9 
ROOT
HETATM    1  N   UNL     1      39.698 -12.790  -0.144  1.00  0.00    -0.230 N 
HETATM    2  C   UNL     1      39.699 -14.158  -0.418  1.00  0.00     0.335 A 
HETATM    3  O   UNL     1      39.742 -14.692  -1.526  1.00  0.00    -0.246 OA
HETATM    4  N   UNL     1      39.698 -15.004   0.658  1.00  0.00    -0.294 N 
HETATM    5  C   UNL     1      39.774 -14.648   1.967  1.00  0.00     0.114 A 
HETATM    6  C   UNL     1      39.758 -13.342   2.243  1.00  0.00     0.123 A 
HETATM    7  C   UNL     1      39.680 -12.329   1.172  1.00  0.00     0.259 A 
HETATM    8  O   UNL     1      39.562 -11.161   1.545  1.00  0.00    -0.267 OA
HETATM    9  H   UNL     1      39.733 -15.982   0.407  1.00  0.00     0.172 HD
ENDROOT
BRANCH   5  10
HETATM   10  N   UNL     1      39.798 -15.636   2.927  1.00  0.00    -0.342 N 
HETATM   11  H   UNL     1      39.030 -16.297   2.857  1.00  0.00     0.167 HD
BRANCH  10  12
HETATM   12  C   UNL     1      40.917 -16.200   3.582  1.00  0.00     0.036 A 
HETATM   13  C   UNL     1      40.982 -16.092   4.983  1.00  0.00     0.069 A 
HETATM   14  C   UNL     1      42.077 -16.616   5.639  1.00  0.00     0.107 A 
HETATM   15  C   UNL     1      43.104 -17.223   4.962  1.00  0.00     0.105 A 
HETATM   16  O   UNL     1      42.277 -16.604   6.985  1.00  0.00    -0.323 OA
HETATM   17  O   UNL     1      44.080 -17.674   5.793  1.00  0.00    -0.323 OA
HETATM   18  C   UNL     1      43.095 -17.335   3.592  1.00  0.00     0.042 A 
HETATM   19  C   UNL     1      43.547 -17.285   7.075  1.00  0.00     0.352 A 
HETATM   20  C   UNL     1      41.993 -16.812   2.901  1.00  0.00     0.032 A 
ENDBRANCH  10  12
ENDBRANCH   5  10
BRANCH   1  21
HETATM   21  C   UNL     1      39.692 -11.837  -1.236  1.00  0.00     0.047 A 
HETATM   22  C   UNL     1      40.883 -11.288  -1.747  1.00  0.00     0.031 A 
HETATM   23  C   UNL     1      40.876 -10.361  -2.798  1.00  0.00     0.021 A 
HETATM   24  C   UNL     1      39.670  -9.964  -3.363  1.00  0.00     0.011 A 
HETATM   25  C   UNL     1      38.476 -10.486  -2.884  1.00  0.00     0.021 A 
HETATM   26 BR   UNL     1      39.657  -8.716  -4.781  1.00  0.00    -0.051 Br
HETATM   27  C   UNL     1      38.490 -11.411  -1.832  1.00  0.00     0.031 A 
ENDBRANCH   1  21
TORSDOF 3
ENDMDL
MODEL 4
REMARK VINA RESULT:      -8.1      1.519      1.969
REMARK  3 active torsions:
REMARK  status: ('A' for Active; 'I' for Inactive)
REMARK    1  A    between atoms: C_2  and  N_3 
REMARK    2  A    between atoms: C_7  and  N_8 
REMARK    3  A    between atoms: N_8  and  C_9 
ROOT
HETATM    1  N   UNL     1      42.772 -14.575   4.619  1.00  0.00    -0.230 N 
HETATM    2  C   UNL     1      42.253 -14.441   5.906  1.00  0.00     0.335 A 
HETATM    3  O   UNL     1      41.932 -15.348   6.675  1.00  0.00    -0.246 OA
HETATM    4  N   UNL     1      42.125 -13.168   6.392  1.00  0.00    -0.294 N 
HETATM    5  C   UNL     1      42.524 -12.024   5.777  1.00  0.00     0.114 A 
HETATM    6  C   UNL     1      43.008 -12.138   4.539  1.00  0.00     0.123 A 
HETATM    7  C   UNL     1      43.122 -13.450   3.873  1.00  0.00     0.259 A 
HETATM    8  O   UNL     1      43.480 -13.425   2.695  1.00  0.00    -0.267 OA
HETATM    9  H   UNL     1      41.776 -13.127   7.339  1.00  0.00     0.172 HD
ENDROOT
BRANCH   5  10
HETATM   10  N   UNL     1      42.351 -10.822   6.429  1.00  0.00    -0.342 N 
HETATM   11  H   UNL     1      41.452 -10.382   6.251  1.00  0.00     0.167 HD
BRANCH  10  12
HETATM   12  C   UNL     1      42.908 -10.398   7.657  1.00  0.00     0.036 A 
HETATM   13  C   UNL     1      42.153  -9.517   8.452  1.00  0.00     0.069 A 
HETATM   14  C   UNL     1      42.689  -9.073   9.644  1.00  0.00     0.107 A 
HETATM   15  C   UNL     1      43.938  -9.457  10.063  1.00  0.00     0.105 A 
HETATM   16  O   UNL     1      42.079  -8.236  10.526  1.00  0.00    -0.323 OA
HETATM   17  O   UNL     1      44.273  -8.915  11.263  1.00  0.00    -0.323 OA
HETATM   18  C   UNL     1      44.721 -10.300   9.311  1.00  0.00     0.042 A 
HETATM   19  C   UNL     1      43.088  -8.147  11.555  1.00  0.00     0.352 A 
HETATM   20  C   UNL     1      44.199 -10.767   8.096  1.00  0.00     0.032 A 
ENDBRANCH  10  12
ENDBRANCH   5  10
BRANCH   1  21
HETATM   21  C   UNL     1      42.929 -15.895   4.038  1.00  0.00     0.047 A 
HETATM   22  C   UNL     1      43.881 -16.810   4.525  1.00  0.00     0.031 A 
HETATM   23  C   UNL     1      44.037 -18.082   3.958  1.00  0.00     0.021 A 
HETATM   24  C   UNL     1      43.237 -18.467   2.889  1.00  0.00     0.011 A 
HETATM   25  C   UNL     1      42.286 -17.590   2.385  1.00  0.00     0.021 A 
HETATM   26 BR   UNL     1      43.442 -20.182   2.124  1.00  0.00    -0.051 Br
HETATM   27  C   UNL     1      42.137 -16.318   2.955  1.00  0.00     0.031 A 
ENDBRANCH   1  21
TORSDOF 3
ENDMDL
MODEL 5
REMARK VINA RESULT:      -8.0      5.195      9.385
REMARK  3 active torsions:
REMARK  status: ('A' for Active; 'I' for Inactive)
REMARK    1  A    between atoms: C_2  and  N_3 
REMARK    2  A    between atoms: C_7  and  N_8 
REMARK    3  A    between atoms: N_8  and  C_9 
ROOT
HETATM    1  N   UNL     1      42.784  -9.580  10.580  1.00  0.00    -0.230 N 
HETATM    2  C   UNL     1      43.739 -10.581  10.405  1.00  0.00     0.335 A 
HETATM    3  O   UNL     1      44.333 -11.201  11.288  1.00  0.00    -0.246 OA
HETATM    4  N   UNL     1      44.018 -10.951   9.118  1.00  0.00    -0.294 N 
HETATM    5  C   UNL     1      43.404 -10.497   7.994  1.00  0.00     0.114 A 
HETATM    6  C   UNL     1      42.499  -9.528   8.147  1.00  0.00     0.123 A 
HETATM    7  C   UNL     1      42.166  -8.987   9.479  1.00  0.00     0.259 A 
HETATM    8  O   UNL     1      41.400  -8.023   9.490  1.00  0.00    -0.267 OA
HETATM    9  H   UNL     1      44.692 -11.701   9.048  1.00  0.00     0.172 HD
ENDROOT
BRANCH   5  10
HETATM   10  N   UNL     1      43.788 -11.007   6.773  1.00  0.00    -0.342 N 
HETATM   11  H   UNL     1      44.723 -10.731   6.486  1.00  0.00     0.167 HD
BRANCH  10  12
HETATM   12  C   UNL     1      43.386 -12.214   6.157  1.00  0.00     0.036 A 
HETATM   13  C   UNL     1      43.808 -13.422   6.741  1.00  0.00     0.069 A 
HETATM   14  C   UNL     1      43.446 -14.612   6.142  1.00  0.00     0.107 A 
HETATM   15  C   UNL     1      42.700 -14.644   4.991  1.00  0.00     0.105 A 
HETATM   16  O   UNL     1      43.762 -15.856   6.592  1.00  0.00    -0.323 OA
HETATM   17  O   UNL     1      42.448 -15.911   4.570  1.00  0.00    -0.323 OA
HETATM   18  C   UNL     1      42.282 -13.490   4.373  1.00  0.00     0.042 A 
HETATM   19  C   UNL     1      43.118 -16.675   5.594  1.00  0.00     0.352 A 
HETATM   20  C   UNL     1      42.635 -12.268   4.961  1.00  0.00     0.032 A 
ENDBRANCH  10  12
ENDBRANCH   5  10
BRANCH   1  21
HETATM   21  C   UNL     1      42.443  -9.134  11.917  1.00  0.00     0.047 A 
HETATM   22  C   UNL     1      43.202  -8.158  12.589  1.00  0.00     0.031 A 
HETATM   23  C   UNL     1      42.876  -7.732  13.884  1.00  0.00     0.021 A 
HETATM   24  C   UNL     1      41.776  -8.277  14.534  1.00  0.00     0.011 A 
HETATM   25  C   UNL     1      41.003  -9.241  13.901  1.00  0.00     0.021 A 
HETATM   26 BR   UNL     1      41.331  -7.705  16.279  1.00  0.00    -0.051 Br
HETATM   27  C   UNL     1      41.336  -9.663  12.607  1.00  0.00     0.031 A 
ENDBRANCH   1  21
TORSDOF 3
ENDMDL
MODEL 6
REMARK VINA RESULT:      -7.8      5.120      9.451
REMARK  3 active torsions:
REMARK  status: ('A' for Active; 'I' for Inactive)
REMARK    1  A    between atoms: C_2  and  N_3 
REMARK    2  A    between atoms: C_7  and  N_8 
REMARK    3  A    between atoms: N_8  and  C_9 
ROOT
HETATM    1  N   UNL     1      42.879  -9.676  10.509  1.00  0.00    -0.230 N 
HETATM    2  C   UNL     1      42.063  -9.337   9.430  1.00  0.00     0.335 A 
HETATM    3  O   UNL     1      41.073  -8.605   9.450  1.00  0.00    -0.246 OA
HETATM    4  N   UNL     1      42.421  -9.832   8.205  1.00  0.00    -0.294 N 
HETATM    5  C   UNL     1      43.533 -10.557   7.919  1.00  0.00     0.114 A 
HETATM    6  C   UNL     1      44.314 -10.901   8.945  1.00  0.00     0.123 A 
HETATM    7  C   UNL     1      43.994 -10.495  10.328  1.00  0.00     0.259 A 
HETATM    8  O   UNL     1      44.722 -10.958  11.206  1.00  0.00    -0.267 OA
HETATM    9  H   UNL     1      41.817  -9.532   7.453  1.00  0.00     0.172 HD
ENDROOT
BRANCH   5  10
HETATM   10  N   UNL     1      43.758 -10.947   6.617  1.00  0.00    -0.342 N 
HETATM   11  H   UNL     1      44.527 -10.459   6.167  1.00  0.00     0.167 HD
BRANCH  10  12
HETATM   12  C   UNL     1      43.518 -12.207   6.021  1.00  0.00     0.036 A 
HETATM   13  C   UNL     1      43.087 -12.229   4.682  1.00  0.00     0.069 A 
HETATM   14  C   UNL     1      42.824 -13.447   4.089  1.00  0.00     0.107 A 
HETATM   15  C   UNL     1      42.958 -14.629   4.774  1.00  0.00     0.105 A 
HETATM   16  O   UNL     1      42.418 -13.634   2.804  1.00  0.00    -0.323 OA
HETATM   17  O   UNL     1      42.658 -15.711   4.008  1.00  0.00    -0.323 OA
HETATM   18  C   UNL     1      43.357 -14.656   6.089  1.00  0.00     0.042 A 
HETATM   19  C   UNL     1      42.323 -15.074   2.758  1.00  0.00     0.352 A 
HETATM   20  C   UNL     1      43.631 -13.432   6.715  1.00  0.00     0.032 A 
ENDBRANCH  10  12
ENDBRANCH   5  10
BRANCH   1  21
HETATM   21  C   UNL     1      42.557  -9.192  11.837  1.00  0.00     0.047 A 
HETATM   22  C   UNL     1      43.266  -8.131  12.432  1.00  0.00     0.031 A 
HETATM   23  C   UNL     1      42.957  -7.669  13.718  1.00  0.00     0.021 A 
HETATM   24  C   UNL     1      41.926  -8.260  14.438  1.00  0.00     0.011 A 
HETATM   25  C   UNL     1      41.205  -9.308  13.882  1.00  0.00     0.021 A 
HETATM   26 BR   UNL     1      41.506  -7.638  16.172  1.00  0.00    -0.051 Br
HETATM   27  C   UNL     1      41.520  -9.767  12.595  1.00  0.00     0.031 A 
ENDBRANCH   1  21
TORSDOF 3
ENDMDL
MODEL 7
REMARK VINA RESULT:      -7.8      3.297      4.429
REMARK  3 active torsions:
REMARK  status: ('A' for Active; 'I' for Inactive)
REMARK    1  A    between atoms: C_2  and  N_3 
REMARK    2  A    between atoms: C_7  and  N_8 
REMARK    3  A    between atoms: N_8  and  C_9 
ROOT
HETATM    1  N   UNL     1      42.879 -12.225   5.916  1.00  0.00    -0.230 N 
HETATM    2  C   UNL     1      41.638 -11.650   6.187  1.00  0.00     0.335 A 
HETATM    3  O   UNL     1      40.538 -12.039   5.792  1.00  0.00    -0.246 OA
HETATM    4  N   UNL     1      41.628 -10.563   7.018  1.00  0.00    -0.294 N 
HETATM    5  C   UNL     1      42.697 -10.032   7.668  1.00  0.00     0.114 A 
HETATM    6  C   UNL     1      43.892 -10.564   7.405  1.00  0.00     0.123 A 
HETATM    7  C   UNL     1      44.045 -11.691   6.464  1.00  0.00     0.259 A 
HETATM    8  O   UNL     1      45.202 -12.029   6.214  1.00  0.00    -0.267 OA
HETATM    9  H   UNL     1      40.703 -10.205   7.209  1.00  0.00     0.172 HD
ENDROOT
BRANCH   5  10
HETATM   10  N   UNL     1      42.502  -8.951   8.500  1.00  0.00    -0.342 N 
HETATM   11  H   UNL     1      41.888  -8.240   8.115  1.00  0.00     0.167 HD
BRANCH  10  12
HETATM   12  C   UNL     1      42.526  -8.913   9.913  1.00  0.00     0.036 A 
HETATM   13  C   UNL     1      41.323  -9.159  10.599  1.00  0.00     0.069 A 
HETATM   14  C   UNL     1      41.321  -9.103  11.978  1.00  0.00     0.107 A 
HETATM   15  C   UNL     1      42.453  -8.801  12.691  1.00  0.00     0.105 A 
HETATM   16  O   UNL     1      40.246  -9.331  12.780  1.00  0.00    -0.323 OA
HETATM   17  O   UNL     1      42.239  -8.804  14.033  1.00  0.00    -0.323 OA
HETATM   18  C   UNL     1      43.647  -8.533  12.065  1.00  0.00     0.042 A 
HETATM   19  C   UNL     1      40.839  -9.148  14.083  1.00  0.00     0.352 A 
HETATM   20  C   UNL     1      43.677  -8.585  10.665  1.00  0.00     0.032 A 
ENDBRANCH  10  12
ENDBRANCH   5  10
BRANCH   1  21
HETATM   21  C   UNL     1      42.964 -13.376   5.038  1.00  0.00     0.047 A 
HETATM   22  C   UNL     1      42.983 -13.240   3.637  1.00  0.00     0.031 A 
HETATM   23  C   UNL     1      43.058 -14.354   2.790  1.00  0.00     0.021 A 
HETATM   24  C   UNL     1      43.118 -15.633   3.331  1.00  0.00     0.011 A 
HETATM   25  C   UNL     1      43.102 -15.803   4.708  1.00  0.00     0.021 A 
HETATM   26 BR   UNL     1      43.221 -17.136   2.192  1.00  0.00    -0.051 Br
HETATM   27  C   UNL     1      43.025 -14.686   5.550  1.00  0.00     0.031 A 
ENDBRANCH   1  21
TORSDOF 3
ENDMDL
MODEL 8
REMARK VINA RESULT:      -7.8      4.180      8.543
REMARK  3 active torsions:
REMARK  status: ('A' for Active; 'I' for Inactive)
REMARK    1  A    between atoms: C_2  and  N_3 
REMARK    2  A    between atoms: C_7  and  N_8 
REMARK    3  A    between atoms: N_8  and  C_9 
ROOT
HETATM    1  N   UNL     1      41.046 -12.057   5.325  1.00  0.00    -0.230 N 
HETATM    2  C   UNL     1      40.628 -13.251   5.911  1.00  0.00     0.335 A 
HETATM    3  O   UNL     1      39.523 -13.490   6.400  1.00  0.00    -0.246 OA
HETATM    4  N   UNL     1      41.520 -14.288   5.905  1.00  0.00    -0.294 N 
HETATM    5  C   UNL     1      42.745 -14.298   5.318  1.00  0.00     0.114 A 
HETATM    6  C   UNL     1      43.163 -13.156   4.767  1.00  0.00     0.123 A 
HETATM    7  C   UNL     1      42.324 -11.942   4.779  1.00  0.00     0.259 A 
HETATM    8  O   UNL     1      42.852 -10.921   4.340  1.00  0.00    -0.267 OA
HETATM    9  H   UNL     1      41.158 -15.139   6.312  1.00  0.00     0.172 HD
ENDROOT
BRANCH   5  10
HETATM   10  N   UNL     1      43.504 -15.447   5.378  1.00  0.00    -0.342 N 
HETATM   11  H   UNL     1      43.788 -15.705   6.319  1.00  0.00     0.167 HD
BRANCH  10  12
HETATM   12  C   UNL     1      43.479 -16.565   4.513  1.00  0.00     0.036 A 
HETATM   13  C   UNL     1      43.822 -17.819   5.049  1.00  0.00     0.069 A 
HETATM   14  C   UNL     1      43.826 -18.919   4.216  1.00  0.00     0.107 A 
HETATM   15  C   UNL     1      43.519 -18.817   2.883  1.00  0.00     0.105 A 
HETATM   16  O   UNL     1      44.119 -20.195   4.586  1.00  0.00    -0.323 OA
HETATM   17  O   UNL     1      43.575 -20.015   2.243  1.00  0.00    -0.323 OA
HETATM   18  C   UNL     1      43.197 -17.610   2.309  1.00  0.00     0.042 A 
HETATM   19  C   UNL     1      43.949 -20.886   3.331  1.00  0.00     0.352 A 
HETATM   20  C   UNL     1      43.184 -16.477   3.134  1.00  0.00     0.032 A 
ENDBRANCH  10  12
ENDBRANCH   5  10
BRANCH   1  21
HETATM   21  C   UNL     1      40.154 -10.914   5.301  1.00  0.00     0.047 A 
HETATM   22  C   UNL     1      39.290 -10.671   4.217  1.00  0.00     0.031 A 
HETATM   23  C   UNL     1      38.433  -9.562   4.192  1.00  0.00     0.021 A 
HETATM   24  C   UNL     1      38.422  -8.671   5.259  1.00  0.00     0.011 A 
HETATM   25  C   UNL     1      39.260  -8.881   6.345  1.00  0.00     0.021 A 
HETATM   26 BR   UNL     1      37.267  -7.177   5.229  1.00  0.00    -0.051 Br
HETATM   27  C   UNL     1      40.116  -9.991   6.363  1.00  0.00     0.031 A 
ENDBRANCH   1  21
TORSDOF 3
ENDMDL
MODEL 9
REMARK VINA RESULT:      -7.7      2.702      3.548
REMARK  3 active torsions:
REMARK  status: ('A' for Active; 'I' for Inactive)
REMARK    1  A    between atoms: C_2  and  N_3 
REMARK    2  A    between atoms: C_7  and  N_8 
REMARK    3  A    between atoms: N_8  and  C_9 
ROOT
HETATM    1  N   UNL     1      42.542 -15.045   4.744  1.00  0.00    -0.230 N 
HETATM    2  C   UNL     1      41.918 -15.035   5.991  1.00  0.00     0.335 A 
HETATM    3  O   UNL     1      41.601 -16.012   6.670  1.00  0.00    -0.246 OA
HETATM    4  N   UNL     1      41.668 -13.809   6.547  1.00  0.00    -0.294 N 
HETATM    5  C   UNL     1      42.035 -12.602   6.043  1.00  0.00     0.114 A 
HETATM    6  C   UNL     1      42.619 -12.598   4.843  1.00  0.00     0.123 A 
HETATM    7  C   UNL     1      42.872 -13.851   4.104  1.00  0.00     0.259 A 
HETATM    8  O   UNL     1      43.316 -13.721   2.963  1.00  0.00    -0.267 OA
HETATM    9  H   UNL     1      41.245 -13.857   7.463  1.00  0.00     0.172 HD
ENDROOT
BRANCH   5  10
HETATM   10  N   UNL     1      41.732 -11.462   6.755  1.00  0.00    -0.342 N 
HETATM   11  H   UNL     1      42.394 -11.250   7.495  1.00  0.00     0.167 HD
BRANCH  10  12
HETATM   12  C   UNL     1      41.050 -10.304   6.314  1.00  0.00     0.036 A 
HETATM   13  C   UNL     1      39.653 -10.379   6.172  1.00  0.00     0.069 A 
HETATM   14  C   UNL     1      38.970  -9.267   5.721  1.00  0.00     0.107 A 
HETATM   15  C   UNL     1      39.620  -8.102   5.397  1.00  0.00     0.105 A 
HETATM   16  O   UNL     1      37.624  -9.177   5.547  1.00  0.00    -0.323 OA
HETATM   17  O   UNL     1      38.767  -7.130   4.982  1.00  0.00    -0.323 OA
HETATM   18  C   UNL     1      40.986  -7.988   5.501  1.00  0.00     0.042 A 
HETATM   19  C   UNL     1      37.502  -7.815   5.085  1.00  0.00     0.352 A 
HETATM   20  C   UNL     1      41.702  -9.103   5.958  1.00  0.00     0.032 A 
ENDBRANCH  10  12
ENDBRANCH   5  10
BRANCH   1  21
HETATM   21  C   UNL     1      42.831 -16.308   4.093  1.00  0.00     0.047 A 
HETATM   22  C   UNL     1      43.846 -17.165   4.557  1.00  0.00     0.031 A 
HETATM   23  C   UNL     1      44.130 -18.383   3.923  1.00  0.00     0.021 A 
HETATM   24  C   UNL     1      43.398 -18.769   2.808  1.00  0.00     0.011 A 
HETATM   25  C   UNL     1      42.388 -17.949   2.324  1.00  0.00     0.021 A 
HETATM   26 BR   UNL     1      43.775 -20.410   1.952  1.00  0.00    -0.051 Br
HETATM   27  C   UNL     1      42.111 -16.732   2.961  1.00  0.00     0.031 A 
ENDBRANCH   1  21
TORSDOF 3
ENDMDL
MODEL 10
REMARK VINA RESULT:      -7.6      2.175      2.977
REMARK  3 active torsions:
REMARK  status: ('A' for Active; 'I' for Inactive)
REMARK    1  A    between atoms: C_2  and  N_3 
REMARK    2  A    between atoms: C_7  and  N_8 
REMARK    3  A    between atoms: N_8  and  C_9 
ROOT
HETATM    1  N   UNL     1      42.194 -14.590   3.991  1.00  0.00    -0.230 N 
HETATM    2  C   UNL     1      41.165 -14.413   4.915  1.00  0.00     0.335 A 
HETATM    3  O   UNL     1      40.551 -15.294   5.519  1.00  0.00    -0.246 OA
HETATM    4  N   UNL     1      40.825 -13.124   5.223  1.00  0.00    -0.294 N 
HETATM    5  C   UNL     1      41.440 -11.997   4.778  1.00  0.00     0.114 A 
HETATM    6  C   UNL     1      42.416 -12.152   3.882  1.00  0.00     0.123 A 
HETATM    7  C   UNL     1      42.823 -13.489   3.408  1.00  0.00     0.259 A 
HETATM    8  O   UNL     1      43.657 -13.507   2.503  1.00  0.00    -0.267 OA
HETATM    9  H   UNL     1      40.098 -13.050   5.921  1.00  0.00     0.172 HD
ENDROOT
BRANCH   5  10
HETATM   10  N   UNL     1      40.988 -10.772   5.220  1.00  0.00    -0.342 N 
HETATM   11  H   UNL     1      40.214 -10.399   4.679  1.00  0.00     0.167 HD
BRANCH  10  12
HETATM   12  C   UNL     1      41.012 -10.246   6.532  1.00  0.00     0.036 A 
HETATM   13  C   UNL     1      39.782 -10.051   7.185  1.00  0.00     0.069 A 
HETATM   14  C   UNL     1      39.782  -9.517   8.457  1.00  0.00     0.107 A 
HETATM   15  C   UNL     1      40.946  -9.160   9.091  1.00  0.00     0.105 A 
HETATM   16  O   UNL     1      38.681  -9.283   9.221  1.00  0.00    -0.323 OA
HETATM   17  O   UNL     1      40.727  -8.661  10.336  1.00  0.00    -0.323 OA
HETATM   18  C   UNL     1      42.170  -9.313   8.486  1.00  0.00     0.042 A 
HETATM   19  C   UNL     1      39.290  -8.748  10.416  1.00  0.00     0.352 A 
HETATM   20  C   UNL     1      42.198  -9.855   7.194  1.00  0.00     0.032 A 
ENDBRANCH  10  12
ENDBRANCH   5  10
BRANCH   1  21
HETATM   21  C   UNL     1      42.602 -15.929   3.613  1.00  0.00     0.047 A 
HETATM   22  C   UNL     1      42.039 -16.590   2.505  1.00  0.00     0.031 A 
HETATM   23  C   UNL     1      42.430 -17.888   2.145  1.00  0.00     0.021 A 
HETATM   24  C   UNL     1      43.397 -18.551   2.890  1.00  0.00     0.011 A 
HETATM   25  C   UNL     1      43.974 -17.928   3.987  1.00  0.00     0.021 A 
HETATM   26 BR   UNL     1      43.927 -20.298   2.406  1.00  0.00    -0.051 Br
HETATM   27  C   UNL     1      43.579 -16.631   4.343  1.00  0.00     0.031 A 
ENDBRANCH   1  21
TORSDOF 3
ENDMDL
