MODEL 1
REMARK VINA RESULT:      -7.8      0.000      0.000
REMARK  6 active torsions:
REMARK  status: ('A' for Active; 'I' for Inactive)
REMARK    1  A    between atoms: C_9  and  C_10 
REMARK       I    between atoms: C_10  and  N_11 
REMARK    2  A    between atoms: N_11  and  C_12 
REMARK    3  A    between atoms: C_12  and  C_13 
REMARK    4  A    between atoms: C_13  and  O_14 
REMARK    5  A    between atoms: C_13  and  C_15 
REMARK    6  A    between atoms: C_18  and  O_19 
ROOT
HETATM    1  C   UNL     1      40.943 -13.914   3.876  1.00  0.00     0.258 C 
HETATM    2  N   UNL     1      41.481 -12.832   3.218  1.00  0.00    -0.350 N 
HETATM    3  O   UNL     1      40.086 -13.801   4.747  1.00  0.00    -0.267 OA
HETATM    4  H   UNL     1      42.119 -13.036   2.450  1.00  0.00     0.163 HD
ENDROOT
BRANCH   2   5
HETATM    5  C   UNL     1      41.043 -11.452   3.405  1.00  0.00     0.114 C 
HETATM    6  C   UNL     1      40.139 -11.007   2.250  1.00  0.00     0.035 C 
BRANCH   5   7
HETATM    7  C   UNL     1      42.213 -10.452   3.653  1.00  0.00     0.173 C 
BRANCH   7   8
HETATM    8  O   UNL     1      41.729  -9.102   3.662  1.00  0.00    -0.389 OA
HETATM    9  H   UNL     1      41.506  -8.885   2.741  1.00  0.00     0.210 HD
ENDBRANCH   7   8
BRANCH   7  10
HETATM   10  C   UNL     1      42.917 -10.714   4.974  1.00  0.00    -0.028 A 
HETATM   11  C   UNL     1      42.397 -10.190   6.165  1.00  0.00     0.012 A 
HETATM   12  C   UNL     1      43.045 -10.415   7.383  1.00  0.00     0.037 A 
HETATM   13  C   UNL     1      44.211 -11.178   7.439  1.00  0.00     0.068 A 
HETATM   14  C   UNL     1      44.747 -11.690   6.258  1.00  0.00     0.037 A 
HETATM   15  C   UNL     1      44.105 -11.457   5.035  1.00  0.00     0.012 A 
BRANCH  13  16
HETATM   16  O   UNL     1      44.736 -11.338   8.692  1.00  0.00    -0.356 OA
HETATM   17  C   UNL     1      44.852 -10.161   9.482  1.00  0.00     0.210 C 
ENDBRANCH  13  16
ENDBRANCH   7  10
ENDBRANCH   5   7
ENDBRANCH   2   5
BRANCH   1  18
HETATM   18  C   UNL     1      41.440 -15.208   3.441  1.00  0.00     0.105 A 
HETATM   19  C   UNL     1      42.437 -15.972   4.026  1.00  0.00     0.169 A 
HETATM   20  N   UNL     1      43.210 -15.754   5.138  1.00  0.00    -0.233 NA
HETATM   21  N   UNL     1      42.573 -17.119   3.238  1.00  0.00    -0.219 N 
HETATM   22  C   UNL     1      44.081 -16.678   5.429  1.00  0.00     0.035 A 
HETATM   23  C   UNL     1      44.960 -16.481   6.638  1.00  0.00     0.070 C 
HETATM   24  C   UNL     1      44.300 -17.931   4.640  1.00  0.00     0.053 A 
HETATM   25  C   UNL     1      43.521 -18.102   3.559  1.00  0.00     0.036 A 
HETATM   26  C   UNL     1      43.623 -19.300   2.667  1.00  0.00     0.070 C 
HETATM   27  N   UNL     1      41.704 -17.114   2.198  1.00  0.00    -0.170 NA
HETATM   28  C   UNL     1      41.026 -15.969   2.317  1.00  0.00     0.071 A 
HETATM   29  C   UNL     1      39.976 -15.624   1.323  1.00  0.00     0.073 C 
ENDBRANCH   1  18
TORSDOF 6
ENDMDL
MODEL 2
REMARK VINA RESULT:      -7.7      3.060      7.781
REMARK  6 active torsions:
REMARK  status: ('A' for Active; 'I' for Inactive)
REMARK    1  A    between atoms: C_9  and  C_10 
REMARK       I    between atoms: C_10  and  N_11 
REMARK    2  A    between atoms: N_11  and  C_12 
REMARK    3  A    between atoms: C_12  and  C_13 
REMARK    4  A    between atoms: C_13  and  O_14 
REMARK    5  A    between atoms: C_13  and  C_15 
REMARK    6  A    between atoms: C_18  and  O_19 
ROOT
HETATM    1  C   UNL     1      41.548 -12.249   5.719  1.00  0.00     0.258 C 
HETATM    2  N   UNL     1      41.804 -13.343   6.513  1.00  0.00    -0.350 N 
HETATM    3  O   UNL     1      41.242 -12.346   4.534  1.00  0.00    -0.267 OA
HETATM    4  H   UNL     1      41.961 -13.161   7.503  1.00  0.00     0.163 HD
ENDROOT
BRANCH   2   5
HETATM    5  C   UNL     1      41.658 -14.730   6.078  1.00  0.00     0.114 C 
HETATM    6  C   UNL     1      40.319 -15.308   6.549  1.00  0.00     0.035 C 
BRANCH   5   7
HETATM    7  C   UNL     1      42.861 -15.639   6.472  1.00  0.00     0.173 C 
BRANCH   7   8
HETATM    8  O   UNL     1      42.568 -16.372   7.669  1.00  0.00    -0.389 OA
HETATM    9  H   UNL     1      43.020 -15.905   8.392  1.00  0.00     0.210 HD
ENDBRANCH   7   8
BRANCH   7  10
HETATM   10  C   UNL     1      43.206 -16.635   5.377  1.00  0.00    -0.028 A 
HETATM   11  C   UNL     1      43.928 -17.796   5.683  1.00  0.00     0.012 A 
HETATM   12  C   UNL     1      44.262 -18.711   4.680  1.00  0.00     0.037 A 
HETATM   13  C   UNL     1      43.868 -18.495   3.360  1.00  0.00     0.068 A 
HETATM   14  C   UNL     1      43.163 -17.335   3.040  1.00  0.00     0.037 A 
HETATM   15  C   UNL     1      42.838 -16.411   4.042  1.00  0.00     0.012 A 
BRANCH  13  16
HETATM   16  O   UNL     1      44.241 -19.473   2.479  1.00  0.00    -0.356 OA
HETATM   17  C   UNL     1      43.194 -20.283   1.958  1.00  0.00     0.210 C 
ENDBRANCH  13  16
ENDBRANCH   7  10
ENDBRANCH   5   7
ENDBRANCH   2   5
BRANCH   1  18
HETATM   18  C   UNL     1      41.633 -10.965   6.394  1.00  0.00     0.105 A 
HETATM   19  C   UNL     1      42.747 -10.391   6.984  1.00  0.00     0.169 A 
HETATM   20  N   UNL     1      44.041 -10.834   7.098  1.00  0.00    -0.233 NA
HETATM   21  N   UNL     1      42.329  -9.168   7.519  1.00  0.00    -0.219 N 
HETATM   22  C   UNL     1      44.869 -10.050   7.728  1.00  0.00     0.035 A 
HETATM   23  C   UNL     1      46.300 -10.495   7.885  1.00  0.00     0.070 C 
HETATM   24  C   UNL     1      44.508  -8.732   8.337  1.00  0.00     0.053 A 
HETATM   25  C   UNL     1      43.229  -8.339   8.202  1.00  0.00     0.036 A 
HETATM   26  C   UNL     1      42.715  -7.048   8.759  1.00  0.00     0.070 C 
HETATM   27  N   UNL     1      41.013  -8.946   7.281  1.00  0.00    -0.170 NA
HETATM   28  C   UNL     1      40.594 -10.023   6.609  1.00  0.00     0.071 A 
HETATM   29  C   UNL     1      39.173 -10.123   6.185  1.00  0.00     0.073 C 
ENDBRANCH   1  18
TORSDOF 6
ENDMDL
MODEL 3
REMARK VINA RESULT:      -7.6      3.044      6.941
REMARK  6 active torsions:
REMARK  status: ('A' for Active; 'I' for Inactive)
REMARK    1  A    between atoms: C_9  and  C_10 
REMARK       I    between atoms: C_10  and  N_11 
REMARK    2  A    between atoms: N_11  and  C_12 
REMARK    3  A    between atoms: C_12  and  C_13 
REMARK    4  A    between atoms: C_13  and  O_14 
REMARK    5  A    between atoms: C_13  and  C_15 
REMARK    6  A    between atoms: C_18  and  O_19 
ROOT
HETATM    1  C   UNL     1      39.771 -12.757   5.306  1.00  0.00     0.258 C 
HETATM    2  N   UNL     1      40.987 -13.398   5.239  1.00  0.00    -0.350 N 
HETATM    3  O   UNL     1      39.064 -12.779   6.309  1.00  0.00    -0.267 OA
HETATM    4  H   UNL     1      41.537 -13.245   4.396  1.00  0.00     0.163 HD
ENDROOT
BRANCH   2   5
HETATM    5  C   UNL     1      41.615 -14.093   6.360  1.00  0.00     0.114 C 
HETATM    6  C   UNL     1      43.131 -13.865   6.359  1.00  0.00     0.035 C 
BRANCH   5   7
HETATM    7  C   UNL     1      41.249 -15.606   6.443  1.00  0.00     0.173 C 
BRANCH   7   8
HETATM    8  O   UNL     1      39.848 -15.800   6.210  1.00  0.00    -0.389 OA
HETATM    9  H   UNL     1      39.729 -15.794   5.245  1.00  0.00     0.210 HD
ENDBRANCH   7   8
BRANCH   7  10
HETATM   10  C   UNL     1      42.019 -16.435   5.429  1.00  0.00    -0.028 A 
HETATM   11  C   UNL     1      41.695 -16.361   4.067  1.00  0.00     0.012 A 
HETATM   12  C   UNL     1      42.389 -17.130   3.128  1.00  0.00     0.037 A 
HETATM   13  C   UNL     1      43.427 -17.972   3.526  1.00  0.00     0.068 A 
HETATM   14  C   UNL     1      43.748 -18.067   4.879  1.00  0.00     0.037 A 
HETATM   15  C   UNL     1      43.047 -17.306   5.823  1.00  0.00     0.012 A 
BRANCH  13  16
HETATM   16  O   UNL     1      44.037 -18.655   2.509  1.00  0.00    -0.356 OA
HETATM   17  C   UNL     1      43.547 -19.966   2.248  1.00  0.00     0.210 C 
ENDBRANCH  13  16
ENDBRANCH   7  10
ENDBRANCH   5   7
ENDBRANCH   2   5
BRANCH   1  18
HETATM   18  C   UNL     1      39.397 -12.021   4.110  1.00  0.00     0.105 A 
HETATM   19  C   UNL     1      39.467 -12.450   2.796  1.00  0.00     0.169 A 
HETATM   20  N   UNL     1      39.882 -13.641   2.252  1.00  0.00    -0.233 NA
HETATM   21  N   UNL     1      39.019 -11.387   2.005  1.00  0.00    -0.219 N 
HETATM   22  C   UNL     1      39.832 -13.734   0.954  1.00  0.00     0.035 A 
HETATM   23  C   UNL     1      40.283 -15.019   0.309  1.00  0.00     0.070 C 
HETATM   24  C   UNL     1      39.375 -12.647   0.032  1.00  0.00     0.053 A 
HETATM   25  C   UNL     1      38.979 -11.499   0.608  1.00  0.00     0.036 A 
HETATM   26  C   UNL     1      38.499 -10.320  -0.180  1.00  0.00     0.070 C 
HETATM   27  N   UNL     1      38.662 -10.321   2.762  1.00  0.00    -0.170 NA
HETATM   28  C   UNL     1      38.890 -10.698   4.024  1.00  0.00     0.071 A 
HETATM   29  C   UNL     1      38.613  -9.756   5.139  1.00  0.00     0.073 C 
ENDBRANCH   1  18
TORSDOF 6
ENDMDL
MODEL 4
REMARK VINA RESULT:      -7.5      3.794      7.499
REMARK  6 active torsions:
REMARK  status: ('A' for Active; 'I' for Inactive)
REMARK    1  A    between atoms: C_9  and  C_10 
REMARK       I    between atoms: C_10  and  N_11 
REMARK    2  A    between atoms: N_11  and  C_12 
REMARK    3  A    between atoms: C_12  and  C_13 
REMARK    4  A    between atoms: C_13  and  O_14 
REMARK    5  A    between atoms: C_13  and  C_15 
REMARK    6  A    between atoms: C_18  and  O_19 
ROOT
HETATM    1  C   UNL     1      40.062 -14.525   0.261  1.00  0.00     0.258 C 
HETATM    2  N   UNL     1      40.837 -14.001   1.269  1.00  0.00    -0.350 N 
HETATM    3  O   UNL     1      39.665 -15.686   0.264  1.00  0.00    -0.267 OA
HETATM    4  H   UNL     1      41.040 -13.004   1.218  1.00  0.00     0.163 HD
ENDROOT
BRANCH   2   5
HETATM    5  C   UNL     1      41.200 -14.719   2.488  1.00  0.00     0.114 C 
HETATM    6  C   UNL     1      40.442 -14.157   3.696  1.00  0.00     0.035 C 
BRANCH   5   7
HETATM    7  C   UNL     1      42.737 -14.788   2.740  1.00  0.00     0.173 C 
BRANCH   7   8
HETATM    8  O   UNL     1      43.130 -13.827   3.729  1.00  0.00    -0.389 OA
HETATM    9  H   UNL     1      43.346 -14.333   4.530  1.00  0.00     0.210 HD
ENDBRANCH   7   8
BRANCH   7  10
HETATM   10  C   UNL     1      43.176 -16.164   3.213  1.00  0.00    -0.028 A 
HETATM   11  C   UNL     1      43.567 -16.359   4.545  1.00  0.00     0.012 A 
HETATM   12  C   UNL     1      43.985 -17.618   4.987  1.00  0.00     0.037 A 
HETATM   13  C   UNL     1      44.005 -18.707   4.115  1.00  0.00     0.068 A 
HETATM   14  C   UNL     1      43.634 -18.522   2.785  1.00  0.00     0.037 A 
HETATM   15  C   UNL     1      43.225 -17.259   2.337  1.00  0.00     0.012 A 
BRANCH  13  16
HETATM   16  O   UNL     1      44.416 -19.886   4.675  1.00  0.00    -0.356 OA
HETATM   17  C   UNL     1      43.960 -21.076   4.042  1.00  0.00     0.210 C 
ENDBRANCH  13  16
ENDBRANCH   7  10
ENDBRANCH   5   7
ENDBRANCH   2   5
BRANCH   1  18
HETATM   18  C   UNL     1      39.718 -13.592  -0.799  1.00  0.00     0.105 A 
HETATM   19  C   UNL     1      39.839 -12.213  -0.785  1.00  0.00     0.169 A 
HETATM   20  N   UNL     1      40.305 -11.354   0.180  1.00  0.00    -0.233 NA
HETATM   21  N   UNL     1      39.361 -11.758  -2.018  1.00  0.00    -0.219 N 
HETATM   22  C   UNL     1      40.285 -10.086  -0.114  1.00  0.00     0.035 A 
HETATM   23  C   UNL     1      40.780  -9.102   0.915  1.00  0.00     0.070 C 
HETATM   24  C   UNL     1      39.785  -9.511  -1.403  1.00  0.00     0.053 A 
HETATM   25  C   UNL     1      39.337 -10.388  -2.317  1.00  0.00     0.036 A 
HETATM   26  C   UNL     1      38.803  -9.967  -3.651  1.00  0.00     0.070 C 
HETATM   27  N   UNL     1      38.958 -12.785  -2.804  1.00  0.00    -0.170 NA
HETATM   28  C   UNL     1      39.169 -13.885  -2.074  1.00  0.00     0.071 A 
HETATM   29  C   UNL     1      38.826 -15.220  -2.633  1.00  0.00     0.073 C 
ENDBRANCH   1  18
TORSDOF 6
ENDMDL
MODEL 5
REMARK VINA RESULT:      -7.5      2.383      4.140
REMARK  6 active torsions:
REMARK  status: ('A' for Active; 'I' for Inactive)
REMARK    1  A    between atoms: C_9  and  C_10 
REMARK       I    between atoms: C_10  and  N_11 
REMARK    2  A    between atoms: N_11  and  C_12 
REMARK    3  A    between atoms: C_12  and  C_13 
REMARK    4  A    between atoms: C_13  and  O_14 
REMARK    5  A    between atoms: C_13  and  C_15 
REMARK    6  A    between atoms: C_18  and  O_19 
ROOT
HETATM    1  C   UNL     1      42.955 -14.164   6.333  1.00  0.00     0.258 C 
HETATM    2  N   UNL     1      44.037 -13.334   6.510  1.00  0.00    -0.350 N 
HETATM    3  O   UNL     1      41.796 -13.763   6.378  1.00  0.00    -0.267 OA
HETATM    4  H   UNL     1      44.958 -13.745   6.365  1.00  0.00     0.163 HD
ENDROOT
BRANCH   2   5
HETATM    5  C   UNL     1      43.946 -11.886   6.680  1.00  0.00     0.114 C 
HETATM    6  C   UNL     1      43.830 -11.185   5.322  1.00  0.00     0.035 C 
BRANCH   5   7
HETATM    7  C   UNL     1      45.088 -11.285   7.555  1.00  0.00     0.173 C 
BRANCH   7   8
HETATM    8  O   UNL     1      46.035 -10.585   6.737  1.00  0.00    -0.389 OA
HETATM    9  H   UNL     1      45.651  -9.708   6.566  1.00  0.00     0.210 HD
ENDBRANCH   7   8
BRANCH   7  10
HETATM   10  C   UNL     1      44.557 -10.319   8.601  1.00  0.00    -0.028 A 
HETATM   11  C   UNL     1      44.455  -8.952   8.310  1.00  0.00     0.012 A 
HETATM   12  C   UNL     1      43.980  -8.054   9.270  1.00  0.00     0.037 A 
HETATM   13  C   UNL     1      43.584  -8.502  10.530  1.00  0.00     0.068 A 
HETATM   14  C   UNL     1      43.697  -9.857  10.837  1.00  0.00     0.037 A 
HETATM   15  C   UNL     1      44.183 -10.757   9.880  1.00  0.00     0.012 A 
BRANCH  13  16
HETATM   16  O   UNL     1      43.122  -7.527  11.371  1.00  0.00    -0.356 OA
HETATM   17  C   UNL     1      42.920  -7.908  12.727  1.00  0.00     0.210 C 
ENDBRANCH  13  16
ENDBRANCH   7  10
ENDBRANCH   5   7
ENDBRANCH   2   5
BRANCH   1  18
HETATM   18  C   UNL     1      43.284 -15.552   6.053  1.00  0.00     0.105 A 
HETATM   19  C   UNL     1      43.349 -16.174   4.818  1.00  0.00     0.169 A 
HETATM   20  N   UNL     1      43.142 -15.693   3.550  1.00  0.00    -0.233 NA
HETATM   21  N   UNL     1      43.681 -17.511   5.063  1.00  0.00    -0.219 N 
HETATM   22  C   UNL     1      43.276 -16.548   2.576  1.00  0.00     0.035 A 
HETATM   23  C   UNL     1      43.052 -16.071   1.165  1.00  0.00     0.070 C 
HETATM   24  C   UNL     1      43.621 -17.995   2.746  1.00  0.00     0.053 A 
HETATM   25  C   UNL     1      43.814 -18.422   4.005  1.00  0.00     0.036 A 
HETATM   26  C   UNL     1      44.160 -19.840   4.337  1.00  0.00     0.070 C 
HETATM   27  N   UNL     1      43.837 -17.750   6.388  1.00  0.00    -0.170 NA
HETATM   28  C   UNL     1      43.597 -16.577   6.983  1.00  0.00     0.071 A 
HETATM   29  C   UNL     1      43.673 -16.471   8.464  1.00  0.00     0.073 C 
ENDBRANCH   1  18
TORSDOF 6
ENDMDL
MODEL 6
REMARK VINA RESULT:      -7.4      2.778      6.300
REMARK  6 active torsions:
REMARK  status: ('A' for Active; 'I' for Inactive)
REMARK    1  A    between atoms: C_9  and  C_10 
REMARK       I    between atoms: C_10  and  N_11 
REMARK    2  A    between atoms: N_11  and  C_12 
REMARK    3  A    between atoms: C_12  and  C_13 
REMARK    4  A    between atoms: C_13  and  O_14 
REMARK    5  A    between atoms: C_13  and  C_15 
REMARK    6  A    between atoms: C_18  and  O_19 
ROOT
HETATM    1  C   UNL     1      40.607 -13.002   3.163  1.00  0.00     0.258 C 
HETATM    2  N   UNL     1      41.839 -13.139   3.758  1.00  0.00    -0.350 N 
HETATM    3  O   UNL     1      39.598 -12.694   3.790  1.00  0.00    -0.267 OA
HETATM    4  H   UNL     1      42.630 -13.309   3.138  1.00  0.00     0.163 HD
ENDROOT
BRANCH   2   5
HETATM    5  C   UNL     1      42.113 -12.852   5.164  1.00  0.00     0.114 C 
HETATM    6  C   UNL     1      43.503 -12.230   5.331  1.00  0.00     0.035 C 
BRANCH   5   7
HETATM    7  C   UNL     1      41.900 -14.076   6.106  1.00  0.00     0.173 C 
BRANCH   7   8
HETATM    8  O   UNL     1      40.505 -14.381   6.230  1.00  0.00    -0.389 OA
HETATM    9  H   UNL     1      40.026 -13.573   5.977  1.00  0.00     0.210 HD
ENDBRANCH   7   8
BRANCH   7  10
HETATM   10  C   UNL     1      42.615 -15.317   5.598  1.00  0.00    -0.028 A 
HETATM   11  C   UNL     1      43.828 -15.717   6.175  1.00  0.00     0.012 A 
HETATM   12  C   UNL     1      44.500 -16.849   5.706  1.00  0.00     0.037 A 
HETATM   13  C   UNL     1      43.968 -17.612   4.666  1.00  0.00     0.068 A 
HETATM   14  C   UNL     1      42.771 -17.215   4.073  1.00  0.00     0.037 A 
HETATM   15  C   UNL     1      42.102 -16.074   4.535  1.00  0.00     0.012 A 
BRANCH  13  16
HETATM   16  O   UNL     1      44.712 -18.704   4.313  1.00  0.00    -0.356 OA
HETATM   17  C   UNL     1      44.324 -19.945   4.893  1.00  0.00     0.210 C 
ENDBRANCH  13  16
ENDBRANCH   7  10
ENDBRANCH   5   7
ENDBRANCH   2   5
BRANCH   1  18
HETATM   18  C   UNL     1      40.590 -13.218   1.726  1.00  0.00     0.105 A 
HETATM   19  C   UNL     1      40.853 -12.294   0.729  1.00  0.00     0.169 A 
HETATM   20  N   UNL     1      41.198 -10.967   0.791  1.00  0.00    -0.233 NA
HETATM   21  N   UNL     1      40.691 -12.964  -0.488  1.00  0.00    -0.219 N 
HETATM   22  C   UNL     1      41.375 -10.359  -0.347  1.00  0.00     0.035 A 
HETATM   23  C   UNL     1      41.749  -8.899  -0.331  1.00  0.00     0.070 C 
HETATM   24  C   UNL     1      41.217 -10.995  -1.693  1.00  0.00     0.053 A 
HETATM   25  C   UNL     1      40.876 -12.295  -1.706  1.00  0.00     0.036 A 
HETATM   26  C   UNL     1      40.677 -13.068  -2.973  1.00  0.00     0.070 C 
HETATM   27  N   UNL     1      40.352 -14.262  -0.299  1.00  0.00    -0.170 NA
HETATM   28  C   UNL     1      40.289 -14.416   1.027  1.00  0.00     0.071 A 
HETATM   29  C   UNL     1      39.928 -15.738   1.603  1.00  0.00     0.073 C 
ENDBRANCH   1  18
TORSDOF 6
ENDMDL
MODEL 7
REMARK VINA RESULT:      -7.4      3.308      7.253
REMARK  6 active torsions:
REMARK  status: ('A' for Active; 'I' for Inactive)
REMARK    1  A    between atoms: C_9  and  C_10 
REMARK       I    between atoms: C_10  and  N_11 
REMARK    2  A    between atoms: N_11  and  C_12 
REMARK    3  A    between atoms: C_12  and  C_13 
REMARK    4  A    between atoms: C_13  and  O_14 
REMARK    5  A    between atoms: C_13  and  C_15 
REMARK    6  A    between atoms: C_18  and  O_19 
ROOT
HETATM    1  C   UNL     1      40.126 -14.292   2.787  1.00  0.00     0.258 C 
HETATM    2  N   UNL     1      40.872 -13.828   3.845  1.00  0.00    -0.350 N 
HETATM    3  O   UNL     1      39.868 -15.481   2.628  1.00  0.00    -0.267 OA
HETATM    4  H   UNL     1      40.954 -12.816   3.938  1.00  0.00     0.163 HD
ENDROOT
BRANCH   2   5
HETATM    5  C   UNL     1      41.363 -14.664   4.937  1.00  0.00     0.114 C 
HETATM    6  C   UNL     1      40.875 -14.134   6.290  1.00  0.00     0.035 C 
BRANCH   5   7
HETATM    7  C   UNL     1      42.907 -14.881   4.915  1.00  0.00     0.173 C 
BRANCH   7   8
HETATM    8  O   UNL     1      43.458 -14.721   6.228  1.00  0.00    -0.389 OA
HETATM    9  H   UNL     1      44.247 -15.288   6.264  1.00  0.00     0.210 HD
ENDBRANCH   7   8
BRANCH   7  10
HETATM   10  C   UNL     1      43.281 -16.264   4.407  1.00  0.00    -0.028 A 
HETATM   11  C   UNL     1      43.068 -16.603   3.064  1.00  0.00     0.012 A 
HETATM   12  C   UNL     1      43.397 -17.876   2.591  1.00  0.00     0.037 A 
HETATM   13  C   UNL     1      43.958 -18.829   3.443  1.00  0.00     0.068 A 
HETATM   14  C   UNL     1      44.158 -18.509   4.784  1.00  0.00     0.037 A 
HETATM   15  C   UNL     1      43.819 -17.237   5.263  1.00  0.00     0.012 A 
BRANCH  13  16
HETATM   16  O   UNL     1      44.250 -20.028   2.853  1.00  0.00    -0.356 OA
HETATM   17  C   UNL     1      43.411 -20.420   1.773  1.00  0.00     0.210 C 
ENDBRANCH  13  16
ENDBRANCH   7  10
ENDBRANCH   5   7
ENDBRANCH   2   5
BRANCH   1  18
HETATM   18  C   UNL     1      39.634 -13.264   1.884  1.00  0.00     0.105 A 
HETATM   19  C   UNL     1      39.154 -12.008   2.213  1.00  0.00     0.169 A 
HETATM   20  N   UNL     1      39.013 -11.381   3.425  1.00  0.00    -0.233 NA
HETATM   21  N   UNL     1      38.781 -11.397   1.011  1.00  0.00    -0.219 N 
HETATM   22  C   UNL     1      38.515 -10.177   3.402  1.00  0.00     0.035 A 
HETATM   23  C   UNL     1      38.334  -9.449   4.708  1.00  0.00     0.070 C 
HETATM   24  C   UNL     1      38.082  -9.452   2.166  1.00  0.00     0.053 A 
HETATM   25  C   UNL     1      38.238 -10.104   1.002  1.00  0.00     0.036 A 
HETATM   26  C   UNL     1      37.849  -9.513  -0.318  1.00  0.00     0.070 C 
HETATM   27  N   UNL     1      39.014 -12.206  -0.051  1.00  0.00    -0.170 NA
HETATM   28  C   UNL     1      39.523 -13.327   0.471  1.00  0.00     0.071 A 
HETATM   29  C   UNL     1      39.895 -14.455  -0.422  1.00  0.00     0.073 C 
ENDBRANCH   1  18
TORSDOF 6
ENDMDL
MODEL 8
REMARK VINA RESULT:      -7.4      2.698      7.187
REMARK  6 active torsions:
REMARK  status: ('A' for Active; 'I' for Inactive)
REMARK    1  A    between atoms: C_9  and  C_10 
REMARK       I    between atoms: C_10  and  N_11 
REMARK    2  A    between atoms: N_11  and  C_12 
REMARK    3  A    between atoms: C_12  and  C_13 
REMARK    4  A    between atoms: C_13  and  O_14 
REMARK    5  A    between atoms: C_13  and  C_15 
REMARK    6  A    between atoms: C_18  and  O_19 
ROOT
HETATM    1  C   UNL     1      42.366 -11.236   5.144  1.00  0.00     0.258 C 
HETATM    2  N   UNL     1      41.228 -12.008   5.184  1.00  0.00    -0.350 N 
HETATM    3  O   UNL     1      42.762 -10.692   4.118  1.00  0.00    -0.267 OA
HETATM    4  H   UNL     1      40.934 -12.341   6.101  1.00  0.00     0.163 HD
ENDROOT
BRANCH   2   5
HETATM    5  C   UNL     1      40.319 -12.197   4.056  1.00  0.00     0.114 C 
HETATM    6  C   UNL     1      39.170 -11.184   4.109  1.00  0.00     0.035 C 
BRANCH   5   7
HETATM    7  C   UNL     1      39.805 -13.661   3.905  1.00  0.00     0.173 C 
BRANCH   7   8
HETATM    8  O   UNL     1      39.099 -13.822   2.667  1.00  0.00    -0.389 OA
HETATM    9  H   UNL     1      39.769 -13.791   1.964  1.00  0.00     0.210 HD
ENDBRANCH   7   8
BRANCH   7  10
HETATM   10  C   UNL     1      40.940 -14.670   3.939  1.00  0.00    -0.028 A 
HETATM   11  C   UNL     1      40.998 -15.631   4.957  1.00  0.00     0.012 A 
HETATM   12  C   UNL     1      42.045 -16.555   5.005  1.00  0.00     0.037 A 
HETATM   13  C   UNL     1      43.044 -16.550   4.031  1.00  0.00     0.068 A 
HETATM   14  C   UNL     1      43.007 -15.588   3.023  1.00  0.00     0.037 A 
HETATM   15  C   UNL     1      41.964 -14.654   2.980  1.00  0.00     0.012 A 
BRANCH  13  16
HETATM   16  O   UNL     1      44.001 -17.516   4.181  1.00  0.00    -0.356 OA
HETATM   17  C   UNL     1      43.947 -18.603   3.263  1.00  0.00     0.210 C 
ENDBRANCH  13  16
ENDBRANCH   7  10
ENDBRANCH   5   7
ENDBRANCH   2   5
BRANCH   1  18
HETATM   18  C   UNL     1      43.051 -11.084   6.417  1.00  0.00     0.105 A 
HETATM   19  C   UNL     1      43.098  -9.959   7.223  1.00  0.00     0.169 A 
HETATM   20  N   UNL     1      42.536  -8.716   7.077  1.00  0.00    -0.233 NA
HETATM   21  N   UNL     1      43.893 -10.292   8.324  1.00  0.00    -0.219 N 
HETATM   22  C   UNL     1      42.776  -7.855   8.025  1.00  0.00     0.035 A 
HETATM   23  C   UNL     1      42.187  -6.473   7.907  1.00  0.00     0.070 C 
HETATM   24  C   UNL     1      43.619  -8.122   9.232  1.00  0.00     0.053 A 
HETATM   25  C   UNL     1      44.150  -9.352   9.333  1.00  0.00     0.036 A 
HETATM   26  C   UNL     1      45.018  -9.769  10.480  1.00  0.00     0.070 C 
HETATM   27  N   UNL     1      44.334 -11.571   8.251  1.00  0.00    -0.170 NA
HETATM   28  C   UNL     1      43.832 -12.046   7.107  1.00  0.00     0.071 A 
HETATM   29  C   UNL     1      44.126 -13.444   6.695  1.00  0.00     0.073 C 
ENDBRANCH   1  18
TORSDOF 6
ENDMDL
MODEL 9
REMARK VINA RESULT:      -7.3      4.574      7.918
REMARK  6 active torsions:
REMARK  status: ('A' for Active; 'I' for Inactive)
REMARK    1  A    between atoms: C_9  and  C_10 
REMARK       I    between atoms: C_10  and  N_11 
REMARK    2  A    between atoms: N_11  and  C_12 
REMARK    3  A    between atoms: C_12  and  C_13 
REMARK    4  A    between atoms: C_13  and  O_14 
REMARK    5  A    between atoms: C_13  and  C_15 
REMARK    6  A    between atoms: C_18  and  O_19 
ROOT
HETATM    1  C   UNL     1      43.543  -9.728   8.631  1.00  0.00     0.258 C 
HETATM    2  N   UNL     1      43.228 -10.532   9.701  1.00  0.00    -0.350 N 
HETATM    3  O   UNL     1      43.796  -8.533   8.751  1.00  0.00    -0.267 OA
HETATM    4  H   UNL     1      43.123 -11.527   9.510  1.00  0.00     0.163 HD
ENDROOT
BRANCH   2   5
HETATM    5  C   UNL     1      43.245 -10.094  11.095  1.00  0.00     0.114 C 
HETATM    6  C   UNL     1      43.680 -11.237  12.018  1.00  0.00     0.035 C 
BRANCH   5   7
HETATM    7  C   UNL     1      41.910  -9.438  11.561  1.00  0.00     0.173 C 
BRANCH   7   8
HETATM    8  O   UNL     1      40.889 -10.432  11.722  1.00  0.00    -0.389 OA
HETATM    9  H   UNL     1      41.193 -11.217  11.234  1.00  0.00     0.210 HD
ENDBRANCH   7   8
BRANCH   7  10
HETATM   10  C   UNL     1      42.067  -8.700  12.880  1.00  0.00    -0.028 A 
HETATM   11  C   UNL     1      41.169  -8.936  13.931  1.00  0.00     0.012 A 
HETATM   12  C   UNL     1      41.297  -8.252  15.143  1.00  0.00     0.037 A 
HETATM   13  C   UNL     1      42.331  -7.335  15.336  1.00  0.00     0.068 A 
HETATM   14  C   UNL     1      43.220  -7.080  14.293  1.00  0.00     0.037 A 
HETATM   15  C   UNL     1      43.086  -7.756  13.074  1.00  0.00     0.012 A 
BRANCH  13  16
HETATM   16  O   UNL     1      42.357  -6.747  16.571  1.00  0.00    -0.356 OA
HETATM   17  C   UNL     1      41.528  -7.337  17.567  1.00  0.00     0.210 C 
ENDBRANCH  13  16
ENDBRANCH   7  10
ENDBRANCH   5   7
ENDBRANCH   2   5
BRANCH   1  18
HETATM   18  C   UNL     1      43.587 -10.404   7.345  1.00  0.00     0.105 A 
HETATM   19  C   UNL     1      42.528 -10.676   6.495  1.00  0.00     0.169 A 
HETATM   20  N   UNL     1      41.188 -10.398   6.600  1.00  0.00    -0.233 NA
HETATM   21  N   UNL     1      43.064 -11.358   5.398  1.00  0.00    -0.219 N 
HETATM   22  C   UNL     1      40.434 -10.798   5.616  1.00  0.00     0.035 A 
HETATM   23  C   UNL     1      38.955 -10.522   5.687  1.00  0.00     0.070 C 
HETATM   24  C   UNL     1      40.919 -11.540   4.409  1.00  0.00     0.053 A 
HETATM   25  C   UNL     1      42.238 -11.792   4.350  1.00  0.00     0.036 A 
HETATM   26  C   UNL     1      42.873 -12.526   3.211  1.00  0.00     0.070 C 
HETATM   27  N   UNL     1      44.404 -11.515   5.516  1.00  0.00    -0.170 NA
HETATM   28  C   UNL     1      44.719 -10.946   6.684  1.00  0.00     0.071 A 
HETATM   29  C   UNL     1      46.132 -10.940   7.146  1.00  0.00     0.073 C 
ENDBRANCH   1  18
TORSDOF 6
ENDMDL
MODEL 10
REMARK VINA RESULT:      -7.2      3.335      6.556
REMARK  6 active torsions:
REMARK  status: ('A' for Active; 'I' for Inactive)
REMARK    1  A    between atoms: C_9  and  C_10 
REMARK       I    between atoms: C_10  and  N_11 
REMARK    2  A    between atoms: N_11  and  C_12 
REMARK    3  A    between atoms: C_12  and  C_13 
REMARK    4  A    between atoms: C_13  and  O_14 
REMARK    5  A    between atoms: C_13  and  C_15 
REMARK    6  A    between atoms: C_18  and  O_19 
ROOT
HETATM    1  C   UNL     1      43.008 -15.091   2.379  1.00  0.00     0.258 C 
HETATM    2  N   UNL     1      41.749 -14.556   2.233  1.00  0.00    -0.350 N 
HETATM    3  O   UNL     1      43.934 -14.826   1.620  1.00  0.00    -0.267 OA
HETATM    4  H   UNL     1      41.075 -14.768   2.967  1.00  0.00     0.163 HD
ENDROOT
BRANCH   2   5
HETATM    5  C   UNL     1      41.390 -13.555   1.231  1.00  0.00     0.114 C 
HETATM    6  C   UNL     1      41.643 -12.140   1.762  1.00  0.00     0.035 C 
BRANCH   5   7
HETATM    7  C   UNL     1      39.946 -13.722   0.669  1.00  0.00     0.173 C 
BRANCH   7   8
HETATM    8  O   UNL     1      38.974 -13.401   1.673  1.00  0.00    -0.389 OA
HETATM    9  H   UNL     1      39.421 -13.508   2.530  1.00  0.00     0.210 HD
ENDBRANCH   7   8
BRANCH   7  10
HETATM   10  C   UNL     1      39.696 -12.832  -0.536  1.00  0.00    -0.028 A 
HETATM   11  C   UNL     1      38.766 -11.786  -0.459  1.00  0.00     0.012 A 
HETATM   12  C   UNL     1      38.520 -10.970  -1.567  1.00  0.00     0.037 A 
HETATM   13  C   UNL     1      39.207 -11.169  -2.764  1.00  0.00     0.068 A 
HETATM   14  C   UNL     1      40.122 -12.216  -2.858  1.00  0.00     0.037 A 
HETATM   15  C   UNL     1      40.362 -13.042  -1.753  1.00  0.00     0.012 A 
BRANCH  13  16
HETATM   16  O   UNL     1      38.889 -10.292  -3.765  1.00  0.00    -0.356 OA
HETATM   17  C   UNL     1      39.482  -9.001  -3.684  1.00  0.00     0.210 C 
ENDBRANCH  13  16
ENDBRANCH   7  10
ENDBRANCH   5   7
ENDBRANCH   2   5
BRANCH   1  18
HETATM   18  C   UNL     1      43.172 -15.973   3.523  1.00  0.00     0.105 A 
HETATM   19  C   UNL     1      43.381 -17.342   3.513  1.00  0.00     0.169 A 
HETATM   20  N   UNL     1      43.498 -18.233   2.476  1.00  0.00    -0.233 NA
HETATM   21  N   UNL     1      43.455 -17.743   4.852  1.00  0.00    -0.219 N 
HETATM   22  C   UNL     1      43.688 -19.480   2.802  1.00  0.00     0.035 A 
HETATM   23  C   UNL     1      43.816 -20.498   1.698  1.00  0.00     0.070 C 
HETATM   24  C   UNL     1      43.772 -19.998   4.203  1.00  0.00     0.053 A 
HETATM   25  C   UNL     1      43.651 -19.090   5.187  1.00  0.00     0.036 A 
HETATM   26  C   UNL     1      43.710 -19.454   6.638  1.00  0.00     0.070 C 
HETATM   27  N   UNL     1      43.314 -16.691   5.694  1.00  0.00    -0.170 NA
HETATM   28  C   UNL     1      43.142 -15.630   4.900  1.00  0.00     0.071 A 
HETATM   29  C   UNL     1      42.944 -14.283   5.497  1.00  0.00     0.073 C 
ENDBRANCH   1  18
TORSDOF 6
ENDMDL
