MODEL 1
REMARK VINA RESULT:      -8.0      0.000      0.000
REMARK  6 active torsions:
REMARK  status: ('A' for Active; 'I' for Inactive)
REMARK    1  A    between atoms: C_2  and  N_3 
REMARK    2  A    between atoms: C_2  and  C_21 
REMARK    3  A    between atoms: N_3  and  C_6 
REMARK    4  A    between atoms: C_6  and  C_7 
REMARK       I    between atoms: C_7  and  N_8 
REMARK    5  A    between atoms: N_8  and  C_9 
REMARK    6  A    between atoms: C_16  and  C_17 
REMARK       I    between atoms: C_17  and  N_18 
ROOT
HETATM    1  C   UNL     1      42.194 -14.554   5.809  1.00  0.00     0.248 C 
HETATM    2  N   UNL     1      43.140 -14.998   4.918  1.00  0.00    -0.319 N 
HETATM    3  O   UNL     1      41.385 -15.206   6.467  1.00  0.00    -0.271 OA
HETATM    4  H   UNL     1      43.830 -14.346   4.538  1.00  0.00     0.169 HD
ENDROOT
BRANCH   2   5
HETATM    5  C   UNL     1      43.384 -16.312   4.536  1.00  0.00     0.093 A 
HETATM    6  S   UNL     1      44.039 -17.452   5.627  1.00  0.00    -0.075 SA
HETATM    7  C   UNL     1      43.968 -18.641   4.463  1.00  0.00    -0.008 A 
HETATM    8  C   UNL     1      43.467 -18.224   3.259  1.00  0.00    -0.026 A 
HETATM    9  C   UNL     1      44.355 -20.071   4.510  1.00  0.00     0.047 C 
HETATM   10  C   UNL     1      43.448 -19.356   2.292  1.00  0.00     0.041 C 
HETATM   11  C   UNL     1      43.114 -16.843   3.269  1.00  0.00     0.072 A 
HETATM   12  C   UNL     1      43.695 -20.597   3.204  1.00  0.00     0.010 C 
BRANCH  11  13
HETATM   13  C   UNL     1      42.567 -16.003   2.202  1.00  0.00     0.252 C 
HETATM   14  N   UNL     1      43.381 -15.705   1.154  1.00  0.00    -0.366 N 
HETATM   15  H   UNL     1      44.353 -15.965   1.108  1.00  0.00     0.159 HD
HETATM   16  H   UNL     1      43.023 -15.090   0.435  1.00  0.00     0.159 HD
HETATM   17  O   UNL     1      41.422 -15.551   2.254  1.00  0.00    -0.268 OA
ENDBRANCH  11  13
ENDBRANCH   2   5
BRANCH   1  18
HETATM   18  C   UNL     1      42.239 -13.046   6.050  1.00  0.00     0.335 C 
BRANCH  18  19
HETATM   19  N   UNL     1      43.207 -12.759   7.159  1.00  0.00    -0.057 N 
HETATM   20  H   UNL     1      43.434 -13.641   7.648  1.00  0.00     0.278 HD
HETATM   21  H   UNL     1      42.704 -12.228   7.890  1.00  0.00     0.278 HD
BRANCH  19  22
HETATM   22  C   UNL     1      44.498 -12.108   6.790  1.00  0.00     0.239 C 
HETATM   23  C   UNL     1      44.349 -11.495   5.403  1.00  0.00     0.047 C 
BRANCH  22  24
HETATM   24  C   UNL     1      44.878 -11.089   7.810  1.00  0.00     0.082 A 
HETATM   25  O   UNL     1      44.267 -11.200   9.031  1.00  0.00    -0.325 OA
HETATM   26  C   UNL     1      44.755 -10.203   9.812  1.00  0.00     0.142 A 
HETATM   27  C   UNL     1      45.684  -9.463   9.120  1.00  0.00     0.027 A 
HETATM   28  C   UNL     1      45.768 -10.035   7.827  1.00  0.00     0.037 A 
ENDBRANCH  22  24
ENDBRANCH  19  22
ENDBRANCH  18  19
ENDBRANCH   1  18
TORSDOF 6
ENDMDL
MODEL 2
REMARK VINA RESULT:      -7.9      1.479      2.405
REMARK  6 active torsions:
REMARK  status: ('A' for Active; 'I' for Inactive)
REMARK    1  A    between atoms: C_2  and  N_3 
REMARK    2  A    between atoms: C_2  and  C_21 
REMARK    3  A    between atoms: N_3  and  C_6 
REMARK    4  A    between atoms: C_6  and  C_7 
REMARK       I    between atoms: C_7  and  N_8 
REMARK    5  A    between atoms: N_8  and  C_9 
REMARK    6  A    between atoms: C_16  and  C_17 
REMARK       I    between atoms: C_17  and  N_18 
ROOT
HETATM    1  C   UNL     1      42.039 -14.075   5.558  1.00  0.00     0.248 C 
HETATM    2  N   UNL     1      43.085 -14.630   4.861  1.00  0.00    -0.319 N 
HETATM    3  O   UNL     1      40.980 -14.593   5.909  1.00  0.00    -0.271 OA
HETATM    4  H   UNL     1      43.958 -14.110   4.750  1.00  0.00     0.169 HD
ENDROOT
BRANCH   2   5
HETATM    5  C   UNL     1      43.170 -15.926   4.367  1.00  0.00     0.093 A 
HETATM    6  S   UNL     1      42.645 -16.315   2.788  1.00  0.00    -0.075 SA
HETATM    7  C   UNL     1      43.102 -17.903   3.003  1.00  0.00    -0.008 A 
HETATM    8  C   UNL     1      43.643 -18.173   4.231  1.00  0.00    -0.026 A 
HETATM    9  C   UNL     1      43.021 -19.068   2.092  1.00  0.00     0.047 C 
HETATM   10  C   UNL     1      44.014 -19.612   4.322  1.00  0.00     0.041 C 
HETATM   11  C   UNL     1      43.694 -17.019   5.067  1.00  0.00     0.072 A 
HETATM   12  C   UNL     1      43.927 -20.088   2.839  1.00  0.00     0.010 C 
BRANCH  11  13
HETATM   13  C   UNL     1      44.175 -16.872   6.442  1.00  0.00     0.252 C 
HETATM   14  N   UNL     1      43.466 -17.487   7.426  1.00  0.00    -0.366 N 
HETATM   15  H   UNL     1      42.595 -17.969   7.273  1.00  0.00     0.159 HD
HETATM   16  H   UNL     1      43.768 -17.353   8.383  1.00  0.00     0.159 HD
HETATM   17  O   UNL     1      45.167 -16.194   6.714  1.00  0.00    -0.268 OA
ENDBRANCH  11  13
ENDBRANCH   2   5
BRANCH   1  18
HETATM   18  C   UNL     1      42.300 -12.639   6.012  1.00  0.00     0.335 C 
BRANCH  18  19
HETATM   19  N   UNL     1      43.284 -12.657   7.143  1.00  0.00    -0.057 N 
HETATM   20  H   UNL     1      43.453 -13.636   7.430  1.00  0.00     0.278 HD
HETATM   21  H   UNL     1      42.818 -12.263   7.978  1.00  0.00     0.278 HD
BRANCH  19  22
HETATM   22  C   UNL     1      44.615 -12.027   6.902  1.00  0.00     0.239 C 
HETATM   23  C   UNL     1      44.612 -11.413   5.508  1.00  0.00     0.047 C 
BRANCH  22  24
HETATM   24  C   UNL     1      44.909 -11.012   7.955  1.00  0.00     0.082 A 
HETATM   25  O   UNL     1      44.241 -11.162   9.141  1.00  0.00    -0.325 OA
HETATM   26  C   UNL     1      44.656 -10.163   9.960  1.00  0.00     0.142 A 
HETATM   27  C   UNL     1      45.593  -9.381   9.328  1.00  0.00     0.027 A 
HETATM   28  C   UNL     1      45.762  -9.930   8.032  1.00  0.00     0.037 A 
ENDBRANCH  22  24
ENDBRANCH  19  22
ENDBRANCH  18  19
ENDBRANCH   1  18
TORSDOF 6
ENDMDL
MODEL 3
REMARK VINA RESULT:      -7.4      1.713      2.765
REMARK  6 active torsions:
REMARK  status: ('A' for Active; 'I' for Inactive)
REMARK    1  A    between atoms: C_2  and  N_3 
REMARK    2  A    between atoms: C_2  and  C_21 
REMARK    3  A    between atoms: N_3  and  C_6 
REMARK    4  A    between atoms: C_6  and  C_7 
REMARK       I    between atoms: C_7  and  N_8 
REMARK    5  A    between atoms: N_8  and  C_9 
REMARK    6  A    between atoms: C_16  and  C_17 
REMARK       I    between atoms: C_17  and  N_18 
ROOT
HETATM    1  C   UNL     1      41.544 -14.988   5.829  1.00  0.00     0.248 C 
HETATM    2  N   UNL     1      42.687 -15.318   5.144  1.00  0.00    -0.319 N 
HETATM    3  O   UNL     1      40.630 -15.719   6.208  1.00  0.00    -0.271 OA
HETATM    4  H   UNL     1      43.420 -14.619   5.006  1.00  0.00     0.169 HD
ENDROOT
BRANCH   2   5
HETATM    5  C   UNL     1      43.064 -16.579   4.697  1.00  0.00     0.093 A 
HETATM    6  S   UNL     1      43.650 -17.769   5.773  1.00  0.00    -0.075 SA
HETATM    7  C   UNL     1      43.806 -18.857   4.521  1.00  0.00    -0.008 A 
HETATM    8  C   UNL     1      43.436 -18.367   3.297  1.00  0.00    -0.026 A 
HETATM    9  C   UNL     1      44.279 -20.262   4.508  1.00  0.00     0.047 C 
HETATM   10  C   UNL     1      43.615 -19.411   2.252  1.00  0.00     0.041 C 
HETATM   11  C   UNL     1      42.993 -17.014   3.368  1.00  0.00     0.072 A 
HETATM   12  C   UNL     1      43.827 -20.710   3.089  1.00  0.00     0.010 C 
BRANCH  11  13
HETATM   13  C   UNL     1      42.531 -16.118   2.307  1.00  0.00     0.252 C 
HETATM   14  N   UNL     1      43.404 -15.821   1.308  1.00  0.00    -0.366 N 
HETATM   15  H   UNL     1      44.366 -16.120   1.297  1.00  0.00     0.159 HD
HETATM   16  H   UNL     1      43.106 -15.168   0.594  1.00  0.00     0.159 HD
HETATM   17  O   UNL     1      41.404 -15.619   2.322  1.00  0.00    -0.268 OA
ENDBRANCH  11  13
ENDBRANCH   2   5
BRANCH   1  18
HETATM   18  C   UNL     1      41.472 -13.515   6.228  1.00  0.00     0.335 C 
BRANCH  18  19
HETATM   19  N   UNL     1      42.757 -13.129   6.899  1.00  0.00    -0.057 N 
HETATM   20  H   UNL     1      43.431 -13.907   6.813  1.00  0.00     0.278 HD
HETATM   21  H   UNL     1      42.587 -13.099   7.918  1.00  0.00     0.278 HD
BRANCH  19  22
HETATM   22  C   UNL     1      43.438 -11.893   6.414  1.00  0.00     0.239 C 
HETATM   23  C   UNL     1      44.934 -12.038   6.662  1.00  0.00     0.047 C 
BRANCH  22  24
HETATM   24  C   UNL     1      43.134 -11.663   4.971  1.00  0.00     0.082 A 
HETATM   25  O   UNL     1      43.562 -12.631   4.103  1.00  0.00    -0.325 OA
HETATM   26  C   UNL     1      43.177 -12.247   2.859  1.00  0.00     0.142 A 
HETATM   27  C   UNL     1      42.493 -11.056   2.914  1.00  0.00     0.027 A 
HETATM   28  C   UNL     1      42.461 -10.677   4.279  1.00  0.00     0.037 A 
ENDBRANCH  22  24
ENDBRANCH  19  22
ENDBRANCH  18  19
ENDBRANCH   1  18
TORSDOF 6
ENDMDL
MODEL 4
REMARK VINA RESULT:      -7.4      1.368      1.802
REMARK  6 active torsions:
REMARK  status: ('A' for Active; 'I' for Inactive)
REMARK    1  A    between atoms: C_2  and  N_3 
REMARK    2  A    between atoms: C_2  and  C_21 
REMARK    3  A    between atoms: N_3  and  C_6 
REMARK    4  A    between atoms: C_6  and  C_7 
REMARK       I    between atoms: C_7  and  N_8 
REMARK    5  A    between atoms: N_8  and  C_9 
REMARK    6  A    between atoms: C_16  and  C_17 
REMARK       I    between atoms: C_17  and  N_18 
ROOT
HETATM    1  C   UNL     1      41.638 -14.627   5.222  1.00  0.00     0.248 C 
HETATM    2  N   UNL     1      42.817 -15.077   4.681  1.00  0.00    -0.319 N 
HETATM    3  O   UNL     1      40.657 -15.274   5.587  1.00  0.00    -0.271 OA
HETATM    4  H   UNL     1      43.596 -14.428   4.541  1.00  0.00     0.169 HD
ENDROOT
BRANCH   2   5
HETATM    5  C   UNL     1      43.164 -16.393   4.400  1.00  0.00     0.093 A 
HETATM    6  S   UNL     1      43.841 -17.412   5.592  1.00  0.00    -0.075 SA
HETATM    7  C   UNL     1      43.903 -18.676   4.509  1.00  0.00    -0.008 A 
HETATM    8  C   UNL     1      43.434 -18.373   3.259  1.00  0.00    -0.026 A 
HETATM    9  C   UNL     1      44.382 -20.069   4.669  1.00  0.00     0.047 C 
HETATM   10  C   UNL     1      43.535 -19.563   2.371  1.00  0.00     0.041 C 
HETATM   11  C   UNL     1      42.990 -17.021   3.161  1.00  0.00     0.072 A 
HETATM   12  C   UNL     1      43.820 -20.722   3.374  1.00  0.00     0.010 C 
BRANCH  11  13
HETATM   13  C   UNL     1      42.440 -16.291   2.017  1.00  0.00     0.252 C 
HETATM   14  N   UNL     1      43.314 -15.834   1.082  1.00  0.00    -0.366 N 
HETATM   15  H   UNL     1      44.315 -15.902   1.169  1.00  0.00     0.159 HD
HETATM   16  H   UNL     1      42.944 -15.291   0.312  1.00  0.00     0.159 HD
HETATM   17  O   UNL     1      41.233 -16.067   1.910  1.00  0.00    -0.268 OA
ENDBRANCH  11  13
ENDBRANCH   2   5
BRANCH   1  18
HETATM   18  C   UNL     1      41.610 -13.118   5.462  1.00  0.00     0.335 C 
BRANCH  18  19
HETATM   19  N   UNL     1      42.351 -12.434   4.352  1.00  0.00    -0.057 N 
HETATM   20  H   UNL     1      41.730 -12.352   3.530  1.00  0.00     0.278 HD
HETATM   21  H   UNL     1      43.080 -13.083   4.010  1.00  0.00     0.278 HD
BRANCH  19  22
HETATM   22  C   UNL     1      42.903 -11.077   4.633  1.00  0.00     0.239 C 
HETATM   23  C   UNL     1      41.749 -10.154   5.001  1.00  0.00     0.047 C 
BRANCH  22  24
HETATM   24  C   UNL     1      43.928 -11.145   5.715  1.00  0.00     0.082 A 
HETATM   25  O   UNL     1      45.231 -11.246   5.306  1.00  0.00    -0.325 OA
HETATM   26  C   UNL     1      45.997 -11.276   6.426  1.00  0.00     0.142 A 
HETATM   27  C   UNL     1      45.210 -11.178   7.549  1.00  0.00     0.027 A 
HETATM   28  C   UNL     1      43.872 -11.089   7.092  1.00  0.00     0.037 A 
ENDBRANCH  22  24
ENDBRANCH  19  22
ENDBRANCH  18  19
ENDBRANCH   1  18
TORSDOF 6
ENDMDL
MODEL 5
REMARK VINA RESULT:      -6.9      2.502      4.013
REMARK  6 active torsions:
REMARK  status: ('A' for Active; 'I' for Inactive)
REMARK    1  A    between atoms: C_2  and  N_3 
REMARK    2  A    between atoms: C_2  and  C_21 
REMARK    3  A    between atoms: N_3  and  C_6 
REMARK    4  A    between atoms: C_6  and  C_7 
REMARK       I    between atoms: C_7  and  N_8 
REMARK    5  A    between atoms: N_8  and  C_9 
REMARK    6  A    between atoms: C_16  and  C_17 
REMARK       I    between atoms: C_17  and  N_18 
ROOT
HETATM    1  C   UNL     1      42.295 -14.807   5.981  1.00  0.00     0.248 C 
HETATM    2  N   UNL     1      43.160 -15.211   4.994  1.00  0.00    -0.319 N 
HETATM    3  O   UNL     1      41.566 -15.489   6.699  1.00  0.00    -0.271 OA
HETATM    4  H   UNL     1      43.796 -14.535   4.564  1.00  0.00     0.169 HD
ENDROOT
BRANCH   2   5
HETATM    5  C   UNL     1      43.394 -16.511   4.563  1.00  0.00     0.093 A 
HETATM    6  S   UNL     1      43.998 -17.707   5.623  1.00  0.00    -0.075 SA
HETATM    7  C   UNL     1      43.944 -18.844   4.406  1.00  0.00    -0.008 A 
HETATM    8  C   UNL     1      43.486 -18.368   3.207  1.00  0.00    -0.026 A 
HETATM    9  C   UNL     1      44.308 -20.281   4.403  1.00  0.00     0.047 C 
HETATM   10  C   UNL     1      43.479 -19.456   2.192  1.00  0.00     0.041 C 
HETATM   11  C   UNL     1      43.155 -16.982   3.267  1.00  0.00     0.072 A 
HETATM   12  C   UNL     1      43.679 -20.739   3.056  1.00  0.00     0.010 C 
BRANCH  11  13
HETATM   13  C   UNL     1      42.653 -16.088   2.222  1.00  0.00     0.252 C 
HETATM   14  N   UNL     1      43.541 -15.643   1.294  1.00  0.00    -0.366 N 
HETATM   15  H   UNL     1      44.530 -15.831   1.329  1.00  0.00     0.159 HD
HETATM   16  H   UNL     1      43.210 -14.990   0.594  1.00  0.00     0.159 HD
HETATM   17  O   UNL     1      41.477 -15.721   2.190  1.00  0.00    -0.268 OA
ENDBRANCH  11  13
ENDBRANCH   2   5
BRANCH   1  18
HETATM   18  C   UNL     1      42.329 -13.303   6.248  1.00  0.00     0.335 C 
BRANCH  18  19
HETATM   19  N   UNL     1      40.924 -12.780   6.273  1.00  0.00    -0.057 N 
HETATM   20  H   UNL     1      40.626 -12.654   7.255  1.00  0.00     0.278 HD
HETATM   21  H   UNL     1      40.297 -13.537   5.951  1.00  0.00     0.278 HD
BRANCH  19  22
HETATM   22  C   UNL     1      40.658 -11.497   5.558  1.00  0.00     0.239 C 
HETATM   23  C   UNL     1      41.992 -10.815   5.280  1.00  0.00     0.047 C 
BRANCH  22  24
HETATM   24  C   UNL     1      39.892 -11.750   4.303  1.00  0.00     0.082 A 
HETATM   25  O   UNL     1      39.958 -13.023   3.802  1.00  0.00    -0.325 OA
HETATM   26  C   UNL     1      39.190 -13.049   2.683  1.00  0.00     0.142 A 
HETATM   27  C   UNL     1      38.616 -11.819   2.465  1.00  0.00     0.027 A 
HETATM   28  C   UNL     1      39.066 -10.977   3.513  1.00  0.00     0.037 A 
ENDBRANCH  22  24
ENDBRANCH  19  22
ENDBRANCH  18  19
ENDBRANCH   1  18
TORSDOF 6
ENDMDL
MODEL 6
REMARK VINA RESULT:      -6.9     14.959     16.936
REMARK  6 active torsions:
REMARK  status: ('A' for Active; 'I' for Inactive)
REMARK    1  A    between atoms: C_2  and  N_3 
REMARK    2  A    between atoms: C_2  and  C_21 
REMARK    3  A    between atoms: N_3  and  C_6 
REMARK    4  A    between atoms: C_6  and  C_7 
REMARK       I    between atoms: C_7  and  N_8 
REMARK    5  A    between atoms: N_8  and  C_9 
REMARK    6  A    between atoms: C_16  and  C_17 
REMARK       I    between atoms: C_17  and  N_18 
ROOT
HETATM    1  C   UNL     1      49.694 -30.531   1.077  1.00  0.00     0.248 C 
HETATM    2  N   UNL     1      49.385 -29.353   0.443  1.00  0.00    -0.319 N 
HETATM    3  O   UNL     1      49.092 -31.604   1.056  1.00  0.00    -0.271 OA
HETATM    4  H   UNL     1      50.051 -28.577   0.454  1.00  0.00     0.169 HD
ENDROOT
BRANCH   2   5
HETATM    5  C   UNL     1      48.284 -29.099  -0.366  1.00  0.00     0.093 A 
HETATM    6  S   UNL     1      48.310 -29.436  -2.041  1.00  0.00    -0.075 SA
HETATM    7  C   UNL     1      46.736 -28.912  -2.194  1.00  0.00    -0.008 A 
HETATM    8  C   UNL     1      46.168 -28.480  -1.025  1.00  0.00    -0.026 A 
HETATM    9  C   UNL     1      45.850 -28.833  -3.379  1.00  0.00     0.047 C 
HETATM   10  C   UNL     1      44.769 -28.034  -1.269  1.00  0.00     0.041 C 
HETATM   11  C   UNL     1      47.064 -28.576   0.080  1.00  0.00     0.072 A 
HETATM   12  C   UNL     1      44.473 -28.583  -2.699  1.00  0.00     0.010 C 
BRANCH  11  13
HETATM   13  C   UNL     1      46.870 -28.211   1.484  1.00  0.00     0.252 C 
HETATM   14  N   UNL     1      45.711 -28.597   2.081  1.00  0.00    -0.366 N 
HETATM   15  H   UNL     1      44.953 -29.049   1.594  1.00  0.00     0.159 HD
HETATM   16  H   UNL     1      45.551 -28.311   3.038  1.00  0.00     0.159 HD
HETATM   17  O   UNL     1      47.705 -27.552   2.106  1.00  0.00    -0.268 OA
ENDBRANCH  11  13
ENDBRANCH   2   5
BRANCH   1  18
HETATM   18  C   UNL     1      51.018 -30.488   1.839  1.00  0.00     0.335 C 
BRANCH  18  19
HETATM   19  N   UNL     1      50.750 -30.091   3.260  1.00  0.00    -0.057 N 
HETATM   20  H   UNL     1      49.940 -29.448   3.285  1.00  0.00     0.278 HD
HETATM   21  H   UNL     1      51.524 -29.480   3.571  1.00  0.00     0.278 HD
BRANCH  19  22
HETATM   22  C   UNL     1      50.480 -31.186   4.237  1.00  0.00     0.239 C 
HETATM   23  C   UNL     1      51.439 -31.030   5.411  1.00  0.00     0.047 C 
BRANCH  22  24
HETATM   24  C   UNL     1      49.055 -31.153   4.676  1.00  0.00     0.082 A 
HETATM   25  O   UNL     1      48.683 -32.106   5.587  1.00  0.00    -0.325 OA
HETATM   26  C   UNL     1      47.371 -31.897   5.866  1.00  0.00     0.142 A 
HETATM   27  C   UNL     1      46.897 -30.814   5.164  1.00  0.00     0.027 A 
HETATM   28  C   UNL     1      47.985 -30.329   4.396  1.00  0.00     0.037 A 
ENDBRANCH  22  24
ENDBRANCH  19  22
ENDBRANCH  18  19
ENDBRANCH   1  18
TORSDOF 6
ENDMDL
MODEL 7
REMARK VINA RESULT:      -6.9      4.126      7.759
REMARK  6 active torsions:
REMARK  status: ('A' for Active; 'I' for Inactive)
REMARK    1  A    between atoms: C_2  and  N_3 
REMARK    2  A    between atoms: C_2  and  C_21 
REMARK    3  A    between atoms: N_3  and  C_6 
REMARK    4  A    between atoms: C_6  and  C_7 
REMARK       I    between atoms: C_7  and  N_8 
REMARK    5  A    between atoms: N_8  and  C_9 
REMARK    6  A    between atoms: C_16  and  C_17 
REMARK       I    between atoms: C_17  and  N_18 
ROOT
HETATM    1  C   UNL     1      40.534 -14.523   1.274  1.00  0.00     0.248 C 
HETATM    2  N   UNL     1      41.581 -14.476   2.162  1.00  0.00    -0.319 N 
HETATM    3  O   UNL     1      39.857 -15.489   0.927  1.00  0.00    -0.271 OA
HETATM    4  H   UNL     1      41.970 -13.573   2.446  1.00  0.00     0.169 HD
ENDROOT
BRANCH   2   5
HETATM    5  C   UNL     1      42.135 -15.539   2.865  1.00  0.00     0.093 A 
HETATM    6  S   UNL     1      43.126 -16.698   2.095  1.00  0.00    -0.075 SA
HETATM    7  C   UNL     1      43.352 -17.497   3.540  1.00  0.00    -0.008 A 
HETATM    8  C   UNL     1      42.706 -16.930   4.606  1.00  0.00    -0.026 A 
HETATM    9  C   UNL     1      44.132 -18.714   3.864  1.00  0.00     0.047 C 
HETATM   10  C   UNL     1      42.970 -17.717   5.842  1.00  0.00     0.041 C 
HETATM   11  C   UNL     1      41.971 -15.766   4.237  1.00  0.00     0.072 A 
HETATM   12  C   UNL     1      44.149 -18.646   5.418  1.00  0.00     0.010 C 
BRANCH  11  13
HETATM   13  C   UNL     1      41.138 -14.881   5.052  1.00  0.00     0.252 C 
HETATM   14  N   UNL     1      40.139 -15.449   5.779  1.00  0.00    -0.366 N 
HETATM   15  H   UNL     1      39.895 -16.425   5.730  1.00  0.00     0.159 HD
HETATM   16  H   UNL     1      39.532 -14.838   6.311  1.00  0.00     0.159 HD
HETATM   17  O   UNL     1      41.305 -13.660   5.064  1.00  0.00    -0.268 OA
ENDBRANCH  11  13
ENDBRANCH   2   5
BRANCH   1  18
HETATM   18  C   UNL     1      40.134 -13.154   0.725  1.00  0.00     0.335 C 
BRANCH  18  19
HETATM   19  N   UNL     1      40.998 -12.833  -0.458  1.00  0.00    -0.057 N 
HETATM   20  H   UNL     1      41.467 -13.696  -0.780  1.00  0.00     0.278 HD
HETATM   21  H   UNL     1      41.794 -12.263  -0.125  1.00  0.00     0.278 HD
BRANCH  19  22
HETATM   22  C   UNL     1      40.334 -12.217  -1.644  1.00  0.00     0.239 C 
HETATM   23  C   UNL     1      41.412 -11.768  -2.622  1.00  0.00     0.047 C 
BRANCH  22  24
HETATM   24  C   UNL     1      39.384 -13.183  -2.269  1.00  0.00     0.082 A 
HETATM   25  O   UNL     1      38.133 -12.702  -2.551  1.00  0.00    -0.325 OA
HETATM   26  C   UNL     1      37.438 -13.717  -3.123  1.00  0.00     0.142 A 
HETATM   27  C   UNL     1      38.226 -14.839  -3.231  1.00  0.00     0.027 A 
HETATM   28  C   UNL     1      39.486 -14.495  -2.682  1.00  0.00     0.037 A 
ENDBRANCH  22  24
ENDBRANCH  19  22
ENDBRANCH  18  19
ENDBRANCH   1  18
TORSDOF 6
ENDMDL
MODEL 8
REMARK VINA RESULT:      -6.9      3.325      5.455
REMARK  6 active torsions:
REMARK  status: ('A' for Active; 'I' for Inactive)
REMARK    1  A    between atoms: C_2  and  N_3 
REMARK    2  A    between atoms: C_2  and  C_21 
REMARK    3  A    between atoms: N_3  and  C_6 
REMARK    4  A    between atoms: C_6  and  C_7 
REMARK       I    between atoms: C_7  and  N_8 
REMARK    5  A    between atoms: N_8  and  C_9 
REMARK    6  A    between atoms: C_16  and  C_17 
REMARK       I    between atoms: C_17  and  N_18 
ROOT
HETATM    1  C   UNL     1      42.763 -13.276   3.734  1.00  0.00     0.248 C 
HETATM    2  N   UNL     1      42.336 -14.441   4.322  1.00  0.00    -0.319 N 
HETATM    3  O   UNL     1      43.597 -13.118   2.843  1.00  0.00    -0.271 OA
HETATM    4  H   UNL     1      41.542 -14.427   4.967  1.00  0.00     0.169 HD
ENDROOT
BRANCH   2   5
HETATM    5  C   UNL     1      42.777 -15.730   4.050  1.00  0.00     0.093 A 
HETATM    6  S   UNL     1      43.748 -16.594   5.160  1.00  0.00    -0.075 SA
HETATM    7  C   UNL     1      43.774 -17.914   4.144  1.00  0.00    -0.008 A 
HETATM    8  C   UNL     1      43.077 -17.744   2.978  1.00  0.00    -0.026 A 
HETATM    9  C   UNL     1      44.424 -19.238   4.288  1.00  0.00     0.047 C 
HETATM   10  C   UNL     1      43.164 -18.974   2.144  1.00  0.00     0.041 C 
HETATM   11  C   UNL     1      42.475 -16.454   2.890  1.00  0.00     0.072 A 
HETATM   12  C   UNL     1      43.736 -20.029   3.140  1.00  0.00     0.010 C 
BRANCH  11  13
HETATM   13  C   UNL     1      41.668 -15.862   1.822  1.00  0.00     0.252 C 
HETATM   14  N   UNL     1      42.326 -15.275   0.788  1.00  0.00    -0.366 N 
HETATM   15  H   UNL     1      43.326 -15.158   0.752  1.00  0.00     0.159 HD
HETATM   16  H   UNL     1      41.774 -14.825   0.068  1.00  0.00     0.159 HD
HETATM   17  O   UNL     1      40.437 -15.861   1.862  1.00  0.00    -0.268 OA
ENDBRANCH  11  13
ENDBRANCH   2   5
BRANCH   1  18
HETATM   18  C   UNL     1      42.020 -12.033   4.223  1.00  0.00     0.335 C 
BRANCH  18  19
HETATM   19  N   UNL     1      41.267 -11.432   3.074  1.00  0.00    -0.057 N 
HETATM   20  H   UNL     1      41.903 -11.342   2.263  1.00  0.00     0.278 HD
HETATM   21  H   UNL     1      41.069 -10.444   3.305  1.00  0.00     0.278 HD
BRANCH  19  22
HETATM   22  C   UNL     1      40.045 -12.148   2.606  1.00  0.00     0.239 C 
HETATM   23  C   UNL     1      38.829 -11.500   3.256  1.00  0.00     0.047 C 
BRANCH  22  24
HETATM   24  C   UNL     1      39.961 -12.118   1.117  1.00  0.00     0.082 A 
HETATM   25  O   UNL     1      41.065 -12.567   0.442  1.00  0.00    -0.325 OA
HETATM   26  C   UNL     1      40.785 -12.475  -0.883  1.00  0.00     0.142 A 
HETATM   27  C   UNL     1      39.511 -11.992  -1.072  1.00  0.00     0.027 A 
HETATM   28  C   UNL     1      38.975 -11.763   0.220  1.00  0.00     0.037 A 
ENDBRANCH  22  24
ENDBRANCH  19  22
ENDBRANCH  18  19
ENDBRANCH   1  18
TORSDOF 6
ENDMDL
MODEL 9
REMARK VINA RESULT:      -6.8      4.271      7.559
REMARK  6 active torsions:
REMARK  status: ('A' for Active; 'I' for Inactive)
REMARK    1  A    between atoms: C_2  and  N_3 
REMARK    2  A    between atoms: C_2  and  C_21 
REMARK    3  A    between atoms: N_3  and  C_6 
REMARK    4  A    between atoms: C_6  and  C_7 
REMARK       I    between atoms: C_7  and  N_8 
REMARK    5  A    between atoms: N_8  and  C_9 
REMARK    6  A    between atoms: C_16  and  C_17 
REMARK       I    between atoms: C_17  and  N_18 
ROOT
HETATM    1  C   UNL     1      40.485 -14.487   1.627  1.00  0.00     0.248 C 
HETATM    2  N   UNL     1      41.535 -14.114   2.429  1.00  0.00    -0.319 N 
HETATM    3  O   UNL     1      39.729 -15.451   1.739  1.00  0.00    -0.271 OA
HETATM    4  H   UNL     1      41.998 -13.214   2.281  1.00  0.00     0.169 HD
ENDROOT
BRANCH   2   5
HETATM    5  C   UNL     1      42.003 -14.772   3.560  1.00  0.00     0.093 A 
HETATM    6  S   UNL     1      41.608 -14.234   5.133  1.00  0.00    -0.075 SA
HETATM    7  C   UNL     1      42.469 -15.492   5.804  1.00  0.00    -0.008 A 
HETATM    8  C   UNL     1      43.061 -16.323   4.891  1.00  0.00    -0.026 A 
HETATM    9  C   UNL     1      42.704 -15.861   7.220  1.00  0.00     0.047 C 
HETATM   10  C   UNL     1      43.804 -17.407   5.590  1.00  0.00     0.041 C 
HETATM   11  C   UNL     1      42.806 -15.919   3.547  1.00  0.00     0.072 A 
HETATM   12  C   UNL     1      43.284 -17.295   7.056  1.00  0.00     0.010 C 
BRANCH  11  13
HETATM   13  C   UNL     1      43.256 -16.509   2.285  1.00  0.00     0.252 C 
HETATM   14  N   UNL     1      43.144 -17.856   2.144  1.00  0.00    -0.366 N 
HETATM   15  H   UNL     1      42.842 -18.474   2.880  1.00  0.00     0.159 HD
HETATM   16  H   UNL     1      43.493 -18.275   1.292  1.00  0.00     0.159 HD
HETATM   17  O   UNL     1      43.748 -15.824   1.388  1.00  0.00    -0.268 OA
ENDBRANCH  11  13
ENDBRANCH   2   5
BRANCH   1  18
HETATM   18  C   UNL     1      40.195 -13.499   0.498  1.00  0.00     0.335 C 
BRANCH  18  19
HETATM   19  N   UNL     1      39.292 -14.155  -0.504  1.00  0.00    -0.057 N 
HETATM   20  H   UNL     1      38.392 -13.646  -0.534  1.00  0.00     0.278 HD
HETATM   21  H   UNL     1      39.010 -15.074  -0.123  1.00  0.00     0.278 HD
BRANCH  19  22
HETATM   22  C   UNL     1      39.789 -14.265  -1.906  1.00  0.00     0.239 C 
HETATM   23  C   UNL     1      38.756 -15.026  -2.726  1.00  0.00     0.047 C 
BRANCH  22  24
HETATM   24  C   UNL     1      40.058 -12.910  -2.471  1.00  0.00     0.082 A 
HETATM   25  O   UNL     1      38.986 -12.060  -2.533  1.00  0.00    -0.325 OA
HETATM   26  C   UNL     1      39.438 -10.890  -3.053  1.00  0.00     0.142 A 
HETATM   27  C   UNL     1      40.786 -10.968  -3.310  1.00  0.00     0.027 A 
HETATM   28  C   UNL     1      41.190 -12.272  -2.932  1.00  0.00     0.037 A 
ENDBRANCH  22  24
ENDBRANCH  19  22
ENDBRANCH  18  19
ENDBRANCH   1  18
TORSDOF 6
ENDMDL
MODEL 10
REMARK VINA RESULT:      -6.7     15.386     17.159
REMARK  6 active torsions:
REMARK  status: ('A' for Active; 'I' for Inactive)
REMARK    1  A    between atoms: C_2  and  N_3 
REMARK    2  A    between atoms: C_2  and  C_21 
REMARK    3  A    between atoms: N_3  and  C_6 
REMARK    4  A    between atoms: C_6  and  C_7 
REMARK       I    between atoms: C_7  and  N_8 
REMARK    5  A    between atoms: N_8  and  C_9 
REMARK    6  A    between atoms: C_16  and  C_17 
REMARK       I    between atoms: C_17  and  N_18 
ROOT
HETATM    1  C   UNL     1      47.649 -28.800   1.990  1.00  0.00     0.248 C 
HETATM    2  N   UNL     1      47.516 -29.666   0.932  1.00  0.00    -0.319 N 
HETATM    3  O   UNL     1      47.121 -27.702   2.162  1.00  0.00    -0.271 OA
HETATM    4  H   UNL     1      47.922 -30.604   0.986  1.00  0.00     0.169 HD
ENDROOT
BRANCH   2   5
HETATM    5  C   UNL     1      46.755 -29.480  -0.216  1.00  0.00     0.093 A 
HETATM    6  S   UNL     1      47.476 -29.049  -1.703  1.00  0.00    -0.075 SA
HETATM    7  C   UNL     1      45.989 -29.071  -2.456  1.00  0.00    -0.008 A 
HETATM    8  C   UNL     1      44.944 -29.392  -1.631  1.00  0.00    -0.026 A 
HETATM    9  C   UNL     1      45.609 -28.803  -3.862  1.00  0.00     0.047 C 
HETATM   10  C   UNL     1      43.667 -29.382  -2.396  1.00  0.00     0.041 C 
HETATM   11  C   UNL     1      45.366 -29.637  -0.292  1.00  0.00     0.072 A 
HETATM   12  C   UNL     1      44.150 -29.341  -3.879  1.00  0.00     0.010 C 
BRANCH  11  13
HETATM   13  C   UNL     1      44.582 -29.987   0.893  1.00  0.00     0.252 C 
HETATM   14  N   UNL     1      43.658 -29.088   1.326  1.00  0.00    -0.366 N 
HETATM   15  H   UNL     1      43.536 -28.172   0.925  1.00  0.00     0.159 HD
HETATM   16  H   UNL     1      43.143 -29.305   2.170  1.00  0.00     0.159 HD
HETATM   17  O   UNL     1      44.764 -31.041   1.504  1.00  0.00    -0.268 OA
ENDBRANCH  11  13
ENDBRANCH   2   5
BRANCH   1  18
HETATM   18  C   UNL     1      48.515 -29.345   3.124  1.00  0.00     0.335 C 
BRANCH  18  19
HETATM   19  N   UNL     1      49.946 -28.984   2.862  1.00  0.00    -0.057 N 
HETATM   20  H   UNL     1      50.263 -28.309   3.578  1.00  0.00     0.278 HD
HETATM   21  H   UNL     1      49.977 -28.415   1.999  1.00  0.00     0.278 HD
BRANCH  19  22
HETATM   22  C   UNL     1      50.938 -30.098   2.828  1.00  0.00     0.239 C 
HETATM   23  C   UNL     1      50.631 -31.051   3.976  1.00  0.00     0.047 C 
BRANCH  22  24
HETATM   24  C   UNL     1      50.902 -30.789   1.507  1.00  0.00     0.082 A 
HETATM   25  O   UNL     1      50.695 -29.990   0.414  1.00  0.00    -0.325 OA
HETATM   26  C   UNL     1      50.713 -30.797  -0.677  1.00  0.00     0.142 A 
HETATM   27  C   UNL     1      50.945 -32.100  -0.306  1.00  0.00     0.027 A 
HETATM   28  C   UNL     1      51.071 -32.098   1.105  1.00  0.00     0.037 A 
ENDBRANCH  22  24
ENDBRANCH  19  22
ENDBRANCH  18  19
ENDBRANCH   1  18
TORSDOF 6
ENDMDL
