MODEL 1
REMARK VINA RESULT:      -9.2      0.000      0.000
REMARK  9 active torsions:
REMARK  status: ('A' for Active; 'I' for Inactive)
REMARK    1  A    between atoms: C_2  and  O_3 
REMARK    2  A    between atoms: O_3  and  C_4 
REMARK    3  A    between atoms: C_4  and  C_5 
REMARK    4  A    between atoms: C_8  and  N_9 
REMARK       I    between atoms: N_9  and  C_10 
REMARK    5  A    between atoms: C_10  and  C_11 
REMARK    6  A    between atoms: C_13  and  N_14 
REMARK    7  A    between atoms: N_17  and  C_19 
REMARK    8  A    between atoms: C_19  and  C_20 
REMARK    9  A    between atoms: C_19  and  C_26 
ROOT
HETATM    1  C   UNL     1      43.198 -11.075   6.138  1.00  0.00     0.164 C 
HETATM    2  N   UNL     1      42.147 -11.091   5.106  1.00  0.00    -0.249 NA
HETATM    3  C   UNL     1      41.062 -10.283   5.208  1.00  0.00     0.181 C 
HETATM    4  N   UNL     1      40.973  -9.273   6.008  1.00  0.00    -0.185 NA
HETATM    5  C   UNL     1      42.058  -9.057   6.823  1.00  0.00     0.247 C 
HETATM    6  O   UNL     1      42.420  -7.938   7.167  1.00  0.00    -0.271 OA
HETATM    7  C   UNL     1      42.744 -10.289   7.345  1.00  0.00     0.134 C 
HETATM    8  H   UNL     1      41.895 -12.065   4.906  1.00  0.00     0.131 HD
ENDROOT
BRANCH   3   9
HETATM    9  N   UNL     1      40.025 -10.663   4.384  1.00  0.00    -0.353 N 
HETATM   10  C   UNL     1      39.204 -11.858   4.670  1.00  0.00     0.153 C 
HETATM   11  C   UNL     1      39.706 -13.059   3.845  1.00  0.00     0.256 C 
HETATM   12  N   UNL     1      39.652 -12.697   2.360  1.00  0.00    -0.056 N 
HETATM   13  H   UNL     1      38.716 -12.340   2.158  1.00  0.00     0.281 HD
HETATM   14  C   UNL     1      40.586 -11.505   2.109  1.00  0.00     0.256 C 
HETATM   15  C   UNL     1      40.092 -10.308   2.949  1.00  0.00     0.153 C 
BRANCH  12  16
HETATM   16  C   UNL     1      39.834 -13.859   1.390  1.00  0.00     0.254 C 
BRANCH  16  17
HETATM   17  C   UNL     1      39.634 -13.447  -0.066  1.00  0.00    -0.023 A 
HETATM   18  C   UNL     1      38.803 -12.372  -0.427  1.00  0.00     0.009 A 
HETATM   19  C   UNL     1      38.635 -12.019  -1.767  1.00  0.00     0.001 A 
HETATM   20  C   UNL     1      39.295 -12.732  -2.765  1.00  0.00     0.000 A 
HETATM   21  C   UNL     1      40.125 -13.797  -2.427  1.00  0.00     0.001 A 
HETATM   22  C   UNL     1      40.296 -14.153  -1.088  1.00  0.00     0.009 A 
ENDBRANCH  16  17
BRANCH  16  23
HETATM   23  C   UNL     1      41.083 -14.724   1.648  1.00  0.00    -0.023 A 
HETATM   24  C   UNL     1      42.397 -14.217   1.656  1.00  0.00     0.009 A 
HETATM   25  C   UNL     1      43.492 -15.045   1.927  1.00  0.00     0.001 A 
HETATM   26  C   UNL     1      43.300 -16.391   2.215  1.00  0.00     0.000 A 
HETATM   27  C   UNL     1      42.012 -16.912   2.245  1.00  0.00     0.001 A 
HETATM   28  C   UNL     1      40.916 -16.086   1.976  1.00  0.00     0.009 A 
ENDBRANCH  16  23
ENDBRANCH  12  16
ENDBRANCH   3   9
BRANCH   1  29
HETATM   29  C   UNL     1      43.494 -12.550   6.493  1.00  0.00     0.240 C 
HETATM   30  N   UNL     1      43.140 -13.474   5.529  1.00  0.00    -0.326 N 
HETATM   31  H   UNL     1      42.764 -13.132   4.653  1.00  0.00     0.169 HD
HETATM   32  O   UNL     1      43.984 -12.801   7.598  1.00  0.00    -0.271 OA
BRANCH  30  33
HETATM   33  C   UNL     1      43.228 -14.883   5.641  1.00  0.00     0.034 A 
HETATM   34  C   UNL     1      42.119 -15.730   5.702  1.00  0.00     0.030 A 
HETATM   35  C   UNL     1      42.282 -17.117   5.787  1.00  0.00     0.020 A 
HETATM   36  C   UNL     1      43.560 -17.684   5.818  1.00  0.00     0.039 A 
HETATM   37  C   UNL     1      44.675 -16.841   5.766  1.00  0.00     0.020 A 
HETATM   38  C   UNL     1      44.507 -15.452   5.677  1.00  0.00     0.030 A 
BRANCH  36  39
HETATM   39  C   UNL     1      43.661 -19.167   5.893  1.00  0.00     0.293 C 
HETATM   40  O   UNL     1      43.117 -19.830   6.759  1.00  0.00    -0.259 OA
BRANCH  39  41
HETATM   41  O   UNL     1      44.428 -19.645   4.881  1.00  0.00    -0.318 OA
BRANCH  41  42
HETATM   42  C   UNL     1      43.841 -20.709   4.115  1.00  0.00     0.174 C 
HETATM   43  C   UNL     1      43.655 -20.280   2.673  1.00  0.00     0.034 C 
ENDBRANCH  41  42
ENDBRANCH  39  41
ENDBRANCH  36  39
ENDBRANCH  30  33
ENDBRANCH   1  29
TORSDOF 9
ENDMDL
MODEL 2
REMARK VINA RESULT:      -9.0      0.657      3.071
REMARK  9 active torsions:
REMARK  status: ('A' for Active; 'I' for Inactive)
REMARK    1  A    between atoms: C_2  and  O_3 
REMARK    2  A    between atoms: O_3  and  C_4 
REMARK    3  A    between atoms: C_4  and  C_5 
REMARK    4  A    between atoms: C_8  and  N_9 
REMARK       I    between atoms: N_9  and  C_10 
REMARK    5  A    between atoms: C_10  and  C_11 
REMARK    6  A    between atoms: C_13  and  N_14 
REMARK    7  A    between atoms: N_17  and  C_19 
REMARK    8  A    between atoms: C_19  and  C_20 
REMARK    9  A    between atoms: C_19  and  C_26 
ROOT
HETATM    1  C   UNL     1      43.259 -10.811   6.377  1.00  0.00     0.164 C 
HETATM    2  N   UNL     1      42.400 -10.793   5.181  1.00  0.00    -0.249 NA
HETATM    3  C   UNL     1      41.299 -10.002   5.129  1.00  0.00     0.181 C 
HETATM    4  N   UNL     1      41.056  -9.030   5.944  1.00  0.00    -0.185 NA
HETATM    5  C   UNL     1      41.982  -8.838   6.941  1.00  0.00     0.247 C 
HETATM    6  O   UNL     1      42.259  -7.731   7.388  1.00  0.00    -0.271 OA
HETATM    7  C   UNL     1      42.592 -10.084   7.521  1.00  0.00     0.134 C 
HETATM    8  H   UNL     1      42.204 -11.760   4.900  1.00  0.00     0.131 HD
ENDROOT
BRANCH   3   9
HETATM    9  N   UNL     1      40.426 -10.357   4.125  1.00  0.00    -0.353 N 
HETATM   10  C   UNL     1      39.716 -11.652   4.135  1.00  0.00     0.153 C 
HETATM   11  C   UNL     1      40.451 -12.670   3.240  1.00  0.00     0.256 C 
HETATM   12  N   UNL     1      40.546 -12.106   1.823  1.00  0.00    -0.056 N 
HETATM   13  H   UNL     1      39.609 -11.813   1.538  1.00  0.00     0.281 HD
HETATM   14  C   UNL     1      41.363 -10.806   1.862  1.00  0.00     0.256 C 
HETATM   15  C   UNL     1      40.633  -9.795   2.772  1.00  0.00     0.153 C 
BRANCH  12  16
HETATM   16  C   UNL     1      40.980 -13.094   0.746  1.00  0.00     0.254 C 
BRANCH  16  17
HETATM   17  C   UNL     1      41.514 -14.400   1.327  1.00  0.00    -0.023 A 
HETATM   18  C   UNL     1      42.887 -14.607   1.553  1.00  0.00     0.009 A 
HETATM   19  C   UNL     1      43.348 -15.813   2.081  1.00  0.00     0.001 A 
HETATM   20  C   UNL     1      42.449 -16.829   2.394  1.00  0.00     0.000 A 
HETATM   21  C   UNL     1      41.085 -16.641   2.182  1.00  0.00     0.001 A 
HETATM   22  C   UNL     1      40.620 -15.437   1.653  1.00  0.00     0.009 A 
ENDBRANCH  16  17
BRANCH  16  23
HETATM   23  C   UNL     1      39.976 -13.268  -0.411  1.00  0.00    -0.023 A 
HETATM   24  C   UNL     1      40.091 -14.261  -1.404  1.00  0.00     0.009 A 
HETATM   25  C   UNL     1      39.132 -14.391  -2.415  1.00  0.00     0.001 A 
HETATM   26  C   UNL     1      38.028 -13.547  -2.447  1.00  0.00     0.000 A 
HETATM   27  C   UNL     1      37.872 -12.579  -1.462  1.00  0.00     0.001 A 
HETATM   28  C   UNL     1      38.829 -12.448  -0.451  1.00  0.00     0.009 A 
ENDBRANCH  16  23
ENDBRANCH  12  16
ENDBRANCH   3   9
BRANCH   1  29
HETATM   29  C   UNL     1      43.518 -12.297   6.716  1.00  0.00     0.240 C 
HETATM   30  N   UNL     1      43.187 -13.198   5.722  1.00  0.00    -0.326 N 
HETATM   31  H   UNL     1      42.850 -12.834   4.839  1.00  0.00     0.169 HD
HETATM   32  O   UNL     1      43.960 -12.577   7.834  1.00  0.00    -0.271 OA
BRANCH  30  33
HETATM   33  C   UNL     1      43.247 -14.609   5.812  1.00  0.00     0.034 A 
HETATM   34  C   UNL     1      42.129 -15.444   5.732  1.00  0.00     0.030 A 
HETATM   35  C   UNL     1      42.268 -16.834   5.803  1.00  0.00     0.020 A 
HETATM   36  C   UNL     1      43.529 -17.418   5.960  1.00  0.00     0.039 A 
HETATM   37  C   UNL     1      44.652 -16.588   6.049  1.00  0.00     0.020 A 
HETATM   38  C   UNL     1      44.509 -15.195   5.974  1.00  0.00     0.030 A 
BRANCH  36  39
HETATM   39  C   UNL     1      43.607 -18.903   6.012  1.00  0.00     0.293 C 
HETATM   40  O   UNL     1      43.125 -19.565   6.916  1.00  0.00    -0.259 OA
BRANCH  39  41
HETATM   41  O   UNL     1      44.273 -19.385   4.934  1.00  0.00    -0.318 OA
BRANCH  41  42
HETATM   42  C   UNL     1      43.776 -20.625   4.406  1.00  0.00     0.174 C 
HETATM   43  C   UNL     1      43.747 -20.580   2.891  1.00  0.00     0.034 C 
ENDBRANCH  41  42
ENDBRANCH  39  41
ENDBRANCH  36  39
ENDBRANCH  30  33
ENDBRANCH   1  29
TORSDOF 9
ENDMDL
MODEL 3
REMARK VINA RESULT:      -8.8      4.751      8.212
REMARK  9 active torsions:
REMARK  status: ('A' for Active; 'I' for Inactive)
REMARK    1  A    between atoms: C_2  and  O_3 
REMARK    2  A    between atoms: O_3  and  C_4 
REMARK    3  A    between atoms: C_4  and  C_5 
REMARK    4  A    between atoms: C_8  and  N_9 
REMARK       I    between atoms: N_9  and  C_10 
REMARK    5  A    between atoms: C_10  and  C_11 
REMARK    6  A    between atoms: C_13  and  N_14 
REMARK    7  A    between atoms: N_17  and  C_19 
REMARK    8  A    between atoms: C_19  and  C_20 
REMARK    9  A    between atoms: C_19  and  C_26 
ROOT
HETATM    1  C   UNL     1      44.279 -10.736   8.962  1.00  0.00     0.164 C 
HETATM    2  N   UNL     1      43.439 -11.153   7.826  1.00  0.00    -0.249 NA
HETATM    3  C   UNL     1      43.883 -11.022   6.550  1.00  0.00     0.181 C 
HETATM    4  N   UNL     1      45.112 -10.804   6.221  1.00  0.00    -0.185 NA
HETATM    5  C   UNL     1      45.997 -10.666   7.263  1.00  0.00     0.247 C 
HETATM    6  O   UNL     1      47.162 -11.040   7.201  1.00  0.00    -0.271 OA
HETATM    7  C   UNL     1      45.474  -9.951   8.478  1.00  0.00     0.134 C 
HETATM    8  H   UNL     1      42.496 -10.773   7.955  1.00  0.00     0.131 HD
ENDROOT
BRANCH   3   9
HETATM    9  N   UNL     1      42.875 -11.111   5.616  1.00  0.00    -0.353 N 
HETATM   10  C   UNL     1      41.509 -11.536   5.985  1.00  0.00     0.153 C 
HETATM   11  C   UNL     1      41.316 -13.034   5.675  1.00  0.00     0.256 C 
HETATM   12  N   UNL     1      41.583 -13.271   4.188  1.00  0.00    -0.056 N 
HETATM   13  H   UNL     1      41.023 -12.601   3.658  1.00  0.00     0.281 HD
HETATM   14  C   UNL     1      43.038 -12.890   3.882  1.00  0.00     0.256 C 
HETATM   15  C   UNL     1      43.234 -11.395   4.209  1.00  0.00     0.153 C 
BRANCH  12  16
HETATM   16  C   UNL     1      41.158 -14.633   3.650  1.00  0.00     0.254 C 
BRANCH  16  17
HETATM   17  C   UNL     1      40.729 -14.579   2.186  1.00  0.00    -0.023 A 
HETATM   18  C   UNL     1      41.031 -13.480   1.362  1.00  0.00     0.009 A 
HETATM   19  C   UNL     1      40.624 -13.455   0.028  1.00  0.00     0.001 A 
HETATM   20  C   UNL     1      39.911 -14.526  -0.504  1.00  0.00     0.000 A 
HETATM   21  C   UNL     1      39.606 -15.625   0.294  1.00  0.00     0.001 A 
HETATM   22  C   UNL     1      40.011 -15.654   1.628  1.00  0.00     0.009 A 
ENDBRANCH  16  17
BRANCH  16  23
HETATM   23  C   UNL     1      42.114 -15.790   3.998  1.00  0.00    -0.023 A 
HETATM   24  C   UNL     1      42.248 -16.332   5.292  1.00  0.00     0.009 A 
HETATM   25  C   UNL     1      43.110 -17.404   5.544  1.00  0.00     0.001 A 
HETATM   26  C   UNL     1      43.843 -17.973   4.509  1.00  0.00     0.000 A 
HETATM   27  C   UNL     1      43.708 -17.480   3.217  1.00  0.00     0.001 A 
HETATM   28  C   UNL     1      42.845 -16.409   2.963  1.00  0.00     0.009 A 
ENDBRANCH  16  23
ENDBRANCH  12  16
ENDBRANCH   3   9
BRANCH   1  29
HETATM   29  C   UNL     1      43.379  -9.894   9.894  1.00  0.00     0.240 C 
HETATM   30  N   UNL     1      43.780  -9.838  11.214  1.00  0.00    -0.326 N 
HETATM   31  H   UNL     1      44.644 -10.301  11.472  1.00  0.00     0.169 HD
HETATM   32  O   UNL     1      42.370  -9.367   9.417  1.00  0.00    -0.271 OA
BRANCH  30  33
HETATM   33  C   UNL     1      43.090  -9.208  12.278  1.00  0.00     0.034 A 
HETATM   34  C   UNL     1      43.438  -7.960  12.801  1.00  0.00     0.030 A 
HETATM   35  C   UNL     1      42.694  -7.386  13.838  1.00  0.00     0.020 A 
HETATM   36  C   UNL     1      41.588  -8.052  14.374  1.00  0.00     0.039 A 
HETATM   37  C   UNL     1      41.239  -9.306  13.861  1.00  0.00     0.020 A 
HETATM   38  C   UNL     1      41.985  -9.876  12.820  1.00  0.00     0.030 A 
BRANCH  36  39
HETATM   39  C   UNL     1      40.831  -7.378  15.464  1.00  0.00     0.293 C 
HETATM   40  O   UNL     1      39.849  -6.682  15.263  1.00  0.00    -0.259 OA
BRANCH  39  41
HETATM   41  O   UNL     1      41.385  -7.650  16.671  1.00  0.00    -0.318 OA
BRANCH  41  42
HETATM   42  C   UNL     1      40.756  -7.014  17.795  1.00  0.00     0.174 C 
HETATM   43  C   UNL     1      39.981  -8.031  18.611  1.00  0.00     0.034 C 
ENDBRANCH  41  42
ENDBRANCH  39  41
ENDBRANCH  36  39
ENDBRANCH  30  33
ENDBRANCH   1  29
TORSDOF 9
ENDMDL
MODEL 4
REMARK VINA RESULT:      -8.8      4.795      9.116
REMARK  9 active torsions:
REMARK  status: ('A' for Active; 'I' for Inactive)
REMARK    1  A    between atoms: C_2  and  O_3 
REMARK    2  A    between atoms: O_3  and  C_4 
REMARK    3  A    between atoms: C_4  and  C_5 
REMARK    4  A    between atoms: C_8  and  N_9 
REMARK       I    between atoms: N_9  and  C_10 
REMARK    5  A    between atoms: C_10  and  C_11 
REMARK    6  A    between atoms: C_13  and  N_14 
REMARK    7  A    between atoms: N_17  and  C_19 
REMARK    8  A    between atoms: C_19  and  C_20 
REMARK    9  A    between atoms: C_19  and  C_26 
ROOT
HETATM    1  C   UNL     1      44.662 -10.507   9.419  1.00  0.00     0.164 C 
HETATM    2  N   UNL     1      43.938 -11.676   8.889  1.00  0.00    -0.249 NA
HETATM    3  C   UNL     1      44.104 -12.070   7.601  1.00  0.00     0.181 C 
HETATM    4  N   UNL     1      45.063 -11.675   6.832  1.00  0.00    -0.185 NA
HETATM    5  C   UNL     1      45.935 -10.765   7.380  1.00  0.00     0.247 C 
HETATM    6  O   UNL     1      47.127 -10.733   7.099  1.00  0.00    -0.271 OA
HETATM    7  C   UNL     1      45.326  -9.742   8.298  1.00  0.00     0.134 C 
HETATM    8  H   UNL     1      42.950 -11.599   9.153  1.00  0.00     0.131 HD
ENDROOT
BRANCH   3   9
HETATM    9  N   UNL     1      43.115 -12.925   7.166  1.00  0.00    -0.353 N 
HETATM   10  C   UNL     1      43.182 -14.380   7.416  1.00  0.00     0.153 C 
HETATM   11  C   UNL     1      43.734 -15.109   6.175  1.00  0.00     0.256 C 
HETATM   12  N   UNL     1      42.837 -14.796   4.977  1.00  0.00    -0.056 N 
HETATM   13  H   UNL     1      41.870 -14.989   5.250  1.00  0.00     0.281 HD
HETATM   14  C   UNL     1      42.872 -13.284   4.715  1.00  0.00     0.256 C 
HETATM   15  C   UNL     1      42.335 -12.556   5.965  1.00  0.00     0.153 C 
BRANCH  12  16
HETATM   16  C   UNL     1      43.061 -15.659   3.740  1.00  0.00     0.254 C 
BRANCH  16  17
HETATM   17  C   UNL     1      43.408 -17.104   4.086  1.00  0.00    -0.023 A 
HETATM   18  C   UNL     1      43.355 -17.587   5.406  1.00  0.00     0.009 A 
HETATM   19  C   UNL     1      43.681 -18.913   5.695  1.00  0.00     0.001 A 
HETATM   20  C   UNL     1      44.062 -19.777   4.672  1.00  0.00     0.000 A 
HETATM   21  C   UNL     1      44.117 -19.319   3.358  1.00  0.00     0.001 A 
HETATM   22  C   UNL     1      43.792 -17.994   3.065  1.00  0.00     0.009 A 
ENDBRANCH  16  17
BRANCH  16  23
HETATM   23  C   UNL     1      41.994 -15.499   2.641  1.00  0.00    -0.023 A 
HETATM   24  C   UNL     1      40.694 -16.038   2.728  1.00  0.00     0.009 A 
HETATM   25  C   UNL     1      39.755 -15.835   1.711  1.00  0.00     0.001 A 
HETATM   26  C   UNL     1      40.083 -15.074   0.594  1.00  0.00     0.000 A 
HETATM   27  C   UNL     1      41.347 -14.504   0.497  1.00  0.00     0.001 A 
HETATM   28  C   UNL     1      42.286 -14.705   1.513  1.00  0.00     0.009 A 
ENDBRANCH  16  23
ENDBRANCH  12  16
ENDBRANCH   3   9
BRANCH   1  29
HETATM   29  C   UNL     1      43.623  -9.642  10.167  1.00  0.00     0.240 C 
HETATM   30  N   UNL     1      43.753  -9.616  11.541  1.00  0.00    -0.326 N 
HETATM   31  H   UNL     1      44.530 -10.114  11.959  1.00  0.00     0.169 HD
HETATM   32  O   UNL     1      42.749  -9.072   9.507  1.00  0.00    -0.271 OA
BRANCH  30  33
HETATM   33  C   UNL     1      42.885  -8.972  12.457  1.00  0.00     0.034 A 
HETATM   34  C   UNL     1      41.627  -9.463  12.814  1.00  0.00     0.030 A 
HETATM   35  C   UNL     1      40.833  -8.785  13.746  1.00  0.00     0.020 A 
HETATM   36  C   UNL     1      41.282  -7.599  14.336  1.00  0.00     0.039 A 
HETATM   37  C   UNL     1      42.537  -7.098  13.976  1.00  0.00     0.020 A 
HETATM   38  C   UNL     1      43.331  -7.782  13.045  1.00  0.00     0.030 A 
BRANCH  36  39
HETATM   39  C   UNL     1      40.394  -6.938  15.331  1.00  0.00     0.293 C 
HETATM   40  O   UNL     1      39.298  -6.485  15.050  1.00  0.00    -0.259 OA
BRANCH  39  41
HETATM   41  O   UNL     1      40.978  -6.921  16.555  1.00  0.00    -0.318 OA
BRANCH  41  42
HETATM   42  C   UNL     1      40.074  -6.815  17.667  1.00  0.00     0.174 C 
HETATM   43  C   UNL     1      40.094  -8.089  18.488  1.00  0.00     0.034 C 
ENDBRANCH  41  42
ENDBRANCH  39  41
ENDBRANCH  36  39
ENDBRANCH  30  33
ENDBRANCH   1  29
TORSDOF 9
ENDMDL
MODEL 5
REMARK VINA RESULT:      -8.7      3.793      8.574
REMARK  9 active torsions:
REMARK  status: ('A' for Active; 'I' for Inactive)
REMARK    1  A    between atoms: C_2  and  O_3 
REMARK    2  A    between atoms: O_3  and  C_4 
REMARK    3  A    between atoms: C_4  and  C_5 
REMARK    4  A    between atoms: C_8  and  N_9 
REMARK       I    between atoms: N_9  and  C_10 
REMARK    5  A    between atoms: C_10  and  C_11 
REMARK    6  A    between atoms: C_13  and  N_14 
REMARK    7  A    between atoms: N_17  and  C_19 
REMARK    8  A    between atoms: C_19  and  C_20 
REMARK    9  A    between atoms: C_19  and  C_26 
ROOT
HETATM    1  C   UNL     1      39.088 -10.721   5.172  1.00  0.00     0.164 C 
HETATM    2  N   UNL     1      38.765 -10.111   6.474  1.00  0.00    -0.249 NA
HETATM    3  C   UNL     1      39.126  -8.832   6.750  1.00  0.00     0.181 C 
HETATM    4  N   UNL     1      39.507  -7.972   5.866  1.00  0.00    -0.185 NA
HETATM    5  C   UNL     1      39.574  -8.430   4.573  1.00  0.00     0.247 C 
HETATM    6  O   UNL     1      39.328  -7.723   3.602  1.00  0.00    -0.271 OA
HETATM    7  C   UNL     1      40.049  -9.846   4.401  1.00  0.00     0.134 C 
HETATM    8  H   UNL     1      39.029 -10.764   7.219  1.00  0.00     0.131 HD
ENDROOT
BRANCH   3   9
HETATM    9  N   UNL     1      39.079  -8.536   8.094  1.00  0.00    -0.353 N 
HETATM   10  C   UNL     1      39.238  -7.154   8.591  1.00  0.00     0.153 C 
HETATM   11  C   UNL     1      40.691  -6.916   9.048  1.00  0.00     0.256 C 
HETATM   12  N   UNL     1      41.042  -7.935  10.133  1.00  0.00    -0.056 N 
HETATM   13  H   UNL     1      40.309  -7.901  10.845  1.00  0.00     0.281 HD
HETATM   14  C   UNL     1      40.940  -9.346   9.537  1.00  0.00     0.256 C 
HETATM   15  C   UNL     1      39.489  -9.576   9.065  1.00  0.00     0.153 C 
BRANCH  12  16
HETATM   16  C   UNL     1      42.331  -7.664  10.902  1.00  0.00     0.254 C 
BRANCH  16  17
HETATM   17  C   UNL     1      42.163  -7.832  12.409  1.00  0.00    -0.023 A 
HETATM   18  C   UNL     1      41.289  -8.787  12.959  1.00  0.00     0.009 A 
HETATM   19  C   UNL     1      41.153  -8.916  14.342  1.00  0.00     0.001 A 
HETATM   20  C   UNL     1      41.887  -8.097  15.196  1.00  0.00     0.000 A 
HETATM   21  C   UNL     1      42.761  -7.149  14.671  1.00  0.00     0.001 A 
HETATM   22  C   UNL     1      42.900  -7.016  13.289  1.00  0.00     0.009 A 
ENDBRANCH  16  17
BRANCH  16  23
HETATM   23  C   UNL     1      43.585  -8.340  10.314  1.00  0.00    -0.023 A 
HETATM   24  C   UNL     1      44.218  -9.456  10.898  1.00  0.00     0.009 A 
HETATM   25  C   UNL     1      45.337 -10.049  10.303  1.00  0.00     0.001 A 
HETATM   26  C   UNL     1      45.839  -9.554   9.104  1.00  0.00     0.000 A 
HETATM   27  C   UNL     1      45.216  -8.475   8.490  1.00  0.00     0.001 A 
HETATM   28  C   UNL     1      44.096  -7.882   9.082  1.00  0.00     0.009 A 
ENDBRANCH  16  23
ENDBRANCH  12  16
ENDBRANCH   3   9
BRANCH   1  29
HETATM   29  C   UNL     1      39.694 -12.111   5.471  1.00  0.00     0.240 C 
HETATM   30  N   UNL     1      40.636 -12.555   4.563  1.00  0.00    -0.326 N 
HETATM   31  H   UNL     1      40.899 -11.936   3.806  1.00  0.00     0.169 HD
HETATM   32  O   UNL     1      39.283 -12.731   6.456  1.00  0.00    -0.271 OA
BRANCH  30  33
HETATM   33  C   UNL     1      41.274 -13.818   4.563  1.00  0.00     0.034 A 
HETATM   34  C   UNL     1      40.783 -14.939   3.887  1.00  0.00     0.030 A 
HETATM   35  C   UNL     1      41.482 -16.151   3.911  1.00  0.00     0.020 A 
HETATM   36  C   UNL     1      42.685 -16.267   4.614  1.00  0.00     0.039 A 
HETATM   37  C   UNL     1      43.178 -15.152   5.300  1.00  0.00     0.020 A 
HETATM   38  C   UNL     1      42.476 -13.938   5.271  1.00  0.00     0.030 A 
BRANCH  36  39
HETATM   39  C   UNL     1      43.385 -17.580   4.584  1.00  0.00     0.293 C 
HETATM   40  O   UNL     1      43.798 -18.139   5.586  1.00  0.00    -0.259 OA
BRANCH  39  41
HETATM   41  O   UNL     1      43.485 -18.039   3.312  1.00  0.00    -0.318 OA
BRANCH  41  42
HETATM   42  C   UNL     1      43.980 -19.381   3.179  1.00  0.00     0.174 C 
HETATM   43  C   UNL     1      43.257 -20.101   2.057  1.00  0.00     0.034 C 
ENDBRANCH  41  42
ENDBRANCH  39  41
ENDBRANCH  36  39
ENDBRANCH  30  33
ENDBRANCH   1  29
TORSDOF 9
ENDMDL
MODEL 6
REMARK VINA RESULT:      -8.7      2.795      7.065
REMARK  9 active torsions:
REMARK  status: ('A' for Active; 'I' for Inactive)
REMARK    1  A    between atoms: C_2  and  O_3 
REMARK    2  A    between atoms: O_3  and  C_4 
REMARK    3  A    between atoms: C_4  and  C_5 
REMARK    4  A    between atoms: C_8  and  N_9 
REMARK       I    between atoms: N_9  and  C_10 
REMARK    5  A    between atoms: C_10  and  C_11 
REMARK    6  A    between atoms: C_13  and  N_14 
REMARK    7  A    between atoms: N_17  and  C_19 
REMARK    8  A    between atoms: C_19  and  C_20 
REMARK    9  A    between atoms: C_19  and  C_26 
ROOT
HETATM    1  C   UNL     1      40.440 -10.874   2.818  1.00  0.00     0.164 C 
HETATM    2  N   UNL     1      40.809 -12.190   2.269  1.00  0.00    -0.249 NA
HETATM    3  C   UNL     1      39.950 -12.879   1.476  1.00  0.00     0.181 C 
HETATM    4  N   UNL     1      38.905 -12.370   0.914  1.00  0.00    -0.185 NA
HETATM    5  C   UNL     1      38.659 -11.047   1.192  1.00  0.00     0.247 C 
HETATM    6  O   UNL     1      38.157 -10.278   0.380  1.00  0.00    -0.271 OA
HETATM    7  C   UNL     1      38.971 -10.600   2.593  1.00  0.00     0.134 C 
HETATM    8  H   UNL     1      41.194 -12.766   3.026  1.00  0.00     0.131 HD
ENDROOT
BRANCH   3   9
HETATM    9  N   UNL     1      40.282 -14.209   1.347  1.00  0.00    -0.353 N 
HETATM   10  C   UNL     1      39.793 -15.228   2.298  1.00  0.00     0.153 C 
HETATM   11  C   UNL     1      40.870 -15.526   3.360  1.00  0.00     0.256 C 
HETATM   12  N   UNL     1      42.142 -15.998   2.656  1.00  0.00    -0.056 N 
HETATM   13  H   UNL     1      41.886 -16.752   2.015  1.00  0.00     0.281 HD
HETATM   14  C   UNL     1      42.649 -14.870   1.745  1.00  0.00     0.256 C 
HETATM   15  C   UNL     1      41.562 -14.561   0.694  1.00  0.00     0.153 C 
BRANCH  12  16
HETATM   16  C   UNL     1      43.208 -16.611   3.557  1.00  0.00     0.254 C 
BRANCH  16  17
HETATM   17  C   UNL     1      43.099 -16.138   5.003  1.00  0.00    -0.023 A 
HETATM   18  C   UNL     1      43.879 -15.079   5.501  1.00  0.00     0.009 A 
HETATM   19  C   UNL     1      43.761 -14.669   6.829  1.00  0.00     0.001 A 
HETATM   20  C   UNL     1      42.863 -15.307   7.680  1.00  0.00     0.000 A 
HETATM   21  C   UNL     1      42.079 -16.355   7.206  1.00  0.00     0.001 A 
HETATM   22  C   UNL     1      42.193 -16.768   5.878  1.00  0.00     0.009 A 
ENDBRANCH  16  17
BRANCH  16  23
HETATM   23  C   UNL     1      43.395 -18.132   3.390  1.00  0.00    -0.023 A 
HETATM   24  C   UNL     1      43.071 -18.835   2.213  1.00  0.00     0.009 A 
HETATM   25  C   UNL     1      43.290 -20.213   2.107  1.00  0.00     0.001 A 
HETATM   26  C   UNL     1      43.856 -20.917   3.164  1.00  0.00     0.000 A 
HETATM   27  C   UNL     1      44.215 -20.243   4.325  1.00  0.00     0.001 A 
HETATM   28  C   UNL     1      43.997 -18.866   4.433  1.00  0.00     0.009 A 
ENDBRANCH  16  23
ENDBRANCH  12  16
ENDBRANCH   3   9
BRANCH   1  29
HETATM   29  C   UNL     1      40.793 -10.903   4.322  1.00  0.00     0.240 C 
HETATM   30  N   UNL     1      41.972 -10.271   4.666  1.00  0.00    -0.326 N 
HETATM   31  H   UNL     1      42.493  -9.799   3.936  1.00  0.00     0.169 HD
HETATM   32  O   UNL     1      40.036 -11.501   5.092  1.00  0.00    -0.271 OA
BRANCH  30  33
HETATM   33  C   UNL     1      42.560 -10.228   5.953  1.00  0.00     0.034 A 
HETATM   34  C   UNL     1      42.146  -9.364   6.970  1.00  0.00     0.030 A 
HETATM   35  C   UNL     1      42.757  -9.395   8.228  1.00  0.00     0.020 A 
HETATM   36  C   UNL     1      43.799 -10.289   8.493  1.00  0.00     0.039 A 
HETATM   37  C   UNL     1      44.224 -11.152   7.477  1.00  0.00     0.020 A 
HETATM   38  C   UNL     1      43.606 -11.121   6.218  1.00  0.00     0.030 A 
BRANCH  36  39
HETATM   39  C   UNL     1      44.394 -10.281   9.857  1.00  0.00     0.293 C 
HETATM   40  O   UNL     1      45.287  -9.520  10.191  1.00  0.00    -0.259 OA
BRANCH  39  41
HETATM   41  O   UNL     1      43.806 -11.218  10.641  1.00  0.00    -0.318 OA
BRANCH  41  42
HETATM   42  C   UNL     1      43.545 -10.813  11.995  1.00  0.00     0.174 C 
HETATM   43  C   UNL     1      42.314  -9.929  12.053  1.00  0.00     0.034 C 
ENDBRANCH  41  42
ENDBRANCH  39  41
ENDBRANCH  36  39
ENDBRANCH  30  33
ENDBRANCH   1  29
TORSDOF 9
ENDMDL
MODEL 7
REMARK VINA RESULT:      -8.7      2.615      6.185
REMARK  9 active torsions:
REMARK  status: ('A' for Active; 'I' for Inactive)
REMARK    1  A    between atoms: C_2  and  O_3 
REMARK    2  A    between atoms: O_3  and  C_4 
REMARK    3  A    between atoms: C_4  and  C_5 
REMARK    4  A    between atoms: C_8  and  N_9 
REMARK       I    between atoms: N_9  and  C_10 
REMARK    5  A    between atoms: C_10  and  C_11 
REMARK    6  A    between atoms: C_13  and  N_14 
REMARK    7  A    between atoms: N_17  and  C_19 
REMARK    8  A    between atoms: C_19  and  C_20 
REMARK    9  A    between atoms: C_19  and  C_26 
ROOT
HETATM    1  C   UNL     1      39.212 -12.784   0.446  1.00  0.00     0.164 C 
HETATM    2  N   UNL     1      39.807 -11.930   1.489  1.00  0.00    -0.249 NA
HETATM    3  C   UNL     1      40.187 -10.658   1.212  1.00  0.00     0.181 C 
HETATM    4  N   UNL     1      39.832 -10.000   0.159  1.00  0.00    -0.185 NA
HETATM    5  C   UNL     1      39.043 -10.682  -0.736  1.00  0.00     0.247 C 
HETATM    6  O   UNL     1      38.173 -10.138  -1.406  1.00  0.00    -0.271 OA
HETATM    7  C   UNL     1      39.360 -12.141  -0.913  1.00  0.00     0.134 C 
HETATM    8  H   UNL     1      40.538 -12.463   1.974  1.00  0.00     0.131 HD
ENDROOT
BRANCH   3   9
HETATM    9  N   UNL     1      41.034 -10.128   2.160  1.00  0.00    -0.353 N 
HETATM   10  C   UNL     1      42.419 -10.616   2.324  1.00  0.00     0.153 C 
HETATM   11  C   UNL     1      42.491 -11.634   3.479  1.00  0.00     0.256 C 
HETATM   12  N   UNL     1      41.987 -10.968   4.760  1.00  0.00    -0.056 N 
HETATM   13  H   UNL     1      42.490 -10.085   4.873  1.00  0.00     0.281 HD
HETATM   14  C   UNL     1      40.522 -10.558   4.558  1.00  0.00     0.256 C 
HETATM   15  C   UNL     1      40.450  -9.551   3.391  1.00  0.00     0.153 C 
BRANCH  12  16
HETATM   16  C   UNL     1      42.260 -11.729   6.052  1.00  0.00     0.254 C 
BRANCH  16  17
HETATM   17  C   UNL     1      42.091 -13.237   5.894  1.00  0.00    -0.023 A 
HETATM   18  C   UNL     1      43.194 -14.104   5.790  1.00  0.00     0.009 A 
HETATM   19  C   UNL     1      43.009 -15.479   5.641  1.00  0.00     0.001 A 
HETATM   20  C   UNL     1      41.723 -16.010   5.596  1.00  0.00     0.000 A 
HETATM   21  C   UNL     1      40.618 -15.170   5.702  1.00  0.00     0.001 A 
HETATM   22  C   UNL     1      40.798 -13.794   5.850  1.00  0.00     0.009 A 
ENDBRANCH  16  17
BRANCH  16  23
HETATM   23  C   UNL     1      43.541 -11.300   6.794  1.00  0.00    -0.023 A 
HETATM   24  C   UNL     1      43.556 -10.841   8.126  1.00  0.00     0.009 A 
HETATM   25  C   UNL     1      44.754 -10.493   8.760  1.00  0.00     0.001 A 
HETATM   26  C   UNL     1      45.965 -10.614   8.088  1.00  0.00     0.000 A 
HETATM   27  C   UNL     1      45.983 -11.094   6.784  1.00  0.00     0.001 A 
HETATM   28  C   UNL     1      44.787 -11.444   6.149  1.00  0.00     0.009 A 
ENDBRANCH  16  23
ENDBRANCH  12  16
ENDBRANCH   3   9
BRANCH   1  29
HETATM   29  C   UNL     1      39.939 -14.146   0.518  1.00  0.00     0.240 C 
HETATM   30  N   UNL     1      40.754 -14.325   1.618  1.00  0.00    -0.326 N 
HETATM   31  H   UNL     1      40.786 -13.590   2.316  1.00  0.00     0.169 HD
HETATM   32  O   UNL     1      39.773 -14.950  -0.404  1.00  0.00    -0.271 OA
BRANCH  30  33
HETATM   33  C   UNL     1      41.588 -15.440   1.875  1.00  0.00     0.034 A 
HETATM   34  C   UNL     1      42.984 -15.383   1.885  1.00  0.00     0.030 A 
HETATM   35  C   UNL     1      43.744 -16.522   2.173  1.00  0.00     0.020 A 
HETATM   36  C   UNL     1      43.122 -17.742   2.452  1.00  0.00     0.039 A 
HETATM   37  C   UNL     1      41.725 -17.809   2.436  1.00  0.00     0.020 A 
HETATM   38  C   UNL     1      40.966 -16.664   2.151  1.00  0.00     0.030 A 
BRANCH  36  39
HETATM   39  C   UNL     1      43.990 -18.910   2.765  1.00  0.00     0.293 C 
HETATM   40  O   UNL     1      44.016 -19.923   2.087  1.00  0.00    -0.259 OA
BRANCH  39  41
HETATM   41  O   UNL     1      44.720 -18.677   3.884  1.00  0.00    -0.318 OA
BRANCH  41  42
HETATM   42  C   UNL     1      44.062 -18.983   5.124  1.00  0.00     0.174 C 
HETATM   43  C   UNL     1      44.021 -20.482   5.343  1.00  0.00     0.034 C 
ENDBRANCH  41  42
ENDBRANCH  39  41
ENDBRANCH  36  39
ENDBRANCH  30  33
ENDBRANCH   1  29
TORSDOF 9
ENDMDL
MODEL 8
REMARK VINA RESULT:      -8.2      2.836      6.342
REMARK  9 active torsions:
REMARK  status: ('A' for Active; 'I' for Inactive)
REMARK    1  A    between atoms: C_2  and  O_3 
REMARK    2  A    between atoms: O_3  and  C_4 
REMARK    3  A    between atoms: C_4  and  C_5 
REMARK    4  A    between atoms: C_8  and  N_9 
REMARK       I    between atoms: N_9  and  C_10 
REMARK    5  A    between atoms: C_10  and  C_11 
REMARK    6  A    between atoms: C_13  and  N_14 
REMARK    7  A    between atoms: N_17  and  C_19 
REMARK    8  A    between atoms: C_19  and  C_20 
REMARK    9  A    between atoms: C_19  and  C_26 
ROOT
HETATM    1  C   UNL     1      39.231 -13.460  -0.984  1.00  0.00     0.164 C 
HETATM    2  N   UNL     1      38.729 -12.457  -0.029  1.00  0.00    -0.249 NA
HETATM    3  C   UNL     1      39.058 -11.147  -0.161  1.00  0.00     0.181 C 
HETATM    4  N   UNL     1      39.572 -10.625  -1.225  1.00  0.00    -0.185 NA
HETATM    5  C   UNL     1      39.820 -11.494  -2.259  1.00  0.00     0.247 C 
HETATM    6  O   UNL     1      39.725 -11.171  -3.438  1.00  0.00    -0.271 OA
HETATM    7  C   UNL     1      40.301 -12.863  -1.867  1.00  0.00     0.134 C 
HETATM    8  H   UNL     1      38.876 -12.806   0.924  1.00  0.00     0.131 HD
ENDROOT
BRANCH   3   9
HETATM    9  N   UNL     1      38.820 -10.412   0.979  1.00  0.00    -0.353 N 
HETATM   10  C   UNL     1      39.549  -9.159   1.262  1.00  0.00     0.153 C 
HETATM   11  C   UNL     1      40.724  -9.430   2.222  1.00  0.00     0.256 C 
HETATM   12  N   UNL     1      40.178 -10.051   3.509  1.00  0.00    -0.056 N 
HETATM   13  H   UNL     1      39.417  -9.458   3.845  1.00  0.00     0.281 HD
HETATM   14  C   UNL     1      39.506 -11.388   3.165  1.00  0.00     0.256 C 
HETATM   15  C   UNL     1      38.341 -11.116   2.190  1.00  0.00     0.153 C 
BRANCH  12  16
HETATM   16  C   UNL     1      41.155 -10.115   4.677  1.00  0.00     0.254 C 
BRANCH  16  17
HETATM   17  C   UNL     1      40.723  -9.245   5.854  1.00  0.00    -0.023 A 
HETATM   18  C   UNL     1      39.406  -8.769   5.984  1.00  0.00     0.009 A 
HETATM   19  C   UNL     1      39.040  -7.972   7.068  1.00  0.00     0.001 A 
HETATM   20  C   UNL     1      39.980  -7.639   8.040  1.00  0.00     0.000 A 
HETATM   21  C   UNL     1      41.288  -8.105   7.932  1.00  0.00     0.001 A 
HETATM   22  C   UNL     1      41.658  -8.902   6.849  1.00  0.00     0.009 A 
ENDBRANCH  16  17
BRANCH  16  23
HETATM   23  C   UNL     1      41.607 -11.538   5.061  1.00  0.00    -0.023 A 
HETATM   24  C   UNL     1      40.881 -12.384   5.922  1.00  0.00     0.009 A 
HETATM   25  C   UNL     1      41.325 -13.679   6.211  1.00  0.00     0.001 A 
HETATM   26  C   UNL     1      42.491 -14.166   5.633  1.00  0.00     0.000 A 
HETATM   27  C   UNL     1      43.211 -13.365   4.755  1.00  0.00     0.001 A 
HETATM   28  C   UNL     1      42.769 -12.071   4.464  1.00  0.00     0.009 A 
ENDBRANCH  16  23
ENDBRANCH  12  16
ENDBRANCH   3   9
BRANCH   1  29
HETATM   29  C   UNL     1      39.773 -14.640  -0.144  1.00  0.00     0.240 C 
HETATM   30  N   UNL     1      40.715 -14.305   0.809  1.00  0.00    -0.326 N 
HETATM   31  H   UNL     1      40.950 -13.327   0.928  1.00  0.00     0.169 HD
HETATM   32  O   UNL     1      39.364 -15.777  -0.396  1.00  0.00    -0.271 OA
BRANCH  30  33
HETATM   33  C   UNL     1      41.423 -15.203   1.644  1.00  0.00     0.034 A 
HETATM   34  C   UNL     1      40.858 -15.853   2.745  1.00  0.00     0.030 A 
HETATM   35  C   UNL     1      41.612 -16.748   3.511  1.00  0.00     0.020 A 
HETATM   36  C   UNL     1      42.949 -17.007   3.194  1.00  0.00     0.039 A 
HETATM   37  C   UNL     1      43.523 -16.353   2.099  1.00  0.00     0.020 A 
HETATM   38  C   UNL     1      42.763 -15.460   1.331  1.00  0.00     0.030 A 
BRANCH  36  39
HETATM   39  C   UNL     1      43.688 -17.982   4.041  1.00  0.00     0.293 C 
HETATM   40  O   UNL     1      43.632 -17.985   5.260  1.00  0.00    -0.259 OA
BRANCH  39  41
HETATM   41  O   UNL     1      44.408 -18.835   3.271  1.00  0.00    -0.318 OA
BRANCH  41  42
HETATM   42  C   UNL     1      43.846 -20.149   3.119  1.00  0.00     0.174 C 
HETATM   43  C   UNL     1      43.152 -20.273   1.777  1.00  0.00     0.034 C 
ENDBRANCH  41  42
ENDBRANCH  39  41
ENDBRANCH  36  39
ENDBRANCH  30  33
ENDBRANCH   1  29
TORSDOF 9
ENDMDL
MODEL 9
REMARK VINA RESULT:      -8.1      4.476      8.514
REMARK  9 active torsions:
REMARK  status: ('A' for Active; 'I' for Inactive)
REMARK    1  A    between atoms: C_2  and  O_3 
REMARK    2  A    between atoms: O_3  and  C_4 
REMARK    3  A    between atoms: C_4  and  C_5 
REMARK    4  A    between atoms: C_8  and  N_9 
REMARK       I    between atoms: N_9  and  C_10 
REMARK    5  A    between atoms: C_10  and  C_11 
REMARK    6  A    between atoms: C_13  and  N_14 
REMARK    7  A    between atoms: N_17  and  C_19 
REMARK    8  A    between atoms: C_19  and  C_20 
REMARK    9  A    between atoms: C_19  and  C_26 
ROOT
HETATM    1  C   UNL     1      44.379 -10.492   9.069  1.00  0.00     0.164 C 
HETATM    2  N   UNL     1      43.317 -10.992   8.179  1.00  0.00    -0.249 NA
HETATM    3  C   UNL     1      43.506 -11.052   6.837  1.00  0.00     0.181 C 
HETATM    4  N   UNL     1      44.655 -10.958   6.255  1.00  0.00    -0.185 NA
HETATM    5  C   UNL     1      45.732 -10.748   7.083  1.00  0.00     0.247 C 
HETATM    6  O   UNL     1      46.847 -11.202   6.853  1.00  0.00    -0.271 OA
HETATM    7  C   UNL     1      45.487  -9.853   8.265  1.00  0.00     0.134 C 
HETATM    8  H   UNL     1      42.433 -10.537   8.432  1.00  0.00     0.131 HD
ENDROOT
BRANCH   3   9
HETATM    9  N   UNL     1      42.332 -11.191   6.131  1.00  0.00    -0.353 N 
HETATM   10  C   UNL     1      41.654 -12.497   6.002  1.00  0.00     0.153 C 
HETATM   11  C   UNL     1      42.016 -13.155   4.655  1.00  0.00     0.256 C 
HETATM   12  N   UNL     1      41.615 -12.213   3.520  1.00  0.00    -0.056 N 
HETATM   13  H   UNL     1      40.641 -11.939   3.668  1.00  0.00     0.281 HD
HETATM   14  C   UNL     1      42.411 -10.907   3.658  1.00  0.00     0.256 C 
HETATM   15  C   UNL     1      42.060 -10.259   5.014  1.00  0.00     0.153 C 
BRANCH  12  16
HETATM   16  C   UNL     1      41.631 -12.819   2.121  1.00  0.00     0.254 C 
BRANCH  16  17
HETATM   17  C   UNL     1      41.958 -14.309   2.130  1.00  0.00    -0.023 A 
HETATM   18  C   UNL     1      40.994 -15.280   2.457  1.00  0.00     0.009 A 
HETATM   19  C   UNL     1      41.322 -16.637   2.461  1.00  0.00     0.001 A 
HETATM   20  C   UNL     1      42.613 -17.045   2.137  1.00  0.00     0.000 A 
HETATM   21  C   UNL     1      43.580 -16.099   1.806  1.00  0.00     0.001 A 
HETATM   22  C   UNL     1      43.257 -14.742   1.801  1.00  0.00     0.009 A 
ENDBRANCH  16  17
BRANCH  16  23
HETATM   23  C   UNL     1      40.431 -12.428   1.236  1.00  0.00    -0.023 A 
HETATM   24  C   UNL     1      40.387 -12.636  -0.157  1.00  0.00     0.009 A 
HETATM   25  C   UNL     1      39.257 -12.289  -0.906  1.00  0.00     0.001 A 
HETATM   26  C   UNL     1      38.141 -11.745  -0.282  1.00  0.00     0.000 A 
HETATM   27  C   UNL     1      38.145 -11.558   1.095  1.00  0.00     0.001 A 
HETATM   28  C   UNL     1      39.272 -11.906   1.846  1.00  0.00     0.009 A 
ENDBRANCH  16  23
ENDBRANCH  12  16
ENDBRANCH   3   9
BRANCH   1  29
HETATM   29  C   UNL     1      43.713  -9.481  10.031  1.00  0.00     0.240 C 
HETATM   30  N   UNL     1      43.793  -9.799  11.372  1.00  0.00    -0.326 N 
HETATM   31  H   UNL     1      44.311 -10.628  11.638  1.00  0.00     0.169 HD
HETATM   32  O   UNL     1      43.141  -8.500   9.548  1.00  0.00    -0.271 OA
BRANCH  30  33
HETATM   33  C   UNL     1      43.197  -9.089  12.442  1.00  0.00     0.034 A 
HETATM   34  C   UNL     1      43.621  -7.829  12.873  1.00  0.00     0.030 A 
HETATM   35  C   UNL     1      42.967  -7.175  13.923  1.00  0.00     0.020 A 
HETATM   36  C   UNL     1      41.878  -7.770  14.565  1.00  0.00     0.039 A 
HETATM   37  C   UNL     1      41.453  -9.034  14.145  1.00  0.00     0.020 A 
HETATM   38  C   UNL     1      42.108  -9.686  13.090  1.00  0.00     0.030 A 
BRANCH  36  39
HETATM   39  C   UNL     1      41.218  -7.012  15.663  1.00  0.00     0.293 C 
HETATM   40  O   UNL     1      41.820  -6.584  16.634  1.00  0.00    -0.259 OA
BRANCH  39  41
HETATM   41  O   UNL     1      39.891  -6.877  15.421  1.00  0.00    -0.318 OA
BRANCH  41  42
HETATM   42  C   UNL     1      39.532  -5.803  14.537  1.00  0.00     0.174 C 
HETATM   43  C   UNL     1      38.148  -6.033  13.962  1.00  0.00     0.034 C 
ENDBRANCH  41  42
ENDBRANCH  39  41
ENDBRANCH  36  39
ENDBRANCH  30  33
ENDBRANCH   1  29
TORSDOF 9
ENDMDL
MODEL 10
REMARK VINA RESULT:      -8.1      2.880      7.442
REMARK  9 active torsions:
REMARK  status: ('A' for Active; 'I' for Inactive)
REMARK    1  A    between atoms: C_2  and  O_3 
REMARK    2  A    between atoms: O_3  and  C_4 
REMARK    3  A    between atoms: C_4  and  C_5 
REMARK    4  A    between atoms: C_8  and  N_9 
REMARK       I    between atoms: N_9  and  C_10 
REMARK    5  A    between atoms: C_10  and  C_11 
REMARK    6  A    between atoms: C_13  and  N_14 
REMARK    7  A    between atoms: N_17  and  C_19 
REMARK    8  A    between atoms: C_19  and  C_20 
REMARK    9  A    between atoms: C_19  and  C_26 
ROOT
HETATM    1  C   UNL     1      40.002 -11.047   2.790  1.00  0.00     0.164 C 
HETATM    2  N   UNL     1      39.676 -10.226   3.969  1.00  0.00    -0.249 NA
HETATM    3  C   UNL     1      40.258  -9.014   4.154  1.00  0.00     0.181 C 
HETATM    4  N   UNL     1      40.896  -8.361   3.241  1.00  0.00    -0.185 NA
HETATM    5  C   UNL     1      41.003  -8.985   2.021  1.00  0.00     0.247 C 
HETATM    6  O   UNL     1      41.009  -8.374   0.959  1.00  0.00    -0.271 OA
HETATM    7  C   UNL     1      41.195 -10.476   2.060  1.00  0.00     0.134 C 
HETATM    8  H   UNL     1      39.723 -10.817   4.806  1.00  0.00     0.131 HD
ENDROOT
BRANCH   3   9
HETATM    9  N   UNL     1      40.133  -8.546   5.443  1.00  0.00    -0.353 N 
HETATM   10  C   UNL     1      41.031  -7.505   5.982  1.00  0.00     0.153 C 
HETATM   11  C   UNL     1      42.163  -8.151   6.806  1.00  0.00     0.256 C 
HETATM   12  N   UNL     1      41.544  -8.981   7.932  1.00  0.00    -0.056 N 
HETATM   13  H   UNL     1      40.875  -8.388   8.427  1.00  0.00     0.281 HD
HETATM   14  C   UNL     1      40.690 -10.095   7.311  1.00  0.00     0.256 C 
HETATM   15  C   UNL     1      39.568  -9.446   6.474  1.00  0.00     0.153 C 
BRANCH  12  16
HETATM   16  C   UNL     1      42.510  -9.451   9.013  1.00  0.00     0.254 C 
BRANCH  16  17
HETATM   17  C   UNL     1      43.871  -9.852   8.452  1.00  0.00    -0.023 A 
HETATM   18  C   UNL     1      44.074 -11.082   7.802  1.00  0.00     0.009 A 
HETATM   19  C   UNL     1      45.331 -11.426   7.302  1.00  0.00     0.001 A 
HETATM   20  C   UNL     1      46.402 -10.547   7.441  1.00  0.00     0.000 A 
HETATM   21  C   UNL     1      46.220  -9.323   8.079  1.00  0.00     0.001 A 
HETATM   22  C   UNL     1      44.965  -8.976   8.580  1.00  0.00     0.009 A 
ENDBRANCH  16  17
BRANCH  16  23
HETATM   23  C   UNL     1      42.569  -8.548  10.261  1.00  0.00    -0.023 A 
HETATM   24  C   UNL     1      42.107  -7.217  10.285  1.00  0.00     0.009 A 
HETATM   25  C   UNL     1      42.158  -6.452  11.456  1.00  0.00     0.001 A 
HETATM   26  C   UNL     1      42.651  -7.004  12.633  1.00  0.00     0.000 A 
HETATM   27  C   UNL     1      43.085  -8.324  12.646  1.00  0.00     0.001 A 
HETATM   28  C   UNL     1      43.034  -9.090  11.477  1.00  0.00     0.009 A 
ENDBRANCH  16  23
ENDBRANCH  12  16
ENDBRANCH   3   9
BRANCH   1  29
HETATM   29  C   UNL     1      40.277 -12.477   3.306  1.00  0.00     0.240 C 
HETATM   30  N   UNL     1      41.603 -12.866   3.297  1.00  0.00    -0.326 N 
HETATM   31  H   UNL     1      42.298 -12.189   3.005  1.00  0.00     0.169 HD
HETATM   32  O   UNL     1      39.318 -13.171   3.654  1.00  0.00    -0.271 OA
BRANCH  30  33
HETATM   33  C   UNL     1      42.108 -14.144   3.638  1.00  0.00     0.034 A 
HETATM   34  C   UNL     1      41.985 -15.273   2.823  1.00  0.00     0.030 A 
HETATM   35  C   UNL     1      42.532 -16.500   3.215  1.00  0.00     0.020 A 
HETATM   36  C   UNL     1      43.209 -16.623   4.431  1.00  0.00     0.039 A 
HETATM   37  C   UNL     1      43.329 -15.498   5.255  1.00  0.00     0.020 A 
HETATM   38  C   UNL     1      42.783 -14.270   4.858  1.00  0.00     0.030 A 
BRANCH  36  39
HETATM   39  C   UNL     1      43.781 -17.952   4.778  1.00  0.00     0.293 C 
HETATM   40  O   UNL     1      43.731 -18.427   5.901  1.00  0.00    -0.259 OA
BRANCH  39  41
HETATM   41  O   UNL     1      44.343 -18.530   3.689  1.00  0.00    -0.318 OA
BRANCH  41  42
HETATM   42  C   UNL     1      43.969 -19.897   3.454  1.00  0.00     0.174 C 
HETATM   43  C   UNL     1      43.344 -20.045   2.080  1.00  0.00     0.034 C 
ENDBRANCH  41  42
ENDBRANCH  39  41
ENDBRANCH  36  39
ENDBRANCH  30  33
ENDBRANCH   1  29
TORSDOF 9
ENDMDL
