MODEL 1
REMARK VINA RESULT:      -7.8      0.000      0.000
REMARK  9 active torsions:
REMARK  status: ('A' for Active; 'I' for Inactive)
REMARK    1  A    between atoms: C_2  and  C_3 
REMARK    2  A    between atoms: C_7  and  C_8 
REMARK    3  A    between atoms: C_8  and  C_9 
REMARK       I    between atoms: C_9  and  N_10 
REMARK    4  A    between atoms: N_10  and  C_11 
REMARK    5  A    between atoms: C_11  and  C_12 
REMARK    6  A    between atoms: C_12  and  C_13 
REMARK    7  A    between atoms: C_21  and  C_22 
REMARK    8  A    between atoms: C_32  and  C_33 
REMARK    9  A    between atoms: C_33  and  O_34 
ROOT
HETATM    1  C   UNL     1      39.462 -12.512   4.987  1.00  0.00     0.051 C 
HETATM    2  N   UNL     1      39.140 -11.772   3.837  1.00  0.00    -0.228 NA
HETATM    3  C   UNL     1      40.052 -11.739   2.920  1.00  0.00     0.170 C 
HETATM    4  N   UNL     1      41.297 -12.689   2.943  1.00  0.00    -0.318 N 
HETATM    5  C   UNL     1      42.353 -11.964   2.740  1.00  0.00     0.011 C 
HETATM    6  C   UNL     1      40.837 -13.949   3.573  1.00  0.00     0.166 C 
HETATM    7  S   UNL     1      40.270 -10.479   1.769  1.00  0.00    -0.086 SA
HETATM    8  C   UNL     1      42.081 -10.649   2.012  1.00  0.00     0.135 C 
HETATM    9  C   UNL     1      40.361 -13.529   4.930  1.00  0.00     0.069 C 
ENDROOT
BRANCH   5  10
HETATM   10  C   UNL     1      43.640 -12.276   3.453  1.00  0.00     0.156 C 
BRANCH  10  11
HETATM   11  C   UNL     1      44.012 -11.419   4.643  1.00  0.00     0.222 C 
HETATM   12  N   UNL     1      42.923 -10.841   5.261  1.00  0.00    -0.361 N 
HETATM   13  H   UNL     1      41.997 -10.997   4.865  1.00  0.00     0.162 HD
HETATM   14  O   UNL     1      45.167 -11.227   5.014  1.00  0.00    -0.273 OA
BRANCH  12  15
HETATM   15  C   UNL     1      43.045  -9.698   6.150  1.00  0.00     0.124 C 
BRANCH  15  16
HETATM   16  C   UNL     1      42.488  -9.904   7.561  1.00  0.00     0.053 C 
BRANCH  16  17
HETATM   17  C   UNL     1      43.358  -9.394   8.703  1.00  0.00     0.189 C 
HETATM   18  N   UNL     1      42.625  -8.692   9.828  1.00  0.00    -0.071 N 
HETATM   19  H   UNL     1      42.451  -7.721   9.507  1.00  0.00     0.279 HD
HETATM   20  C   UNL     1      41.314  -9.280  10.281  1.00  0.00     0.270 C 
HETATM   21  C   UNL     1      43.621  -8.656  10.984  1.00  0.00     0.235 C 
HETATM   22  C   UNL     1      44.681  -9.698  10.644  1.00  0.00     0.030 C 
HETATM   23  C   UNL     1      44.148 -10.461   9.442  1.00  0.00     0.035 C 
ENDBRANCH  16  17
ENDBRANCH  15  16
ENDBRANCH  12  15
ENDBRANCH  10  11
ENDBRANCH   5  10
BRANCH   6  24
HETATM   24  C   UNL     1      41.601 -15.254   3.338  1.00  0.00    -0.024 C 
HETATM   25  C   UNL     1      41.162 -16.210   2.381  1.00  0.00    -0.053 C 
HETATM   26  C   UNL     1      39.962 -16.045   1.479  1.00  0.00     0.049 C 
HETATM   27  C   UNL     1      41.894 -17.400   2.183  1.00  0.00     0.014 C 
HETATM   28  C   UNL     1      43.101 -17.638   2.835  1.00  0.00    -0.061 C 
HETATM   29  C   UNL     1      43.893 -18.878   2.541  1.00  0.00     0.048 C 
HETATM   30  C   UNL     1      43.606 -16.646   3.667  1.00  0.00     0.007 C 
HETATM   31  C   UNL     1      42.879 -15.472   3.898  1.00  0.00     0.011 C 
ENDBRANCH   6  24
BRANCH   9  32
HETATM   32  C   UNL     1      41.190 -13.917   6.077  1.00  0.00     0.293 C 
HETATM   33  O   UNL     1      42.181 -13.256   6.354  1.00  0.00    -0.259 OA
BRANCH  32  34
HETATM   34  O   UNL     1      40.735 -15.022   6.687  1.00  0.00    -0.323 OA
HETATM   35  C   UNL     1      41.764 -15.932   7.093  1.00  0.00     0.213 C 
ENDBRANCH  32  34
ENDBRANCH   9  32
BRANCH   1  36
HETATM   36  C   UNL     1      38.888 -11.917   6.262  1.00  0.00     0.056 C 
HETATM   37  C   UNL     1      38.856 -10.395   6.228  1.00  0.00     0.011 C 
ENDBRANCH   1  36
TORSDOF 9
ENDMDL
MODEL 2
REMARK VINA RESULT:      -7.5      2.117      3.522
REMARK  9 active torsions:
REMARK  status: ('A' for Active; 'I' for Inactive)
REMARK    1  A    between atoms: C_2  and  C_3 
REMARK    2  A    between atoms: C_7  and  C_8 
REMARK    3  A    between atoms: C_8  and  C_9 
REMARK       I    between atoms: C_9  and  N_10 
REMARK    4  A    between atoms: N_10  and  C_11 
REMARK    5  A    between atoms: C_11  and  C_12 
REMARK    6  A    between atoms: C_12  and  C_13 
REMARK    7  A    between atoms: C_21  and  C_22 
REMARK    8  A    between atoms: C_32  and  C_33 
REMARK    9  A    between atoms: C_33  and  O_34 
ROOT
HETATM    1  C   UNL     1      40.769 -14.781   5.745  1.00  0.00     0.051 C 
HETATM    2  N   UNL     1      39.973 -13.790   6.341  1.00  0.00    -0.228 NA
HETATM    3  C   UNL     1      39.969 -12.643   5.743  1.00  0.00     0.170 C 
HETATM    4  N   UNL     1      40.555 -12.447   4.303  1.00  0.00    -0.318 N 
HETATM    5  C   UNL     1      41.331 -11.407   4.329  1.00  0.00     0.011 C 
HETATM    6  C   UNL     1      40.323 -13.725   3.590  1.00  0.00     0.166 C 
HETATM    7  S   UNL     1      39.682 -11.121   6.493  1.00  0.00    -0.086 SA
HETATM    8  C   UNL     1      41.018 -10.419   5.451  1.00  0.00     0.135 C 
HETATM    9  C   UNL     1      41.049 -14.743   4.416  1.00  0.00     0.069 C 
ENDROOT
BRANCH   5  10
HETATM   10  C   UNL     1      42.597 -11.381   3.517  1.00  0.00     0.156 C 
BRANCH  10  11
HETATM   11  C   UNL     1      43.908 -11.548   4.254  1.00  0.00     0.222 C 
HETATM   12  N   UNL     1      43.763 -12.088   5.514  1.00  0.00    -0.361 N 
HETATM   13  H   UNL     1      42.823 -12.288   5.854  1.00  0.00     0.162 HD
HETATM   14  O   UNL     1      44.998 -11.214   3.794  1.00  0.00    -0.273 OA
BRANCH  12  15
HETATM   15  C   UNL     1      44.792 -11.981   6.534  1.00  0.00     0.124 C 
BRANCH  15  16
HETATM   16  C   UNL     1      44.286 -11.667   7.944  1.00  0.00     0.053 C 
BRANCH  16  17
HETATM   17  C   UNL     1      43.866 -10.223   8.195  1.00  0.00     0.189 C 
HETATM   18  N   UNL     1      43.117  -9.971   9.488  1.00  0.00    -0.071 N 
HETATM   19  H   UNL     1      42.131 -10.243   9.314  1.00  0.00     0.279 HD
HETATM   20  C   UNL     1      43.593 -10.688  10.724  1.00  0.00     0.270 C 
HETATM   21  C   UNL     1      43.180  -8.460   9.689  1.00  0.00     0.235 C 
HETATM   22  C   UNL     1      44.306  -7.972   8.785  1.00  0.00     0.030 C 
HETATM   23  C   UNL     1      45.006  -9.222   8.277  1.00  0.00     0.035 C 
ENDBRANCH  16  17
ENDBRANCH  15  16
ENDBRANCH  12  15
ENDBRANCH  10  11
ENDBRANCH   5  10
BRANCH   6  24
HETATM   24  C   UNL     1      40.309 -13.766   2.061  1.00  0.00    -0.024 C 
HETATM   25  C   UNL     1      39.988 -14.956   1.352  1.00  0.00    -0.053 C 
HETATM   26  C   UNL     1      39.588 -16.264   1.992  1.00  0.00     0.049 C 
HETATM   27  C   UNL     1      39.976 -14.957  -0.059  1.00  0.00     0.014 C 
HETATM   28  C   UNL     1      40.183 -13.794  -0.797  1.00  0.00    -0.061 C 
HETATM   29  C   UNL     1      40.086 -13.817  -2.294  1.00  0.00     0.048 C 
HETATM   30  C   UNL     1      40.362 -12.601  -0.108  1.00  0.00     0.007 C 
HETATM   31  C   UNL     1      40.405 -12.586   1.291  1.00  0.00     0.011 C 
ENDBRANCH   6  24
BRANCH   9  32
HETATM   32  C   UNL     1      42.283 -15.302   3.851  1.00  0.00     0.293 C 
HETATM   33  O   UNL     1      42.459 -16.512   3.868  1.00  0.00    -0.259 OA
BRANCH  32  34
HETATM   34  O   UNL     1      43.109 -14.352   3.386  1.00  0.00    -0.323 OA
HETATM   35  C   UNL     1      43.593 -14.595   2.060  1.00  0.00     0.213 C 
ENDBRANCH  32  34
ENDBRANCH   9  32
BRANCH   1  36
HETATM   36  C   UNL     1      41.422 -15.711   6.754  1.00  0.00     0.056 C 
HETATM   37  C   UNL     1      42.681 -15.110   7.365  1.00  0.00     0.011 C 
ENDBRANCH   1  36
TORSDOF 9
ENDMDL
MODEL 3
REMARK VINA RESULT:      -7.5      2.121      5.389
REMARK  9 active torsions:
REMARK  status: ('A' for Active; 'I' for Inactive)
REMARK    1  A    between atoms: C_2  and  C_3 
REMARK    2  A    between atoms: C_7  and  C_8 
REMARK    3  A    between atoms: C_8  and  C_9 
REMARK       I    between atoms: C_9  and  N_10 
REMARK    4  A    between atoms: N_10  and  C_11 
REMARK    5  A    between atoms: C_11  and  C_12 
REMARK    6  A    between atoms: C_12  and  C_13 
REMARK    7  A    between atoms: C_21  and  C_22 
REMARK    8  A    between atoms: C_32  and  C_33 
REMARK    9  A    between atoms: C_33  and  O_34 
ROOT
HETATM    1  C   UNL     1      42.957 -13.872   3.514  1.00  0.00     0.051 C 
HETATM    2  N   UNL     1      42.510 -12.929   2.576  1.00  0.00    -0.228 NA
HETATM    3  C   UNL     1      41.925 -11.885   3.068  1.00  0.00     0.170 C 
HETATM    4  N   UNL     1      41.974 -11.540   4.595  1.00  0.00    -0.318 N 
HETATM    5  C   UNL     1      40.764 -11.275   4.981  1.00  0.00     0.011 C 
HETATM    6  C   UNL     1      43.284 -12.031   5.083  1.00  0.00     0.166 C 
HETATM    7  S   UNL     1      40.740 -10.928   2.267  1.00  0.00    -0.086 SA
HETATM    8  C   UNL     1      39.832 -10.824   3.858  1.00  0.00     0.135 C 
HETATM    9  C   UNL     1      43.259 -13.500   4.785  1.00  0.00     0.069 C 
ENDROOT
BRANCH   5  10
HETATM   10  C   UNL     1      40.290 -11.695   6.345  1.00  0.00     0.156 C 
BRANCH  10  11
HETATM   11  C   UNL     1      39.348 -10.766   7.079  1.00  0.00     0.222 C 
HETATM   12  N   UNL     1      39.997  -9.815   7.837  1.00  0.00    -0.361 N 
HETATM   13  H   UNL     1      41.016  -9.833   7.873  1.00  0.00     0.162 HD
HETATM   14  O   UNL     1      38.123 -10.859   7.035  1.00  0.00    -0.273 OA
BRANCH  12  15
HETATM   15  C   UNL     1      39.341  -9.085   8.908  1.00  0.00     0.124 C 
BRANCH  15  16
HETATM   16  C   UNL     1      39.332  -9.787  10.268  1.00  0.00     0.053 C 
BRANCH  16  17
HETATM   17  C   UNL     1      40.262  -9.203  11.325  1.00  0.00     0.189 C 
HETATM   18  N   UNL     1      39.904  -9.517  12.764  1.00  0.00    -0.071 N 
HETATM   19  H   UNL     1      39.155  -8.851  13.033  1.00  0.00     0.279 HD
HETATM   20  C   UNL     1      39.429 -10.911  13.077  1.00  0.00     0.270 C 
HETATM   21  C   UNL     1      41.162  -9.189  13.562  1.00  0.00     0.235 C 
HETATM   22  C   UNL     1      42.293  -9.135  12.541  1.00  0.00     0.030 C 
HETATM   23  C   UNL     1      41.708  -9.661  11.241  1.00  0.00     0.035 C 
ENDBRANCH  16  17
ENDBRANCH  15  16
ENDBRANCH  12  15
ENDBRANCH  10  11
ENDBRANCH   5  10
BRANCH   6  24
HETATM   24  C   UNL     1      43.893 -11.463   6.366  1.00  0.00    -0.024 C 
HETATM   25  C   UNL     1      45.296 -11.276   6.503  1.00  0.00    -0.053 C 
HETATM   26  C   UNL     1      46.317 -11.557   5.425  1.00  0.00     0.049 C 
HETATM   27  C   UNL     1      45.826 -10.741   7.697  1.00  0.00     0.014 C 
HETATM   28  C   UNL     1      45.005 -10.298   8.731  1.00  0.00    -0.061 C 
HETATM   29  C   UNL     1      45.599  -9.663   9.954  1.00  0.00     0.048 C 
HETATM   30  C   UNL     1      43.628 -10.352   8.548  1.00  0.00     0.007 C 
HETATM   31  C   UNL     1      43.086 -10.905   7.381  1.00  0.00     0.011 C 
ENDBRANCH   6  24
BRANCH   9  32
HETATM   32  C   UNL     1      43.126 -14.409   5.929  1.00  0.00     0.293 C 
HETATM   33  O   UNL     1      44.126 -14.927   6.407  1.00  0.00    -0.259 OA
BRANCH  32  34
HETATM   34  O   UNL     1      41.848 -14.577   6.304  1.00  0.00    -0.323 OA
HETATM   35  C   UNL     1      41.535 -15.906   6.735  1.00  0.00     0.213 C 
ENDBRANCH  32  34
ENDBRANCH   9  32
BRANCH   1  36
HETATM   36  C   UNL     1      42.845 -15.306   3.022  1.00  0.00     0.056 C 
HETATM   37  C   UNL     1      43.483 -15.499   1.653  1.00  0.00     0.011 C 
ENDBRANCH   1  36
TORSDOF 9
ENDMDL
MODEL 4
REMARK VINA RESULT:      -7.5      2.986      6.991
REMARK  9 active torsions:
REMARK  status: ('A' for Active; 'I' for Inactive)
REMARK    1  A    between atoms: C_2  and  C_3 
REMARK    2  A    between atoms: C_7  and  C_8 
REMARK    3  A    between atoms: C_8  and  C_9 
REMARK       I    between atoms: C_9  and  N_10 
REMARK    4  A    between atoms: N_10  and  C_11 
REMARK    5  A    between atoms: C_11  and  C_12 
REMARK    6  A    between atoms: C_12  and  C_13 
REMARK    7  A    between atoms: C_21  and  C_22 
REMARK    8  A    between atoms: C_32  and  C_33 
REMARK    9  A    between atoms: C_33  and  O_34 
ROOT
HETATM    1  C   UNL     1      41.997 -10.721   6.526  1.00  0.00     0.051 C 
HETATM    2  N   UNL     1      40.619 -10.475   6.427  1.00  0.00    -0.228 NA
HETATM    3  C   UNL     1      40.070 -10.819   5.307  1.00  0.00     0.170 C 
HETATM    4  N   UNL     1      40.806 -11.715   4.254  1.00  0.00    -0.318 N 
HETATM    5  C   UNL     1      40.680 -11.148   3.093  1.00  0.00     0.011 C 
HETATM    6  C   UNL     1      41.681 -12.624   5.031  1.00  0.00     0.166 C 
HETATM    7  S   UNL     1      38.662 -10.106   4.620  1.00  0.00    -0.086 SA
HETATM    8  C   UNL     1      39.479 -10.210   2.981  1.00  0.00     0.135 C 
HETATM    9  C   UNL     1      42.584 -11.702   5.792  1.00  0.00     0.069 C 
ENDROOT
BRANCH   5  10
HETATM   10  C   UNL     1      41.807 -11.191   2.098  1.00  0.00     0.156 C 
BRANCH  10  11
HETATM   11  C   UNL     1      41.594 -10.509   0.764  1.00  0.00     0.222 C 
HETATM   12  N   UNL     1      40.875 -11.273  -0.131  1.00  0.00    -0.361 N 
HETATM   13  H   UNL     1      40.588 -12.211   0.147  1.00  0.00     0.162 HD
HETATM   14  O   UNL     1      42.036  -9.397   0.486  1.00  0.00    -0.273 OA
BRANCH  12  15
HETATM   15  C   UNL     1      40.880 -11.013  -1.561  1.00  0.00     0.124 C 
BRANCH  15  16
HETATM   16  C   UNL     1      41.097 -12.241  -2.449  1.00  0.00     0.053 C 
BRANCH  16  17
HETATM   17  C   UNL     1      39.834 -12.923  -2.963  1.00  0.00     0.189 C 
HETATM   18  N   UNL     1      39.578 -14.319  -2.435  1.00  0.00    -0.071 N 
HETATM   19  H   UNL     1      40.170 -14.960  -2.996  1.00  0.00     0.279 HD
HETATM   20  C   UNL     1      39.854 -14.577  -0.977  1.00  0.00     0.270 C 
HETATM   21  C   UNL     1      38.112 -14.598  -2.757  1.00  0.00     0.235 C 
HETATM   22  C   UNL     1      37.488 -13.235  -3.037  1.00  0.00     0.030 C 
HETATM   23  C   UNL     1      38.534 -12.206  -2.641  1.00  0.00     0.035 C 
ENDBRANCH  16  17
ENDBRANCH  15  16
ENDBRANCH  12  15
ENDBRANCH  10  11
ENDBRANCH   5  10
BRANCH   6  24
HETATM   24  C   UNL     1      42.173 -13.935   4.416  1.00  0.00    -0.024 C 
HETATM   25  C   UNL     1      41.857 -15.194   4.998  1.00  0.00    -0.053 C 
HETATM   26  C   UNL     1      40.990 -15.390   6.219  1.00  0.00     0.049 C 
HETATM   27  C   UNL     1      42.320 -16.385   4.401  1.00  0.00     0.014 C 
HETATM   28  C   UNL     1      43.012 -16.381   3.192  1.00  0.00    -0.061 C 
HETATM   29  C   UNL     1      43.422 -17.673   2.546  1.00  0.00     0.048 C 
HETATM   30  C   UNL     1      43.205 -15.165   2.548  1.00  0.00     0.007 C 
HETATM   31  C   UNL     1      42.777 -13.970   3.141  1.00  0.00     0.011 C 
ENDBRANCH   6  24
BRANCH   9  32
HETATM   32  C   UNL     1      43.985 -11.636   5.360  1.00  0.00     0.293 C 
HETATM   33  O   UNL     1      44.260 -11.127   4.282  1.00  0.00    -0.259 OA
BRANCH  32  34
HETATM   34  O   UNL     1      44.822 -12.197   6.248  1.00  0.00    -0.323 OA
HETATM   35  C   UNL     1      45.890 -11.341   6.666  1.00  0.00     0.213 C 
ENDBRANCH  32  34
ENDBRANCH   9  32
BRANCH   1  36
HETATM   36  C   UNL     1      42.737  -9.668   7.335  1.00  0.00     0.056 C 
HETATM   37  C   UNL     1      42.122  -8.283   7.181  1.00  0.00     0.011 C 
ENDBRANCH   1  36
TORSDOF 9
ENDMDL
MODEL 5
REMARK VINA RESULT:      -7.3      3.543      8.026
REMARK  9 active torsions:
REMARK  status: ('A' for Active; 'I' for Inactive)
REMARK    1  A    between atoms: C_2  and  C_3 
REMARK    2  A    between atoms: C_7  and  C_8 
REMARK    3  A    between atoms: C_8  and  C_9 
REMARK       I    between atoms: C_9  and  N_10 
REMARK    4  A    between atoms: N_10  and  C_11 
REMARK    5  A    between atoms: C_11  and  C_12 
REMARK    6  A    between atoms: C_12  and  C_13 
REMARK    7  A    between atoms: C_21  and  C_22 
REMARK    8  A    between atoms: C_32  and  C_33 
REMARK    9  A    between atoms: C_33  and  O_34 
ROOT
HETATM    1  C   UNL     1      42.269  -7.223  11.512  1.00  0.00     0.051 C 
HETATM    2  N   UNL     1      41.565  -8.129  12.321  1.00  0.00    -0.228 NA
HETATM    3  C   UNL     1      41.034  -9.134  11.703  1.00  0.00     0.170 C 
HETATM    4  N   UNL     1      41.396  -9.490  10.221  1.00  0.00    -0.318 N 
HETATM    5  C   UNL     1      40.285  -9.675   9.575  1.00  0.00     0.011 C 
HETATM    6  C   UNL     1      42.811  -9.091  10.038  1.00  0.00     0.166 C 
HETATM    7  S   UNL     1      39.641 -10.004  12.214  1.00  0.00    -0.086 SA
HETATM    8  C   UNL     1      39.101 -10.057  10.462  1.00  0.00     0.135 C 
HETATM    9  C   UNL     1      42.819  -7.622  10.336  1.00  0.00     0.069 C 
ENDROOT
BRANCH   5  10
HETATM   10  C   UNL     1      40.152  -9.233   8.144  1.00  0.00     0.156 C 
BRANCH  10  11
HETATM   11  C   UNL     1      39.367 -10.120   7.203  1.00  0.00     0.222 C 
HETATM   12  N   UNL     1      39.877 -11.397   7.102  1.00  0.00    -0.361 N 
HETATM   13  H   UNL     1      40.728 -11.625   7.616  1.00  0.00     0.162 HD
HETATM   14  O   UNL     1      38.387  -9.743   6.566  1.00  0.00    -0.273 OA
BRANCH  12  15
HETATM   15  C   UNL     1      39.548 -12.286   6.001  1.00  0.00     0.124 C 
BRANCH  15  16
HETATM   16  C   UNL     1      40.746 -12.947   5.314  1.00  0.00     0.053 C 
BRANCH  16  17
HETATM   17  C   UNL     1      41.712 -13.691   6.228  1.00  0.00     0.189 C 
HETATM   18  N   UNL     1      41.242 -15.044   6.721  1.00  0.00    -0.071 N 
HETATM   19  H   UNL     1      40.605 -14.862   7.519  1.00  0.00     0.279 HD
HETATM   20  C   UNL     1      40.527 -15.936   5.741  1.00  0.00     0.270 C 
HETATM   21  C   UNL     1      42.501 -15.729   7.246  1.00  0.00     0.235 C 
HETATM   22  C   UNL     1      43.670 -14.958   6.642  1.00  0.00     0.030 C 
HETATM   23  C   UNL     1      43.063 -14.017   5.614  1.00  0.00     0.035 C 
ENDBRANCH  16  17
ENDBRANCH  15  16
ENDBRANCH  12  15
ENDBRANCH  10  11
ENDBRANCH   5  10
BRANCH   6  24
HETATM   24  C   UNL     1      43.648  -9.706   8.915  1.00  0.00    -0.024 C 
HETATM   25  C   UNL     1      44.999 -10.099   9.125  1.00  0.00    -0.053 C 
HETATM   26  C   UNL     1      45.733 -10.005  10.442  1.00  0.00     0.049 C 
HETATM   27  C   UNL     1      45.742 -10.671   8.071  1.00  0.00     0.014 C 
HETATM   28  C   UNL     1      45.165 -10.955   6.835  1.00  0.00    -0.061 C 
HETATM   29  C   UNL     1      45.963 -11.636   5.762  1.00  0.00     0.048 C 
HETATM   30  C   UNL     1      43.809 -10.701   6.668  1.00  0.00     0.007 C 
HETATM   31  C   UNL     1      43.064 -10.106   7.694  1.00  0.00     0.011 C 
ENDBRANCH   6  24
BRANCH   9  32
HETATM   32  C   UNL     1      43.002  -6.713   9.199  1.00  0.00     0.293 C 
HETATM   33  O   UNL     1      44.133  -6.399   8.854  1.00  0.00    -0.259 OA
BRANCH  32  34
HETATM   34  O   UNL     1      41.834  -6.307   8.674  1.00  0.00    -0.323 OA
HETATM   35  C   UNL     1      41.882  -6.060   7.264  1.00  0.00     0.213 C 
ENDBRANCH  32  34
ENDBRANCH   9  32
BRANCH   1  36
HETATM   36  C   UNL     1      42.148  -5.782  11.980  1.00  0.00     0.056 C 
HETATM   37  C   UNL     1      41.970  -5.677  13.489  1.00  0.00     0.011 C 
ENDBRANCH   1  36
TORSDOF 9
ENDMDL
MODEL 6
REMARK VINA RESULT:      -7.1      3.964      8.690
REMARK  9 active torsions:
REMARK  status: ('A' for Active; 'I' for Inactive)
REMARK    1  A    between atoms: C_2  and  C_3 
REMARK    2  A    between atoms: C_7  and  C_8 
REMARK    3  A    between atoms: C_8  and  C_9 
REMARK       I    between atoms: C_9  and  N_10 
REMARK    4  A    between atoms: N_10  and  C_11 
REMARK    5  A    between atoms: C_11  and  C_12 
REMARK    6  A    between atoms: C_12  and  C_13 
REMARK    7  A    between atoms: C_21  and  C_22 
REMARK    8  A    between atoms: C_32  and  C_33 
REMARK    9  A    between atoms: C_33  and  O_34 
ROOT
HETATM    1  C   UNL     1      40.905  -7.125  12.956  1.00  0.00     0.051 C 
HETATM    2  N   UNL     1      40.324  -8.302  13.454  1.00  0.00    -0.228 NA
HETATM    3  C   UNL     1      40.250  -9.286  12.618  1.00  0.00     0.170 C 
HETATM    4  N   UNL     1      41.016  -9.281  11.251  1.00  0.00    -0.318 N 
HETATM    5  C   UNL     1      40.176  -9.623  10.324  1.00  0.00     0.011 C 
HETATM    6  C   UNL     1      42.265  -8.519  11.485  1.00  0.00     0.166 C 
HETATM    7  S   UNL     1      39.082 -10.549  12.655  1.00  0.00    -0.086 SA
HETATM    8  C   UNL     1      38.982 -10.433  10.827  1.00  0.00     0.135 C 
HETATM    9  C   UNL     1      41.791  -7.168  11.928  1.00  0.00     0.069 C 
ENDROOT
BRANCH   5  10
HETATM   10  C   UNL     1      40.244  -8.988   8.962  1.00  0.00     0.156 C 
BRANCH  10  11
HETATM   11  C   UNL     1      39.479  -9.651   7.837  1.00  0.00     0.222 C 
HETATM   12  N   UNL     1      39.929 -10.921   7.543  1.00  0.00    -0.361 N 
HETATM   13  H   UNL     1      40.732 -11.285   8.056  1.00  0.00     0.162 HD
HETATM   14  O   UNL     1      38.563  -9.111   7.222  1.00  0.00    -0.273 OA
BRANCH  12  15
HETATM   15  C   UNL     1      39.630 -11.585   6.286  1.00  0.00     0.124 C 
BRANCH  15  16
HETATM   16  C   UNL     1      40.837 -12.184   5.558  1.00  0.00     0.053 C 
BRANCH  16  17
HETATM   17  C   UNL     1      42.205 -11.755   6.073  1.00  0.00     0.189 C 
HETATM   18  N   UNL     1      42.901 -12.738   6.993  1.00  0.00    -0.071 N 
HETATM   19  H   UNL     1      42.488 -12.603   7.935  1.00  0.00     0.279 HD
HETATM   20  C   UNL     1      42.814 -14.201   6.646  1.00  0.00     0.270 C 
HETATM   21  C   UNL     1      44.357 -12.282   7.025  1.00  0.00     0.235 C 
HETATM   22  C   UNL     1      44.528 -11.369   5.816  1.00  0.00     0.030 C 
HETATM   23  C   UNL     1      43.253 -11.512   5.000  1.00  0.00     0.035 C 
ENDBRANCH  16  17
ENDBRANCH  15  16
ENDBRANCH  12  15
ENDBRANCH  10  11
ENDBRANCH   5  10
BRANCH   6  24
HETATM   24  C   UNL     1      43.469  -8.705  10.561  1.00  0.00    -0.024 C 
HETATM   25  C   UNL     1      44.309  -9.849  10.656  1.00  0.00    -0.053 C 
HETATM   26  C   UNL     1      44.098 -11.001  11.610  1.00  0.00     0.049 C 
HETATM   27  C   UNL     1      45.407  -9.995   9.783  1.00  0.00     0.014 C 
HETATM   28  C   UNL     1      45.653  -9.090   8.753  1.00  0.00    -0.061 C 
HETATM   29  C   UNL     1      46.785  -9.318   7.794  1.00  0.00     0.048 C 
HETATM   30  C   UNL     1      44.757  -8.044   8.568  1.00  0.00     0.007 C 
HETATM   31  C   UNL     1      43.678  -7.868   9.444  1.00  0.00     0.011 C 
ENDBRANCH   6  24
BRANCH   9  32
HETATM   32  C   UNL     1      41.957  -6.060  10.980  1.00  0.00     0.293 C 
HETATM   33  O   UNL     1      42.938  -5.335  11.067  1.00  0.00    -0.259 OA
BRANCH  32  34
HETATM   34  O   UNL     1      40.939  -5.974  10.109  1.00  0.00    -0.323 OA
HETATM   35  C   UNL     1      41.281  -5.342   8.870  1.00  0.00     0.213 C 
ENDBRANCH  32  34
ENDBRANCH   9  32
BRANCH   1  36
HETATM   36  C   UNL     1      40.281  -5.862  13.525  1.00  0.00     0.056 C 
HETATM   37  C   UNL     1      38.769  -5.976  13.668  1.00  0.00     0.011 C 
ENDBRANCH   1  36
TORSDOF 9
ENDMDL
MODEL 7
REMARK VINA RESULT:      -6.9      5.883     10.519
REMARK  9 active torsions:
REMARK  status: ('A' for Active; 'I' for Inactive)
REMARK    1  A    between atoms: C_2  and  C_3 
REMARK    2  A    between atoms: C_7  and  C_8 
REMARK    3  A    between atoms: C_8  and  C_9 
REMARK       I    between atoms: C_9  and  N_10 
REMARK    4  A    between atoms: N_10  and  C_11 
REMARK    5  A    between atoms: C_11  and  C_12 
REMARK    6  A    between atoms: C_12  and  C_13 
REMARK    7  A    between atoms: C_21  and  C_22 
REMARK    8  A    between atoms: C_32  and  C_33 
REMARK    9  A    between atoms: C_33  and  O_34 
ROOT
HETATM    1  C   UNL     1      38.963  -5.941  15.502  1.00  0.00     0.051 C 
HETATM    2  N   UNL     1      37.820  -5.823  14.694  1.00  0.00    -0.228 NA
HETATM    3  C   UNL     1      38.038  -5.808  13.419  1.00  0.00     0.170 C 
HETATM    4  N   UNL     1      39.425  -6.193  12.801  1.00  0.00    -0.318 N 
HETATM    5  C   UNL     1      39.749  -5.272  11.947  1.00  0.00     0.011 C 
HETATM    6  C   UNL     1      40.002  -7.219  13.701  1.00  0.00     0.166 C 
HETATM    7  S   UNL     1      37.037  -5.053  12.240  1.00  0.00    -0.086 SA
HETATM    8  C   UNL     1      38.562  -4.487  11.391  1.00  0.00     0.135 C 
HETATM    9  C   UNL     1      40.090  -6.533  15.030  1.00  0.00     0.069 C 
ENDROOT
BRANCH   5  10
HETATM   10  C   UNL     1      41.182  -4.843  11.797  1.00  0.00     0.156 C 
BRANCH  10  11
HETATM   11  C   UNL     1      41.890  -5.192  10.505  1.00  0.00     0.222 C 
HETATM   12  N   UNL     1      41.204  -6.109   9.737  1.00  0.00    -0.361 N 
HETATM   13  H   UNL     1      40.331  -6.492  10.098  1.00  0.00     0.162 HD
HETATM   14  O   UNL     1      42.981  -4.733  10.177  1.00  0.00    -0.273 OA
BRANCH  12  15
HETATM   15  C   UNL     1      41.841  -6.877   8.680  1.00  0.00     0.124 C 
BRANCH  15  16
HETATM   16  C   UNL     1      41.614  -8.389   8.742  1.00  0.00     0.053 C 
BRANCH  16  17
HETATM   17  C   UNL     1      42.869  -9.253   8.737  1.00  0.00     0.189 C 
HETATM   18  N   UNL     1      42.895 -10.372   7.716  1.00  0.00    -0.071 N 
HETATM   19  H   UNL     1      42.342 -11.152   8.120  1.00  0.00     0.279 HD
HETATM   20  C   UNL     1      42.356 -10.076   6.341  1.00  0.00     0.270 C 
HETATM   21  C   UNL     1      44.358 -10.797   7.636  1.00  0.00     0.235 C 
HETATM   22  C   UNL     1      45.153  -9.649   8.249  1.00  0.00     0.030 C 
HETATM   23  C   UNL     1      44.163  -8.512   8.443  1.00  0.00     0.035 C 
ENDBRANCH  16  17
ENDBRANCH  15  16
ENDBRANCH  12  15
ENDBRANCH  10  11
ENDBRANCH   5  10
BRANCH   6  24
HETATM   24  C   UNL     1      41.086  -8.171  13.194  1.00  0.00    -0.024 C 
HETATM   25  C   UNL     1      40.794  -9.523  12.863  1.00  0.00    -0.053 C 
HETATM   26  C   UNL     1      39.422 -10.151  12.922  1.00  0.00     0.049 C 
HETATM   27  C   UNL     1      41.816 -10.372  12.389  1.00  0.00     0.014 C 
HETATM   28  C   UNL     1      43.105  -9.905  12.143  1.00  0.00    -0.061 C 
HETATM   29  C   UNL     1      44.147 -10.818  11.565  1.00  0.00     0.048 C 
HETATM   30  C   UNL     1      43.363  -8.553  12.334  1.00  0.00     0.007 C 
HETATM   31  C   UNL     1      42.368  -7.702  12.831  1.00  0.00     0.011 C 
ENDBRANCH   6  24
BRANCH   9  32
HETATM   32  C   UNL     1      41.431  -6.172  15.505  1.00  0.00     0.293 C 
HETATM   33  O   UNL     1      41.919  -5.100  15.174  1.00  0.00    -0.259 OA
BRANCH  32  34
HETATM   34  O   UNL     1      41.982  -7.132  16.264  1.00  0.00    -0.323 OA
HETATM   35  C   UNL     1      42.010  -6.828  17.663  1.00  0.00     0.213 C 
ENDBRANCH  32  34
ENDBRANCH   9  32
BRANCH   1  36
HETATM   36  C   UNL     1      38.856  -5.167  16.805  1.00  0.00     0.056 C 
HETATM   37  C   UNL     1      38.472  -3.710  16.584  1.00  0.00     0.011 C 
ENDBRANCH   1  36
TORSDOF 9
ENDMDL
MODEL 8
REMARK VINA RESULT:      -6.7      2.740      7.261
REMARK  9 active torsions:
REMARK  status: ('A' for Active; 'I' for Inactive)
REMARK    1  A    between atoms: C_2  and  C_3 
REMARK    2  A    between atoms: C_7  and  C_8 
REMARK    3  A    between atoms: C_8  and  C_9 
REMARK       I    between atoms: C_9  and  N_10 
REMARK    4  A    between atoms: N_10  and  C_11 
REMARK    5  A    between atoms: C_11  and  C_12 
REMARK    6  A    between atoms: C_12  and  C_13 
REMARK    7  A    between atoms: C_21  and  C_22 
REMARK    8  A    between atoms: C_32  and  C_33 
REMARK    9  A    between atoms: C_33  and  O_34 
ROOT
HETATM    1  C   UNL     1      40.845  -9.282   7.202  1.00  0.00     0.051 C 
HETATM    2  N   UNL     1      42.247  -9.261   7.279  1.00  0.00    -0.228 NA
HETATM    3  C   UNL     1      42.852 -10.262   6.726  1.00  0.00     0.170 C 
HETATM    4  N   UNL     1      42.112 -11.266   5.779  1.00  0.00    -0.318 N 
HETATM    5  C   UNL     1      42.414 -12.469   6.161  1.00  0.00     0.011 C 
HETATM    6  C   UNL     1      41.064 -10.480   5.087  1.00  0.00     0.166 C 
HETATM    7  S   UNL     1      44.394 -10.876   7.179  1.00  0.00    -0.086 SA
HETATM    8  C   UNL     1      43.727 -12.568   6.938  1.00  0.00     0.135 C 
HETATM    9  C   UNL     1      40.213  -9.945   6.199  1.00  0.00     0.069 C 
ENDROOT
BRANCH   5  10
HETATM   10  C   UNL     1      41.389 -13.567   6.105  1.00  0.00     0.156 C 
BRANCH  10  11
HETATM   11  C   UNL     1      41.888 -14.994   6.042  1.00  0.00     0.222 C 
HETATM   12  N   UNL     1      42.292 -15.377   4.780  1.00  0.00    -0.361 N 
HETATM   13  H   UNL     1      42.192 -14.712   4.013  1.00  0.00     0.162 HD
HETATM   14  O   UNL     1      41.911 -15.754   7.007  1.00  0.00    -0.273 OA
BRANCH  12  15
HETATM   15  C   UNL     1      42.433 -16.770   4.393  1.00  0.00     0.124 C 
BRANCH  15  16
HETATM   16  C   UNL     1      43.870 -17.296   4.349  1.00  0.00     0.053 C 
BRANCH  16  17
HETATM   17  C   UNL     1      44.099 -18.544   3.505  1.00  0.00     0.189 C 
HETATM   18  N   UNL     1      44.360 -19.822   4.277  1.00  0.00    -0.071 N 
HETATM   19  H   UNL     1      45.361 -19.803   4.547  1.00  0.00     0.279 HD
HETATM   20  C   UNL     1      43.542 -20.069   5.517  1.00  0.00     0.270 C 
HETATM   21  C   UNL     1      44.145 -20.942   3.264  1.00  0.00     0.235 C 
HETATM   22  C   UNL     1      43.358 -20.315   2.119  1.00  0.00     0.030 C 
HETATM   23  C   UNL     1      42.941 -18.937   2.604  1.00  0.00     0.035 C 
ENDBRANCH  16  17
ENDBRANCH  15  16
ENDBRANCH  12  15
ENDBRANCH  10  11
ENDBRANCH   5  10
BRANCH   6  24
HETATM   24  C   UNL     1      40.473 -10.974   3.765  1.00  0.00    -0.024 C 
HETATM   25  C   UNL     1      40.261 -10.091   2.670  1.00  0.00    -0.053 C 
HETATM   26  C   UNL     1      40.621  -8.624   2.658  1.00  0.00     0.049 C 
HETATM   27  C   UNL     1      39.722 -10.580   1.462  1.00  0.00     0.014 C 
HETATM   28  C   UNL     1      39.469 -11.935   1.264  1.00  0.00    -0.061 C 
HETATM   29  C   UNL     1      38.970 -12.431  -0.061  1.00  0.00     0.048 C 
HETATM   30  C   UNL     1      39.803 -12.822   2.281  1.00  0.00     0.007 C 
HETATM   31  C   UNL     1      40.312 -12.351   3.498  1.00  0.00     0.011 C 
ENDBRANCH   6  24
BRANCH   9  32
HETATM   32  C   UNL     1      38.878 -10.532   6.357  1.00  0.00     0.293 C 
HETATM   33  O   UNL     1      38.730 -11.507   7.081  1.00  0.00    -0.259 OA
BRANCH  32  34
HETATM   34  O   UNL     1      37.949  -9.896   5.625  1.00  0.00    -0.323 OA
HETATM   35  C   UNL     1      38.195  -8.495   5.459  1.00  0.00     0.213 C 
ENDBRANCH  32  34
ENDBRANCH   9  32
BRANCH   1  36
HETATM   36  C   UNL     1      40.168  -8.699   8.431  1.00  0.00     0.056 C 
HETATM   37  C   UNL     1      40.644  -9.356   9.720  1.00  0.00     0.011 C 
ENDBRANCH   1  36
TORSDOF 9
ENDMDL
MODEL 9
REMARK VINA RESULT:      -6.7     17.416     20.195
REMARK  9 active torsions:
REMARK  status: ('A' for Active; 'I' for Inactive)
REMARK    1  A    between atoms: C_2  and  C_3 
REMARK    2  A    between atoms: C_7  and  C_8 
REMARK    3  A    between atoms: C_8  and  C_9 
REMARK       I    between atoms: C_9  and  N_10 
REMARK    4  A    between atoms: N_10  and  C_11 
REMARK    5  A    between atoms: C_11  and  C_12 
REMARK    6  A    between atoms: C_12  and  C_13 
REMARK    7  A    between atoms: C_21  and  C_22 
REMARK    8  A    between atoms: C_32  and  C_33 
REMARK    9  A    between atoms: C_33  and  O_34 
ROOT
HETATM    1  C   UNL     1      45.115 -32.102  -1.256  1.00  0.00     0.051 C 
HETATM    2  N   UNL     1      44.416 -31.512  -2.321  1.00  0.00    -0.228 NA
HETATM    3  C   UNL     1      44.998 -30.502  -2.880  1.00  0.00     0.170 C 
HETATM    4  N   UNL     1      46.498 -30.142  -2.604  1.00  0.00    -0.318 N 
HETATM    5  C   UNL     1      46.560 -28.872  -2.343  1.00  0.00     0.011 C 
HETATM    6  C   UNL     1      47.188 -31.429  -2.355  1.00  0.00     0.166 C 
HETATM    7  S   UNL     1      44.204 -29.210  -3.694  1.00  0.00    -0.086 SA
HETATM    8  C   UNL     1      45.398 -28.058  -2.911  1.00  0.00     0.135 C 
HETATM    9  C   UNL     1      46.468 -32.009  -1.176  1.00  0.00     0.069 C 
ENDROOT
BRANCH   5  10
HETATM   10  C   UNL     1      47.522 -28.352  -1.312  1.00  0.00     0.156 C 
BRANCH  10  11
HETATM   11  C   UNL     1      47.012 -28.177   0.102  1.00  0.00     0.222 C 
HETATM   12  N   UNL     1      48.015 -28.172   1.049  1.00  0.00    -0.361 N 
HETATM   13  H   UNL     1      48.976 -28.318   0.742  1.00  0.00     0.162 HD
HETATM   14  O   UNL     1      45.822 -28.077   0.393  1.00  0.00    -0.273 OA
BRANCH  12  15
HETATM   15  C   UNL     1      47.760 -28.409   2.460  1.00  0.00     0.124 C 
BRANCH  15  16
HETATM   16  C   UNL     1      48.992 -28.761   3.297  1.00  0.00     0.053 C 
BRANCH  16  17
HETATM   17  C   UNL     1      49.194 -30.242   3.596  1.00  0.00     0.189 C 
HETATM   18  N   UNL     1      49.642 -31.094   2.426  1.00  0.00    -0.071 N 
HETATM   19  H   UNL     1      48.790 -31.307   1.874  1.00  0.00     0.279 HD
HETATM   20  C   UNL     1      50.675 -30.517   1.495  1.00  0.00     0.270 C 
HETATM   21  C   UNL     1      50.154 -32.387   3.056  1.00  0.00     0.235 C 
HETATM   22  C   UNL     1      50.394 -32.059   4.526  1.00  0.00     0.030 C 
HETATM   23  C   UNL     1      50.245 -30.552   4.648  1.00  0.00     0.035 C 
ENDBRANCH  16  17
ENDBRANCH  15  16
ENDBRANCH  12  15
ENDBRANCH  10  11
ENDBRANCH   5  10
BRANCH   6  24
HETATM   24  C   UNL     1      48.703 -31.540  -2.529  1.00  0.00    -0.024 C 
HETATM   25  C   UNL     1      49.286 -32.533  -3.364  1.00  0.00    -0.053 C 
HETATM   26  C   UNL     1      48.511 -33.533  -4.189  1.00  0.00     0.049 C 
HETATM   27  C   UNL     1      50.687 -32.603  -3.509  1.00  0.00     0.014 C 
HETATM   28  C   UNL     1      51.534 -31.663  -2.926  1.00  0.00    -0.061 C 
HETATM   29  C   UNL     1      53.014 -31.722  -3.165  1.00  0.00     0.048 C 
HETATM   30  C   UNL     1      50.963 -30.609  -2.222  1.00  0.00     0.007 C 
HETATM   31  C   UNL     1      49.576 -30.541  -2.044  1.00  0.00     0.011 C 
ENDBRANCH   6  24
BRANCH   9  32
HETATM   32  C   UNL     1      47.187 -32.021   0.103  1.00  0.00     0.293 C 
HETATM   33  O   UNL     1      46.909 -31.193   0.959  1.00  0.00    -0.259 OA
BRANCH  32  34
HETATM   34  O   UNL     1      48.123 -32.982   0.156  1.00  0.00    -0.323 OA
HETATM   35  C   UNL     1      47.602 -34.312   0.056  1.00  0.00     0.213 C 
ENDBRANCH  32  34
ENDBRANCH   9  32
BRANCH   1  36
HETATM   36  C   UNL     1      44.204 -32.625  -0.158  1.00  0.00     0.056 C 
HETATM   37  C   UNL     1      43.299 -31.540   0.409  1.00  0.00     0.011 C 
ENDBRANCH   1  36
TORSDOF 9
ENDMDL
MODEL 10
REMARK VINA RESULT:      -6.7      2.678      5.407
REMARK  9 active torsions:
REMARK  status: ('A' for Active; 'I' for Inactive)
REMARK    1  A    between atoms: C_2  and  C_3 
REMARK    2  A    between atoms: C_7  and  C_8 
REMARK    3  A    between atoms: C_8  and  C_9 
REMARK       I    between atoms: C_9  and  N_10 
REMARK    4  A    between atoms: N_10  and  C_11 
REMARK    5  A    between atoms: C_11  and  C_12 
REMARK    6  A    between atoms: C_12  and  C_13 
REMARK    7  A    between atoms: C_21  and  C_22 
REMARK    8  A    between atoms: C_32  and  C_33 
REMARK    9  A    between atoms: C_33  and  O_34 
ROOT
HETATM    1  C   UNL     1      40.105 -13.949   0.275  1.00  0.00     0.051 C 
HETATM    2  N   UNL     1      40.344 -15.227   0.806  1.00  0.00    -0.228 NA
HETATM    3  C   UNL     1      41.028 -15.257   1.904  1.00  0.00     0.170 C 
HETATM    4  N   UNL     1      41.314 -13.968   2.746  1.00  0.00    -0.318 N 
HETATM    5  C   UNL     1      42.581 -13.951   3.027  1.00  0.00     0.011 C 
HETATM    6  C   UNL     1      40.139 -13.086   2.557  1.00  0.00     0.166 C 
HETATM    7  S   UNL     1      42.016 -16.561   2.434  1.00  0.00    -0.086 SA
HETATM    8  C   UNL     1      43.249 -15.324   2.996  1.00  0.00     0.135 C 
HETATM    9  C   UNL     1      40.089 -12.854   1.078  1.00  0.00     0.069 C 
ENDROOT
BRANCH   5  10
HETATM   10  C   UNL     1      43.338 -12.651   3.055  1.00  0.00     0.156 C 
BRANCH  10  11
HETATM   11  C   UNL     1      43.354 -11.875   4.354  1.00  0.00     0.222 C 
HETATM   12  N   UNL     1      43.585 -12.665   5.461  1.00  0.00    -0.361 N 
HETATM   13  H   UNL     1      43.684 -13.671   5.330  1.00  0.00     0.162 HD
HETATM   14  O   UNL     1      43.156 -10.665   4.430  1.00  0.00    -0.273 OA
BRANCH  12  15
HETATM   15  C   UNL     1      43.265 -12.233   6.811  1.00  0.00     0.124 C 
BRANCH  15  16
HETATM   16  C   UNL     1      44.413 -11.568   7.575  1.00  0.00     0.053 C 
BRANCH  16  17
HETATM   17  C   UNL     1      44.215 -10.099   7.928  1.00  0.00     0.189 C 
HETATM   18  N   UNL     1      43.446  -9.826   9.204  1.00  0.00    -0.071 N 
HETATM   19  H   UNL     1      42.440  -9.920   8.968  1.00  0.00     0.279 HD
HETATM   20  C   UNL     1      43.733 -10.703  10.395  1.00  0.00     0.270 C 
HETATM   21  C   UNL     1      43.738  -8.366   9.535  1.00  0.00     0.235 C 
HETATM   22  C   UNL     1      44.976  -8.001   8.722  1.00  0.00     0.030 C 
HETATM   23  C   UNL     1      45.494  -9.306   8.141  1.00  0.00     0.035 C 
ENDBRANCH  16  17
ENDBRANCH  15  16
ENDBRANCH  12  15
ENDBRANCH  10  11
ENDBRANCH   5  10
BRANCH   6  24
HETATM   24  C   UNL     1      39.827 -11.986   3.573  1.00  0.00    -0.024 C 
HETATM   25  C   UNL     1      39.738 -12.262   4.965  1.00  0.00    -0.053 C 
HETATM   26  C   UNL     1      39.979 -13.613   5.597  1.00  0.00     0.049 C 
HETATM   27  C   UNL     1      39.457 -11.223   5.877  1.00  0.00     0.014 C 
HETATM   28  C   UNL     1      39.349  -9.895   5.468  1.00  0.00    -0.061 C 
HETATM   29  C   UNL     1      39.127  -8.805   6.475  1.00  0.00     0.048 C 
HETATM   30  C   UNL     1      39.570  -9.600   4.128  1.00  0.00     0.007 C 
HETATM   31  C   UNL     1      39.822 -10.622   3.205  1.00  0.00     0.011 C 
ENDBRANCH   6  24
BRANCH   9  32
HETATM   32  C   UNL     1      40.462 -11.517   0.601  1.00  0.00     0.293 C 
HETATM   33  O   UNL     1      41.626 -11.152   0.683  1.00  0.00    -0.259 OA
BRANCH  32  34
HETATM   34  O   UNL     1      39.409 -10.828   0.132  1.00  0.00    -0.323 OA
HETATM   35  C   UNL     1      39.697 -10.040  -1.029  1.00  0.00     0.213 C 
ENDBRANCH  32  34
ENDBRANCH   9  32
BRANCH   1  36
HETATM   36  C   UNL     1      40.098 -13.925  -1.244  1.00  0.00     0.056 C 
HETATM   37  C   UNL     1      38.953 -14.740  -1.831  1.00  0.00     0.011 C 
ENDBRANCH   1  36
TORSDOF 9
ENDMDL
