MODEL 1
REMARK VINA RESULT:      -8.6      0.000      0.000
REMARK  3 active torsions:
REMARK  status: ('A' for Active; 'I' for Inactive)
REMARK    1  A    between atoms: C_2  and  C_3 
REMARK    2  A    between atoms: C_6  and  C_7 
REMARK       I    between atoms: C_7  and  N_8 
REMARK    3  A    between atoms: N_8  and  N_9 
ROOT
HETATM    1  C   UNL     1      42.798 -14.069   4.383  1.00  0.00    -0.021 A 
HETATM    2  C   UNL     1      43.026 -14.589   5.673  1.00  0.00     0.011 A 
HETATM    3  C   UNL     1      43.574 -13.803   6.697  1.00  0.00     0.018 A 
HETATM    4  C   UNL     1      43.929 -12.473   6.449  1.00  0.00     0.033 A 
HETATM    5  C   UNL     1      43.721 -11.953   5.165  1.00  0.00     0.018 A 
HETATM    6  C   UNL     1      43.169 -12.737   4.147  1.00  0.00     0.011 A 
ENDROOT
BRANCH   4   7
HETATM    7  C   UNL     1      44.479 -11.552   7.489  1.00  0.00     0.266 C 
HETATM    8  N   UNL     1      43.623 -11.176   8.523  1.00  0.00    -0.284 N 
HETATM    9  H   UNL     1      42.710 -11.600   8.628  1.00  0.00     0.184 HD
HETATM   10  O   UNL     1      45.645 -11.177   7.390  1.00  0.00    -0.266 OA
BRANCH   8  11
HETATM   11  N   UNL     1      44.018 -10.288   9.554  1.00  0.00    -0.220 NA
HETATM   12  C   UNL     1      43.537  -8.892   9.379  1.00  0.00     0.153 C 
HETATM   13  C   UNL     1      43.193  -8.415  10.754  1.00  0.00    -0.036 A 
HETATM   14  C   UNL     1      43.250  -9.482  11.649  1.00  0.00    -0.036 A 
HETATM   15  C   UNL     1      42.817  -7.149  11.169  1.00  0.00     0.009 A 
HETATM   16  C   UNL     1      43.644 -10.729  10.925  1.00  0.00     0.153 C 
HETATM   17  C   UNL     1      42.925  -9.313  12.985  1.00  0.00     0.009 A 
HETATM   18  C   UNL     1      42.544  -8.040  13.417  1.00  0.00     0.001 A 
HETATM   19  C   UNL     1      42.493  -6.965  12.516  1.00  0.00     0.001 A 
ENDBRANCH   8  11
ENDBRANCH   4   7
BRANCH   1  20
HETATM   20  C   UNL     1      42.172 -14.950   3.305  1.00  0.00     0.139 A 
HETATM   21  C   UNL     1      42.136 -16.423   3.714  1.00  0.00     0.054 C 
HETATM   22  N   UNL     1      40.843 -14.469   2.971  1.00  0.00    -0.321 N 
HETATM   23  C   UNL     1      40.734 -14.060   1.667  1.00  0.00     0.324 A 
HETATM   24  H   UNL     1      40.083 -14.319   3.618  1.00  0.00     0.165 HD
HETATM   25  O   UNL     1      39.732 -13.578   1.170  1.00  0.00    -0.247 OA
HETATM   26  N   UNL     1      41.908 -14.284   1.042  1.00  0.00    -0.277 N 
HETATM   27  C   UNL     1      42.810 -14.838   1.897  1.00  0.00     0.258 A 
HETATM   28  H   UNL     1      42.076 -14.094   0.070  1.00  0.00     0.173 HD
HETATM   29  O   UNL     1      43.936 -15.190   1.572  1.00  0.00    -0.270 OA
ENDBRANCH   1  20
TORSDOF 3
ENDMDL
MODEL 2
REMARK VINA RESULT:      -8.5      3.408      5.816
REMARK  3 active torsions:
REMARK  status: ('A' for Active; 'I' for Inactive)
REMARK    1  A    between atoms: C_2  and  C_3 
REMARK    2  A    between atoms: C_6  and  C_7 
REMARK       I    between atoms: C_7  and  N_8 
REMARK    3  A    between atoms: N_8  and  N_9 
ROOT
HETATM    1  C   UNL     1      39.556 -13.993  -0.432  1.00  0.00    -0.021 A 
HETATM    2  C   UNL     1      39.857 -15.214   0.206  1.00  0.00     0.011 A 
HETATM    3  C   UNL     1      40.392 -15.254   1.502  1.00  0.00     0.018 A 
HETATM    4  C   UNL     1      40.660 -14.067   2.190  1.00  0.00     0.033 A 
HETATM    5  C   UNL     1      40.380 -12.849   1.557  1.00  0.00     0.018 A 
HETATM    6  C   UNL     1      39.841 -12.811   0.266  1.00  0.00     0.011 A 
ENDROOT
BRANCH   4   7
HETATM    7  C   UNL     1      41.189 -14.015   3.586  1.00  0.00     0.266 C 
HETATM    8  N   UNL     1      41.550 -12.764   4.084  1.00  0.00    -0.284 N 
HETATM    9  H   UNL     1      41.354 -11.918   3.566  1.00  0.00     0.184 HD
HETATM   10  O   UNL     1      41.276 -15.062   4.225  1.00  0.00    -0.266 OA
BRANCH   8  11
HETATM   11  N   UNL     1      42.087 -12.588   5.382  1.00  0.00    -0.220 NA
HETATM   12  C   UNL     1      43.558 -12.793   5.472  1.00  0.00     0.153 C 
HETATM   13  C   UNL     1      44.044 -11.766   6.443  1.00  0.00    -0.036 A 
HETATM   14  C   UNL     1      43.011 -10.882   6.749  1.00  0.00    -0.036 A 
HETATM   15  C   UNL     1      45.311 -11.601   6.978  1.00  0.00     0.009 A 
HETATM   16  C   UNL     1      41.773 -11.274   6.007  1.00  0.00     0.153 C 
HETATM   17  C   UNL     1      43.218  -9.804   7.594  1.00  0.00     0.009 A 
HETATM   18  C   UNL     1      44.491  -9.627   8.140  1.00  0.00     0.001 A 
HETATM   19  C   UNL     1      45.530 -10.520   7.836  1.00  0.00     0.001 A 
ENDBRANCH   8  11
ENDBRANCH   4   7
BRANCH   1  20
HETATM   20  C   UNL     1      38.947 -13.994  -1.832  1.00  0.00     0.139 A 
HETATM   21  C   UNL     1      38.872 -15.401  -2.426  1.00  0.00     0.054 C 
HETATM   22  N   UNL     1      37.638 -13.367  -1.811  1.00  0.00    -0.321 N 
HETATM   23  C   UNL     1      37.576 -12.234  -2.580  1.00  0.00     0.324 A 
HETATM   24  H   UNL     1      36.861 -13.626  -1.220  1.00  0.00     0.165 HD
HETATM   25  O   UNL     1      36.598 -11.515  -2.683  1.00  0.00    -0.247 OA
HETATM   26  N   UNL     1      38.763 -12.060  -3.195  1.00  0.00    -0.277 N 
HETATM   27  C   UNL     1      39.630 -13.054  -2.857  1.00  0.00     0.258 A 
HETATM   28  H   UNL     1      38.964 -11.313  -3.836  1.00  0.00     0.173 HD
HETATM   29  O   UNL     1      40.758 -13.165  -3.316  1.00  0.00    -0.270 OA
ENDBRANCH   1  20
TORSDOF 3
ENDMDL
MODEL 3
REMARK VINA RESULT:      -8.4      1.453      2.110
REMARK  3 active torsions:
REMARK  status: ('A' for Active; 'I' for Inactive)
REMARK    1  A    between atoms: C_2  and  C_3 
REMARK    2  A    between atoms: C_6  and  C_7 
REMARK       I    between atoms: C_7  and  N_8 
REMARK    3  A    between atoms: N_8  and  N_9 
ROOT
HETATM    1  C   UNL     1      42.676 -14.726   5.219  1.00  0.00    -0.021 A 
HETATM    2  C   UNL     1      42.913 -13.463   4.639  1.00  0.00     0.011 A 
HETATM    3  C   UNL     1      43.428 -12.395   5.386  1.00  0.00     0.018 A 
HETATM    4  C   UNL     1      43.702 -12.557   6.747  1.00  0.00     0.033 A 
HETATM    5  C   UNL     1      43.454 -13.804   7.337  1.00  0.00     0.018 A 
HETATM    6  C   UNL     1      42.946 -14.870   6.588  1.00  0.00     0.011 A 
ENDROOT
BRANCH   4   7
HETATM    7  C   UNL     1      44.290 -11.488   7.611  1.00  0.00     0.266 C 
HETATM    8  N   UNL     1      43.462 -10.925   8.580  1.00  0.00    -0.284 N 
HETATM    9  H   UNL     1      42.541 -11.303   8.766  1.00  0.00     0.184 HD
HETATM   10  O   UNL     1      45.462 -11.163   7.434  1.00  0.00    -0.266 OA
BRANCH   8  11
HETATM   11  N   UNL     1      43.894  -9.887   9.441  1.00  0.00    -0.220 NA
HETATM   12  C   UNL     1      43.247  -8.572   9.191  1.00  0.00     0.153 C 
HETATM   13  C   UNL     1      43.042  -7.967  10.543  1.00  0.00    -0.036 A 
HETATM   14  C   UNL     1      43.332  -8.908  11.529  1.00  0.00    -0.036 A 
HETATM   15  C   UNL     1      42.591  -6.699  10.872  1.00  0.00     0.009 A 
HETATM   16  C   UNL     1      43.757 -10.193  10.891  1.00  0.00     0.153 C 
HETATM   17  C   UNL     1      43.173  -8.611  12.872  1.00  0.00     0.009 A 
HETATM   18  C   UNL     1      42.720  -7.336  13.218  1.00  0.00     0.001 A 
HETATM   19  C   UNL     1      42.433  -6.386  12.225  1.00  0.00     0.001 A 
ENDBRANCH   8  11
ENDBRANCH   4   7
BRANCH   1  20
HETATM   20  C   UNL     1      42.143 -15.871   4.362  1.00  0.00     0.139 A 
HETATM   21  C   UNL     1      40.727 -16.282   4.768  1.00  0.00     0.054 C 
HETATM   22  N   UNL     1      42.200 -15.516   2.955  1.00  0.00    -0.321 N 
HETATM   23  C   UNL     1      43.029 -16.332   2.231  1.00  0.00     0.324 A 
HETATM   24  H   UNL     1      41.790 -14.697   2.530  1.00  0.00     0.165 HD
HETATM   25  O   UNL     1      43.271 -16.202   1.044  1.00  0.00    -0.247 OA
HETATM   26  N   UNL     1      43.517 -17.289   3.045  1.00  0.00    -0.277 N 
HETATM   27  C   UNL     1      43.035 -17.138   4.309  1.00  0.00     0.258 A 
HETATM   28  H   UNL     1      44.129 -18.028   2.747  1.00  0.00     0.173 HD
HETATM   29  O   UNL     1      43.278 -17.903   5.232  1.00  0.00    -0.270 OA
ENDBRANCH   1  20
TORSDOF 3
ENDMDL
MODEL 4
REMARK VINA RESULT:      -8.3      1.175      1.985
REMARK  3 active torsions:
REMARK  status: ('A' for Active; 'I' for Inactive)
REMARK    1  A    between atoms: C_2  and  C_3 
REMARK    2  A    between atoms: C_6  and  C_7 
REMARK       I    between atoms: C_7  and  N_8 
REMARK    3  A    between atoms: N_8  and  N_9 
ROOT
HETATM    1  C   UNL     1      43.068 -13.552   4.288  1.00  0.00    -0.021 A 
HETATM    2  C   UNL     1      43.137 -14.165   5.556  1.00  0.00     0.011 A 
HETATM    3  C   UNL     1      43.630 -13.482   6.677  1.00  0.00     0.018 A 
HETATM    4  C   UNL     1      44.089 -12.167   6.554  1.00  0.00     0.033 A 
HETATM    5  C   UNL     1      44.041 -11.556   5.294  1.00  0.00     0.018 A 
HETATM    6  C   UNL     1      43.543 -12.237   4.178  1.00  0.00     0.011 A 
ENDROOT
BRANCH   4   7
HETATM    7  C   UNL     1      44.592 -11.350   7.700  1.00  0.00     0.266 C 
HETATM    8  N   UNL     1      43.670 -11.004   8.687  1.00  0.00    -0.284 N 
HETATM    9  H   UNL     1      42.733 -11.387   8.686  1.00  0.00     0.184 HD
HETATM   10  O   UNL     1      45.778 -11.030   7.723  1.00  0.00    -0.266 OA
BRANCH   8  11
HETATM   11  N   UNL     1      44.018 -10.213   9.809  1.00  0.00    -0.220 NA
HETATM   12  C   UNL     1      43.572  -8.797   9.723  1.00  0.00     0.153 C 
HETATM   13  C   UNL     1      43.154  -8.427  11.111  1.00  0.00    -0.036 A 
HETATM   14  C   UNL     1      43.139  -9.564  11.916  1.00  0.00    -0.036 A 
HETATM   15  C   UNL     1      42.775  -7.191  11.607  1.00  0.00     0.009 A 
HETATM   16  C   UNL     1      43.555 -10.757  11.115  1.00  0.00     0.153 C 
HETATM   17  C   UNL     1      42.738  -9.499  13.240  1.00  0.00     0.009 A 
HETATM   18  C   UNL     1      42.353  -8.258  13.754  1.00  0.00     0.001 A 
HETATM   19  C   UNL     1      42.374  -7.111  12.943  1.00  0.00     0.001 A 
ENDBRANCH   8  11
ENDBRANCH   4   7
BRANCH   1  20
HETATM   20  C   UNL     1      42.497 -14.321   3.100  1.00  0.00     0.139 A 
HETATM   21  C   UNL     1      42.168 -13.401   1.923  1.00  0.00     0.054 C 
HETATM   22  N   UNL     1      43.410 -15.376   2.698  1.00  0.00    -0.321 N 
HETATM   23  C   UNL     1      42.871 -16.629   2.831  1.00  0.00     0.324 A 
HETATM   24  H   UNL     1      44.383 -15.262   2.454  1.00  0.00     0.165 HD
HETATM   25  O   UNL     1      43.460 -17.670   2.599  1.00  0.00    -0.247 OA
HETATM   26  N   UNL     1      41.595 -16.511   3.252  1.00  0.00    -0.277 N 
HETATM   27  C   UNL     1      41.259 -15.202   3.407  1.00  0.00     0.258 A 
HETATM   28  H   UNL     1      40.974 -17.287   3.400  1.00  0.00     0.173 HD
HETATM   29  O   UNL     1      40.144 -14.813   3.728  1.00  0.00    -0.270 OA
ENDBRANCH   1  20
TORSDOF 3
ENDMDL
MODEL 5
REMARK VINA RESULT:      -8.2      5.111     11.701
REMARK  3 active torsions:
REMARK  status: ('A' for Active; 'I' for Inactive)
REMARK    1  A    between atoms: C_2  and  C_3 
REMARK    2  A    between atoms: C_6  and  C_7 
REMARK       I    between atoms: C_7  and  N_8 
REMARK    3  A    between atoms: N_8  and  N_9 
ROOT
HETATM    1  C   UNL     1      41.718  -7.558  15.525  1.00  0.00    -0.021 A 
HETATM    2  C   UNL     1      42.828  -6.910  14.945  1.00  0.00     0.011 A 
HETATM    3  C   UNL     1      43.350  -7.310  13.707  1.00  0.00     0.018 A 
HETATM    4  C   UNL     1      42.785  -8.389  13.021  1.00  0.00     0.033 A 
HETATM    5  C   UNL     1      41.692  -9.051  13.598  1.00  0.00     0.018 A 
HETATM    6  C   UNL     1      41.169  -8.646  14.831  1.00  0.00     0.011 A 
ENDROOT
BRANCH   4   7
HETATM    7  C   UNL     1      43.248  -8.858  11.680  1.00  0.00     0.266 C 
HETATM    8  N   UNL     1      43.076  -7.986  10.607  1.00  0.00    -0.284 N 
HETATM    9  H   UNL     1      42.759  -7.035  10.750  1.00  0.00     0.184 HD
HETATM   10  O   UNL     1      43.757  -9.973  11.587  1.00  0.00    -0.266 OA
BRANCH   8  11
HETATM   11  N   UNL     1      43.451  -8.324   9.284  1.00  0.00    -0.220 NA
HETATM   12  C   UNL     1      44.900  -8.606   9.109  1.00  0.00     0.153 C 
HETATM   13  C   UNL     1      44.970  -9.733   8.129  1.00  0.00    -0.036 A 
HETATM   14  C   UNL     1      43.691 -10.234   7.896  1.00  0.00    -0.036 A 
HETATM   15  C   UNL     1      46.083 -10.298   7.527  1.00  0.00     0.009 A 
HETATM   16  C   UNL     1      42.692  -9.463   8.700  1.00  0.00     0.153 C 
HETATM   17  C   UNL     1      43.488 -11.319   7.059  1.00  0.00     0.009 A 
HETATM   18  C   UNL     1      44.602 -11.898   6.446  1.00  0.00     0.001 A 
HETATM   19  C   UNL     1      45.890 -11.389   6.676  1.00  0.00     0.001 A 
ENDBRANCH   8  11
ENDBRANCH   4   7
BRANCH   1  20
HETATM   20  C   UNL     1      41.163  -7.072  16.861  1.00  0.00     0.139 A 
HETATM   21  C   UNL     1      39.646  -6.887  16.821  1.00  0.00     0.054 C 
HETATM   22  N   UNL     1      41.550  -7.979  17.927  1.00  0.00    -0.321 N 
HETATM   23  C   UNL     1      42.343  -7.385  18.873  1.00  0.00     0.324 A 
HETATM   24  H   UNL     1      41.381  -8.974  17.953  1.00  0.00     0.165 HD
HETATM   25  O   UNL     1      42.827  -7.955  19.835  1.00  0.00    -0.247 OA
HETATM   26  N   UNL     1      42.489  -6.081  18.562  1.00  0.00    -0.277 N 
HETATM   27  C   UNL     1      41.809  -5.779  17.422  1.00  0.00     0.258 A 
HETATM   28  H   UNL     1      43.005  -5.421  19.116  1.00  0.00     0.173 HD
HETATM   29  O   UNL     1      41.731  -4.655  16.948  1.00  0.00    -0.270 OA
ENDBRANCH   1  20
TORSDOF 3
ENDMDL
MODEL 6
REMARK VINA RESULT:      -8.1      3.122      9.686
REMARK  3 active torsions:
REMARK  status: ('A' for Active; 'I' for Inactive)
REMARK    1  A    between atoms: C_2  and  C_3 
REMARK    2  A    between atoms: C_6  and  C_7 
REMARK       I    between atoms: C_7  and  N_8 
REMARK    3  A    between atoms: N_8  and  N_9 
ROOT
HETATM    1  C   UNL     1      42.738  -8.627  11.432  1.00  0.00    -0.021 A 
HETATM    2  C   UNL     1      42.054  -8.734  10.204  1.00  0.00     0.011 A 
HETATM    3  C   UNL     1      42.538  -9.535   9.160  1.00  0.00     0.018 A 
HETATM    4  C   UNL     1      43.737 -10.239   9.311  1.00  0.00     0.033 A 
HETATM    5  C   UNL     1      44.432 -10.124  10.522  1.00  0.00     0.018 A 
HETATM    6  C   UNL     1      43.945  -9.329  11.565  1.00  0.00     0.011 A 
ENDROOT
BRANCH   4   7
HETATM    7  C   UNL     1      44.306 -11.147   8.270  1.00  0.00     0.266 C 
HETATM    8  N   UNL     1      43.402 -11.877   7.499  1.00  0.00    -0.284 N 
HETATM    9  H   UNL     1      42.405 -11.711   7.564  1.00  0.00     0.184 HD
HETATM   10  O   UNL     1      45.526 -11.205   8.138  1.00  0.00    -0.266 OA
BRANCH   8  11
HETATM   11  N   UNL     1      43.817 -12.789   6.499  1.00  0.00    -0.220 NA
HETATM   12  C   UNL     1      43.622 -14.220   6.854  1.00  0.00     0.153 C 
HETATM   13  C   UNL     1      43.199 -14.890   5.586  1.00  0.00    -0.036 A 
HETATM   14  C   UNL     1      42.948 -13.930   4.608  1.00  0.00    -0.036 A 
HETATM   15  C   UNL     1      43.008 -16.238   5.333  1.00  0.00     0.009 A 
HETATM   16  C   UNL     1      43.199 -12.564   5.164  1.00  0.00     0.153 C 
HETATM   17  C   UNL     1      42.493 -14.290   3.350  1.00  0.00     0.009 A 
HETATM   18  C   UNL     1      42.296 -15.647   3.082  1.00  0.00     0.001 A 
HETATM   19  C   UNL     1      42.554 -16.615   4.066  1.00  0.00     0.001 A 
ENDBRANCH   8  11
ENDBRANCH   4   7
BRANCH   1  20
HETATM   20  C   UNL     1      42.161  -7.767  12.554  1.00  0.00     0.139 A 
HETATM   21  C   UNL     1      43.199  -7.455  13.632  1.00  0.00     0.054 C 
HETATM   22  N   UNL     1      41.592  -6.546  12.010  1.00  0.00    -0.321 N 
HETATM   23  C   UNL     1      40.243  -6.441  12.228  1.00  0.00     0.324 A 
HETATM   24  H   UNL     1      42.069  -5.875  11.424  1.00  0.00     0.165 HD
HETATM   25  O   UNL     1      39.542  -5.530  11.827  1.00  0.00    -0.247 OA
HETATM   26  N   UNL     1      39.837  -7.502  12.955  1.00  0.00    -0.277 N 
HETATM   27  C   UNL     1      40.885  -8.324  13.234  1.00  0.00     0.258 A 
HETATM   28  H   UNL     1      38.894  -7.644  13.269  1.00  0.00     0.173 HD
HETATM   29  O   UNL     1      40.802  -9.330  13.924  1.00  0.00    -0.270 OA
ENDBRANCH   1  20
TORSDOF 3
ENDMDL
MODEL 7
REMARK VINA RESULT:      -7.8      3.508     10.286
REMARK  3 active torsions:
REMARK  status: ('A' for Active; 'I' for Inactive)
REMARK    1  A    between atoms: C_2  and  C_3 
REMARK    2  A    between atoms: C_6  and  C_7 
REMARK       I    between atoms: C_7  and  N_8 
REMARK    3  A    between atoms: N_8  and  N_9 
ROOT
HETATM    1  C   UNL     1      42.027  -8.006  12.084  1.00  0.00    -0.021 A 
HETATM    2  C   UNL     1      41.381  -8.316  10.870  1.00  0.00     0.011 A 
HETATM    3  C   UNL     1      42.000  -9.101   9.887  1.00  0.00     0.018 A 
HETATM    4  C   UNL     1      43.298  -9.581  10.085  1.00  0.00     0.033 A 
HETATM    5  C   UNL     1      43.954  -9.263  11.281  1.00  0.00     0.018 A 
HETATM    6  C   UNL     1      43.332  -8.485  12.264  1.00  0.00     0.011 A 
ENDROOT
BRANCH   4   7
HETATM    7  C   UNL     1      44.019 -10.457   9.112  1.00  0.00     0.266 C 
HETATM    8  N   UNL     1      43.308 -10.883   7.991  1.00  0.00    -0.284 N 
HETATM    9  H   UNL     1      42.384 -10.522   7.788  1.00  0.00     0.184 HD
HETATM   10  O   UNL     1      45.190 -10.752   9.337  1.00  0.00    -0.266 OA
BRANCH   8  11
HETATM   11  N   UNL     1      43.871 -11.735   7.011  1.00  0.00    -0.220 NA
HETATM   12  C   UNL     1      43.364 -13.133   7.047  1.00  0.00     0.153 C 
HETATM   13  C   UNL     1      43.261 -13.555   5.616  1.00  0.00    -0.036 A 
HETATM   14  C   UNL     1      43.472 -12.457   4.786  1.00  0.00    -0.036 A 
HETATM   15  C   UNL     1      42.958 -14.802   5.095  1.00  0.00     0.009 A 
HETATM   16  C   UNL     1      43.739 -11.240   5.614  1.00  0.00     0.153 C 
HETATM   17  C   UNL     1      43.381 -12.573   3.408  1.00  0.00     0.009 A 
HETATM   18  C   UNL     1      43.077 -13.825   2.869  1.00  0.00     0.001 A 
HETATM   19  C   UNL     1      42.869 -14.932   3.706  1.00  0.00     0.001 A 
ENDBRANCH   8  11
ENDBRANCH   4   7
BRANCH   1  20
HETATM   20  C   UNL     1      41.305  -7.173  13.141  1.00  0.00     0.139 A 
HETATM   21  C   UNL     1      39.983  -6.606  12.624  1.00  0.00     0.054 C 
HETATM   22  N   UNL     1      41.100  -7.958  14.346  1.00  0.00    -0.321 N 
HETATM   23  C   UNL     1      41.750  -7.443  15.437  1.00  0.00     0.324 A 
HETATM   24  H   UNL     1      40.639  -8.855  14.402  1.00  0.00     0.165 HD
HETATM   25  O   UNL     1      41.763  -7.951  16.544  1.00  0.00    -0.247 OA
HETATM   26  N   UNL     1      42.359  -6.295  15.078  1.00  0.00    -0.277 N 
HETATM   27  C   UNL     1      42.134  -6.021  13.764  1.00  0.00     0.258 A 
HETATM   28  H   UNL     1      42.881  -5.710  15.707  1.00  0.00     0.173 HD
HETATM   29  O   UNL     1      42.528  -5.012  13.197  1.00  0.00    -0.270 OA
ENDBRANCH   1  20
TORSDOF 3
ENDMDL
MODEL 8
REMARK VINA RESULT:      -7.7      4.784     10.297
REMARK  3 active torsions:
REMARK  status: ('A' for Active; 'I' for Inactive)
REMARK    1  A    between atoms: C_2  and  C_3 
REMARK    2  A    between atoms: C_6  and  C_7 
REMARK       I    between atoms: C_7  and  N_8 
REMARK    3  A    between atoms: N_8  and  N_9 
ROOT
HETATM    1  C   UNL     1      41.725 -15.301   3.732  1.00  0.00    -0.021 A 
HETATM    2  C   UNL     1      40.752 -16.112   3.114  1.00  0.00     0.011 A 
HETATM    3  C   UNL     1      40.244 -15.811   1.843  1.00  0.00     0.018 A 
HETATM    4  C   UNL     1      40.683 -14.673   1.160  1.00  0.00     0.033 A 
HETATM    5  C   UNL     1      41.637 -13.851   1.775  1.00  0.00     0.018 A 
HETATM    6  C   UNL     1      42.147 -14.156   3.041  1.00  0.00     0.011 A 
ENDROOT
BRANCH   4   7
HETATM    7  C   UNL     1      40.227 -14.298  -0.213  1.00  0.00     0.266 C 
HETATM    8  N   UNL     1      40.715 -13.104  -0.741  1.00  0.00    -0.284 N 
HETATM    9  H   UNL     1      41.434 -12.575  -0.263  1.00  0.00     0.184 HD
HETATM   10  O   UNL     1      39.460 -15.051  -0.807  1.00  0.00    -0.266 OA
BRANCH   8  11
HETATM   11  N   UNL     1      40.339 -12.627  -2.020  1.00  0.00    -0.220 NA
HETATM   12  C   UNL     1      38.988 -12.006  -2.071  1.00  0.00     0.153 C 
HETATM   13  C   UNL     1      39.119 -10.850  -3.011  1.00  0.00    -0.036 A 
HETATM   14  C   UNL     1      40.460 -10.653  -3.331  1.00  0.00    -0.036 A 
HETATM   15  C   UNL     1      38.132 -10.013  -3.507  1.00  0.00     0.009 A 
HETATM   16  C   UNL     1      41.302 -11.671  -2.631  1.00  0.00     0.153 C 
HETATM   17  C   UNL     1      40.855  -9.608  -4.151  1.00  0.00     0.009 A 
HETATM   18  C   UNL     1      39.870  -8.757  -4.658  1.00  0.00     0.001 A 
HETATM   19  C   UNL     1      38.518  -8.960  -4.340  1.00  0.00     0.001 A 
ENDBRANCH   8  11
ENDBRANCH   4   7
BRANCH   1  20
HETATM   20  C   UNL     1      42.274 -15.680   5.105  1.00  0.00     0.139 A 
HETATM   21  C   UNL     1      42.682 -17.151   5.176  1.00  0.00     0.054 C 
HETATM   22  N   UNL     1      43.384 -14.813   5.460  1.00  0.00    -0.321 N 
HETATM   23  C   UNL     1      43.138 -14.058   6.577  1.00  0.00     0.324 A 
HETATM   24  H   UNL     1      44.218 -14.657   4.911  1.00  0.00     0.165 HD
HETATM   25  O   UNL     1      43.901 -13.229   7.039  1.00  0.00    -0.247 OA
HETATM   26  N   UNL     1      41.928 -14.393   7.069  1.00  0.00    -0.277 N 
HETATM   27  C   UNL     1      41.348 -15.359   6.307  1.00  0.00     0.258 A 
HETATM   28  H   UNL     1      41.528 -13.999   7.902  1.00  0.00     0.173 HD
HETATM   29  O   UNL     1      40.272 -15.880   6.562  1.00  0.00    -0.270 OA
ENDBRANCH   1  20
TORSDOF 3
ENDMDL
MODEL 9
REMARK VINA RESULT:      -7.6      5.247      9.044
REMARK  3 active torsions:
REMARK  status: ('A' for Active; 'I' for Inactive)
REMARK    1  A    between atoms: C_2  and  C_3 
REMARK    2  A    between atoms: C_6  and  C_7 
REMARK       I    between atoms: C_7  and  N_8 
REMARK    3  A    between atoms: N_8  and  N_9 
ROOT
HETATM    1  C   UNL     1      43.162  -8.393  11.207  1.00  0.00    -0.021 A 
HETATM    2  C   UNL     1      42.518  -7.139  11.181  1.00  0.00     0.011 A 
HETATM    3  C   UNL     1      42.045  -6.531  12.352  1.00  0.00     0.018 A 
HETATM    4  C   UNL     1      42.185  -7.174  13.585  1.00  0.00     0.033 A 
HETATM    5  C   UNL     1      42.809  -8.428  13.619  1.00  0.00     0.018 A 
HETATM    6  C   UNL     1      43.286  -9.031  12.450  1.00  0.00     0.011 A 
ENDROOT
BRANCH   4   7
HETATM    7  C   UNL     1      41.749  -6.583  14.886  1.00  0.00     0.266 C 
HETATM    8  N   UNL     1      41.653  -7.446  15.977  1.00  0.00    -0.284 N 
HETATM    9  H   UNL     1      41.975  -8.403  15.917  1.00  0.00     0.184 HD
HETATM   10  O   UNL     1      41.504  -5.380  14.937  1.00  0.00    -0.266 OA
BRANCH   8  11
HETATM   11  N   UNL     1      41.226  -7.012  17.255  1.00  0.00    -0.220 NA
HETATM   12  C   UNL     1      40.010  -7.701  17.764  1.00  0.00     0.153 C 
HETATM   13  C   UNL     1      40.238  -7.876  19.232  1.00  0.00    -0.036 A 
HETATM   14  C   UNL     1      41.549  -7.528  19.549  1.00  0.00    -0.036 A 
HETATM   15  C   UNL     1      39.366  -8.348  20.199  1.00  0.00     0.009 A 
HETATM   16  C   UNL     1      42.270  -7.092  18.314  1.00  0.00     0.153 C 
HETATM   17  C   UNL     1      42.028  -7.649  20.843  1.00  0.00     0.009 A 
HETATM   18  C   UNL     1      41.159  -8.124  21.829  1.00  0.00     0.001 A 
HETATM   19  C   UNL     1      39.837  -8.469  21.509  1.00  0.00     0.001 A 
ENDBRANCH   8  11
ENDBRANCH   4   7
BRANCH   1  20
HETATM   20  C   UNL     1      43.690  -9.007   9.913  1.00  0.00     0.139 A 
HETATM   21  C   UNL     1      44.987  -9.786  10.132  1.00  0.00     0.054 C 
HETATM   22  N   UNL     1      42.673  -9.848   9.305  1.00  0.00    -0.321 N 
HETATM   23  C   UNL     1      42.277  -9.401   8.071  1.00  0.00     0.324 A 
HETATM   24  H   UNL     1      42.193 -10.617   9.748  1.00  0.00     0.165 HD
HETATM   25  O   UNL     1      41.408  -9.914   7.390  1.00  0.00    -0.247 OA
HETATM   26  N   UNL     1      43.008  -8.315   7.747  1.00  0.00    -0.277 N 
HETATM   27  C   UNL     1      43.892  -8.017   8.738  1.00  0.00     0.258 A 
HETATM   28  H   UNL     1      42.926  -7.816   6.879  1.00  0.00     0.173 HD
HETATM   29  O   UNL     1      44.712  -7.111   8.676  1.00  0.00    -0.270 OA
ENDBRANCH   1  20
TORSDOF 3
ENDMDL
MODEL 10
REMARK VINA RESULT:      -7.6      7.057      8.904
REMARK  3 active torsions:
REMARK  status: ('A' for Active; 'I' for Inactive)
REMARK    1  A    between atoms: C_2  and  C_3 
REMARK    2  A    between atoms: C_6  and  C_7 
REMARK       I    between atoms: C_7  and  N_8 
REMARK    3  A    between atoms: N_8  and  N_9 
ROOT
HETATM    1  C   UNL     1      39.831 -13.027  -0.690  1.00  0.00    -0.021 A 
HETATM    2  C   UNL     1      39.448 -14.384  -0.682  1.00  0.00     0.011 A 
HETATM    3  C   UNL     1      40.046 -15.312   0.182  1.00  0.00     0.018 A 
HETATM    4  C   UNL     1      41.064 -14.909   1.051  1.00  0.00     0.033 A 
HETATM    5  C   UNL     1      41.463 -13.566   1.039  1.00  0.00     0.018 A 
HETATM    6  C   UNL     1      40.861 -12.640   0.180  1.00  0.00     0.011 A 
ENDROOT
BRANCH   4   7
HETATM    7  C   UNL     1      41.728 -15.819   2.034  1.00  0.00     0.266 C 
HETATM    8  N   UNL     1      43.113 -15.718   2.160  1.00  0.00    -0.284 N 
HETATM    9  H   UNL     1      43.629 -14.983   1.693  1.00  0.00     0.184 HD
HETATM   10  O   UNL     1      41.033 -16.599   2.680  1.00  0.00    -0.266 OA
BRANCH   8  11
HETATM   11  N   UNL     1      43.859 -16.541   3.037  1.00  0.00    -0.220 NA
HETATM   12  C   UNL     1      43.442 -16.458   4.462  1.00  0.00     0.153 C 
HETATM   13  C   UNL     1      43.564 -17.850   4.994  1.00  0.00    -0.036 A 
HETATM   14  C   UNL     1      43.818 -18.733   3.946  1.00  0.00    -0.036 A 
HETATM   15  C   UNL     1      43.416 -18.303   6.294  1.00  0.00     0.009 A 
HETATM   16  C   UNL     1      43.890 -17.980   2.656  1.00  0.00     0.153 C 
HETATM   17  C   UNL     1      43.925 -20.096   4.169  1.00  0.00     0.009 A 
HETATM   18  C   UNL     1      43.779 -20.566   5.476  1.00  0.00     0.001 A 
HETATM   19  C   UNL     1      43.528 -19.675   6.532  1.00  0.00     0.001 A 
ENDBRANCH   8  11
ENDBRANCH   4   7
BRANCH   1  20
HETATM   20  C   UNL     1      39.134 -12.043  -1.625  1.00  0.00     0.139 A 
HETATM   21  C   UNL     1      38.123 -12.735  -2.540  1.00  0.00     0.054 C 
HETATM   22  N   UNL     1      38.503 -10.982  -0.859  1.00  0.00    -0.321 N 
HETATM   23  C   UNL     1      39.022  -9.743  -1.133  1.00  0.00     0.324 A 
HETATM   24  H   UNL     1      37.837 -11.102  -0.110  1.00  0.00     0.165 HD
HETATM   25  O   UNL     1      38.685  -8.710  -0.584  1.00  0.00    -0.247 OA
HETATM   26  N   UNL     1      39.951  -9.866  -2.102  1.00  0.00    -0.277 N 
HETATM   27  C   UNL     1      40.073 -11.165  -2.491  1.00  0.00     0.258 A 
HETATM   28  H   UNL     1      40.460  -9.096  -2.499  1.00  0.00     0.173 HD
HETATM   29  O   UNL     1      40.807 -11.545  -3.392  1.00  0.00    -0.270 OA
ENDBRANCH   1  20
TORSDOF 3
ENDMDL
