MODEL 1
REMARK VINA RESULT:     -10.6      0.000      0.000
REMARK  6 active torsions:
REMARK  status: ('A' for Active; 'I' for Inactive)
REMARK    1  A    between atoms: C_11  and  N_12 
REMARK       I    between atoms: N_12  and  C_13 
REMARK    2  A    between atoms: C_13  and  C_14 
REMARK    3  A    between atoms: N_15  and  C_17 
REMARK    4  A    between atoms: C_17  and  C_18 
REMARK    5  A    between atoms: C_26  and  S_27 
REMARK    6  A    between atoms: S_27  and  C_28 
ROOT
HETATM    1  C   UNL     1      42.735 -11.837   2.810  1.00  0.00     0.281 C 
HETATM    2  N   UNL     1      42.117 -13.254   2.576  1.00  0.00    -0.053 N 
HETATM    3  H   UNL     1      42.838 -13.800   2.082  1.00  0.00     0.281 HD
HETATM    4  C   UNL     1      40.951 -13.077   1.624  1.00  0.00     0.252 C 
HETATM    5  C   UNL     1      41.309 -11.824   0.843  1.00  0.00     0.083 C 
HETATM    6  C   UNL     1      41.871 -10.922   1.933  1.00  0.00     0.060 C 
ENDROOT
BRANCH   1   7
HETATM    7  C   UNL     1      42.841 -11.342   4.277  1.00  0.00     0.253 C 
HETATM    8  N   UNL     1      43.915 -11.851   4.991  1.00  0.00    -0.325 N 
HETATM    9  H   UNL     1      44.509 -12.553   4.565  1.00  0.00     0.169 HD
HETATM   10  O   UNL     1      41.986 -10.589   4.738  1.00  0.00    -0.271 OA
BRANCH   8  11
HETATM   11  C   UNL     1      44.341 -11.448   6.282  1.00  0.00     0.036 A 
HETATM   12  C   UNL     1      43.489 -11.293   7.379  1.00  0.00     0.059 A 
HETATM   13  C   UNL     1      43.945 -10.819   8.628  1.00  0.00     0.041 A 
HETATM   14  N   UNL     1      42.980 -10.648   9.635  1.00  0.00    -0.355 N 
HETATM   15  C   UNL     1      45.293 -10.475   8.757  1.00  0.00    -0.031 A 
HETATM   16  C   UNL     1      42.888  -9.860  10.798  1.00  0.00     0.039 A 
HETATM   17  H   UNL     1      42.158 -11.225   9.492  1.00  0.00     0.166 HD
HETATM   18  C   UNL     1      43.841  -8.919  11.214  1.00  0.00    -0.031 A 
HETATM   19  C   UNL     1      41.719 -10.011  11.575  1.00  0.00     0.030 A 
HETATM   20  C   UNL     1      43.579  -8.128  12.355  1.00  0.00     0.009 A 
HETATM   21  C   UNL     1      45.132  -8.662  10.479  1.00  0.00     0.045 C 
HETATM   22  C   UNL     1      42.412  -8.286  13.098  1.00  0.00     0.001 A 
HETATM   23  C   UNL     1      41.482  -9.238  12.712  1.00  0.00     0.002 A 
HETATM   24  C   UNL     1      45.851  -9.935  10.047  1.00  0.00     0.045 C 
HETATM   25  C   UNL     1      46.163 -10.667   7.669  1.00  0.00     0.012 A 
HETATM   26  C   UNL     1      45.692 -11.149   6.446  1.00  0.00     0.030 A 
ENDBRANCH   8  11
ENDBRANCH   1   7
BRANCH   2  27
HETATM   27  C   UNL     1      41.778 -14.110   3.779  1.00  0.00     0.277 C 
BRANCH  27  28
HETATM   28  C   UNL     1      42.439 -15.461   3.745  1.00  0.00     0.006 A 
HETATM   29  C   UNL     1      43.276 -15.846   4.795  1.00  0.00     0.124 A 
HETATM   30  F   UNL     1      43.503 -14.980   5.794  1.00  0.00    -0.206 F 
HETATM   31  C   UNL     1      43.912 -17.082   4.805  1.00  0.00     0.043 A 
HETATM   32  C   UNL     1      43.714 -17.959   3.742  1.00  0.00     0.003 A 
HETATM   33  C   UNL     1      42.885 -17.593   2.679  1.00  0.00     0.001 A 
HETATM   34  C   UNL     1      42.246 -16.350   2.679  1.00  0.00     0.012 A 
ENDBRANCH  27  28
ENDBRANCH   2  27
BRANCH   5  35
HETATM   35  S   UNL     1      39.890 -11.024   0.041  1.00  0.00    -0.084 SA
BRANCH  35  36
HETATM   36  C   UNL     1      39.504 -12.229  -1.205  1.00  0.00     0.188 A 
HETATM   37  N   UNL     1      40.521 -12.820  -1.854  1.00  0.00    -0.235 NA
HETATM   38  C   UNL     1      40.172 -13.739  -2.780  1.00  0.00     0.121 A 
HETATM   39  C   UNL     1      38.872 -14.101  -3.042  1.00  0.00     0.038 A 
HETATM   40  C   UNL     1      37.917 -13.455  -2.295  1.00  0.00     0.121 A 
HETATM   41  N   UNL     1      38.209 -12.526  -1.367  1.00  0.00    -0.235 NA
ENDBRANCH  35  36
ENDBRANCH   5  35
TORSDOF 6
ENDMDL
MODEL 2
REMARK VINA RESULT:      -9.8      3.917      9.311
REMARK  6 active torsions:
REMARK  status: ('A' for Active; 'I' for Inactive)
REMARK    1  A    between atoms: C_11  and  N_12 
REMARK       I    between atoms: N_12  and  C_13 
REMARK    2  A    between atoms: C_13  and  C_14 
REMARK    3  A    between atoms: N_15  and  C_17 
REMARK    4  A    between atoms: C_17  and  C_18 
REMARK    5  A    between atoms: C_26  and  S_27 
REMARK    6  A    between atoms: S_27  and  C_28 
ROOT
HETATM    1  C   UNL     1      41.446 -15.471   5.174  1.00  0.00     0.281 C 
HETATM    2  N   UNL     1      42.879 -16.096   5.194  1.00  0.00    -0.053 N 
HETATM    3  H   UNL     1      42.828 -16.900   5.837  1.00  0.00     0.281 HD
HETATM    4  C   UNL     1      43.801 -15.070   5.822  1.00  0.00     0.252 C 
HETATM    5  C   UNL     1      42.880 -14.252   6.710  1.00  0.00     0.083 C 
HETATM    6  C   UNL     1      41.647 -14.099   5.831  1.00  0.00     0.060 C 
ENDROOT
BRANCH   1   7
HETATM    7  C   UNL     1      40.729 -15.383   3.801  1.00  0.00     0.253 C 
HETATM    8  N   UNL     1      40.897 -14.182   3.129  1.00  0.00    -0.325 N 
HETATM    9  H   UNL     1      41.391 -13.422   3.582  1.00  0.00     0.169 HD
HETATM   10  O   UNL     1      40.040 -16.319   3.403  1.00  0.00    -0.271 OA
BRANCH   8  11
HETATM   11  C   UNL     1      40.493 -13.891   1.800  1.00  0.00     0.036 A 
HETATM   12  C   UNL     1      39.838 -12.719   1.415  1.00  0.00     0.059 A 
HETATM   13  C   UNL     1      39.388 -12.504   0.094  1.00  0.00     0.041 A 
HETATM   14  N   UNL     1      38.688 -11.311  -0.154  1.00  0.00    -0.355 N 
HETATM   15  C   UNL     1      39.593 -13.513  -0.850  1.00  0.00    -0.031 A 
HETATM   16  C   UNL     1      37.752 -10.893  -1.118  1.00  0.00     0.039 A 
HETATM   17  H   UNL     1      38.906 -10.582   0.517  1.00  0.00     0.166 HD
HETATM   18  C   UNL     1      37.213 -11.704  -2.128  1.00  0.00    -0.031 A 
HETATM   19  C   UNL     1      37.299  -9.559  -1.024  1.00  0.00     0.030 A 
HETATM   20  C   UNL     1      36.210 -11.181  -2.973  1.00  0.00     0.009 A 
HETATM   21  C   UNL     1      37.612 -13.142  -2.340  1.00  0.00     0.045 C 
HETATM   22  C   UNL     1      35.769  -9.865  -2.852  1.00  0.00     0.001 A 
HETATM   23  C   UNL     1      36.322  -9.048  -1.881  1.00  0.00     0.002 A 
HETATM   24  C   UNL     1      39.118 -13.373  -2.271  1.00  0.00     0.045 C 
HETATM   25  C   UNL     1      40.287 -14.678  -0.478  1.00  0.00     0.012 A 
HETATM   26  C   UNL     1      40.733 -14.864   0.832  1.00  0.00     0.030 A 
ENDBRANCH   8  11
ENDBRANCH   1   7
BRANCH   2  27
HETATM   27  C   UNL     1      43.432 -16.693   3.917  1.00  0.00     0.277 C 
BRANCH  27  28
HETATM   28  C   UNL     1      43.622 -18.183   3.997  1.00  0.00     0.006 A 
HETATM   29  C   UNL     1      43.505 -18.956   2.838  1.00  0.00     0.124 A 
HETATM   30  F   UNL     1      43.184 -18.350   1.685  1.00  0.00    -0.206 F 
HETATM   31  C   UNL     1      43.667 -20.336   2.863  1.00  0.00     0.043 A 
HETATM   32  C   UNL     1      43.949 -20.968   4.072  1.00  0.00     0.003 A 
HETATM   33  C   UNL     1      44.067 -20.215   5.242  1.00  0.00     0.001 A 
HETATM   34  C   UNL     1      43.907 -18.827   5.208  1.00  0.00     0.012 A 
ENDBRANCH  27  28
ENDBRANCH   2  27
BRANCH   5  35
HETATM   35  S   UNL     1      43.539 -12.617   7.148  1.00  0.00    -0.084 SA
BRANCH  35  36
HETATM   36  C   UNL     1      42.818 -11.626   5.864  1.00  0.00     0.188 A 
HETATM   37  N   UNL     1      41.840 -10.766   6.197  1.00  0.00    -0.235 NA
HETATM   38  C   UNL     1      41.338 -10.026   5.185  1.00  0.00     0.121 A 
HETATM   39  C   UNL     1      41.800 -10.091   3.892  1.00  0.00     0.038 A 
HETATM   40  C   UNL     1      42.824 -10.980   3.674  1.00  0.00     0.121 A 
HETATM   41  N   UNL     1      43.355 -11.748   4.644  1.00  0.00    -0.235 NA
ENDBRANCH  35  36
ENDBRANCH   5  35
TORSDOF 6
ENDMDL
MODEL 3
REMARK VINA RESULT:      -9.6      4.203     10.647
REMARK  6 active torsions:
REMARK  status: ('A' for Active; 'I' for Inactive)
REMARK    1  A    between atoms: C_11  and  N_12 
REMARK       I    between atoms: N_12  and  C_13 
REMARK    2  A    between atoms: C_13  and  C_14 
REMARK    3  A    between atoms: N_15  and  C_17 
REMARK    4  A    between atoms: C_17  and  C_18 
REMARK    5  A    between atoms: C_26  and  S_27 
REMARK    6  A    between atoms: S_27  and  C_28 
ROOT
HETATM    1  C   UNL     1      43.902 -10.246   7.474  1.00  0.00     0.281 C 
HETATM    2  N   UNL     1      42.629  -9.419   7.847  1.00  0.00    -0.053 N 
HETATM    3  H   UNL     1      42.878  -8.431   7.694  1.00  0.00     0.281 HD
HETATM    4  C   UNL     1      42.399  -9.605   9.334  1.00  0.00     0.252 C 
HETATM    5  C   UNL     1      43.784  -9.911   9.877  1.00  0.00     0.083 C 
HETATM    6  C   UNL     1      44.341 -10.848   8.815  1.00  0.00     0.060 C 
ENDROOT
BRANCH   1   7
HETATM    7  C   UNL     1      43.755 -11.310   6.354  1.00  0.00     0.253 C 
HETATM    8  N   UNL     1      43.057 -12.451   6.719  1.00  0.00    -0.325 N 
HETATM    9  H   UNL     1      42.759 -12.567   7.680  1.00  0.00     0.169 HD
HETATM   10  O   UNL     1      44.274 -11.127   5.256  1.00  0.00    -0.271 OA
BRANCH   8  11
HETATM   11  C   UNL     1      42.639 -13.499   5.860  1.00  0.00     0.036 A 
HETATM   12  C   UNL     1      43.044 -14.830   5.987  1.00  0.00     0.059 A 
HETATM   13  C   UNL     1      42.661 -15.828   5.064  1.00  0.00     0.041 A 
HETATM   14  N   UNL     1      43.183 -17.117   5.267  1.00  0.00    -0.355 N 
HETATM   15  C   UNL     1      41.867 -15.457   3.976  1.00  0.00    -0.031 A 
HETATM   16  C   UNL     1      43.418 -18.233   4.442  1.00  0.00     0.039 A 
HETATM   17  H   UNL     1      43.453 -17.283   6.231  1.00  0.00     0.166 HD
HETATM   18  C   UNL     1      43.206 -18.274   3.057  1.00  0.00    -0.031 A 
HETATM   19  C   UNL     1      43.949 -19.383   5.068  1.00  0.00     0.030 A 
HETATM   20  C   UNL     1      43.573 -19.431   2.334  1.00  0.00     0.009 A 
HETATM   21  C   UNL     1      42.642 -17.119   2.268  1.00  0.00     0.045 C 
HETATM   22  C   UNL     1      44.107 -20.547   2.972  1.00  0.00     0.001 A 
HETATM   23  C   UNL     1      44.288 -20.527   4.345  1.00  0.00     0.002 A 
HETATM   24  C   UNL     1      41.441 -16.455   2.933  1.00  0.00     0.045 C 
HETATM   25  C   UNL     1      41.424 -14.127   3.864  1.00  0.00     0.012 A 
HETATM   26  C   UNL     1      41.805 -13.160   4.796  1.00  0.00     0.030 A 
ENDBRANCH   8  11
ENDBRANCH   1   7
BRANCH   2  27
HETATM   27  C   UNL     1      41.372  -9.605   7.023  1.00  0.00     0.277 C 
BRANCH  27  28
HETATM   28  C   UNL     1      41.109  -8.459   6.084  1.00  0.00     0.006 A 
HETATM   29  C   UNL     1      40.709  -7.223   6.599  1.00  0.00     0.124 A 
HETATM   30  F   UNL     1      40.531  -7.100   7.923  1.00  0.00    -0.206 F 
HETATM   31  C   UNL     1      40.450  -6.137   5.771  1.00  0.00     0.043 A 
HETATM   32  C   UNL     1      40.588  -6.282   4.393  1.00  0.00     0.003 A 
HETATM   33  C   UNL     1      40.982  -7.510   3.856  1.00  0.00     0.001 A 
HETATM   34  C   UNL     1      41.245  -8.596   4.696  1.00  0.00     0.012 A 
ENDBRANCH  27  28
ENDBRANCH   2  27
BRANCH   5  35
HETATM   35  S   UNL     1      43.776 -10.737  11.495  1.00  0.00    -0.084 SA
BRANCH  35  36
HETATM   36  C   UNL     1      42.757  -9.616  12.422  1.00  0.00     0.188 A 
HETATM   37  N   UNL     1      43.200  -8.361  12.610  1.00  0.00    -0.235 NA
HETATM   38  C   UNL     1      42.380  -7.546  13.308  1.00  0.00     0.121 A 
HETATM   39  C   UNL     1      41.146  -7.929  13.778  1.00  0.00     0.038 A 
HETATM   40  C   UNL     1      40.782  -9.225  13.498  1.00  0.00     0.121 A 
HETATM   41  N   UNL     1      41.565 -10.080  12.815  1.00  0.00    -0.235 NA
ENDBRANCH  35  36
ENDBRANCH   5  35
TORSDOF 6
ENDMDL
MODEL 4
REMARK VINA RESULT:      -9.6      4.132      7.348
REMARK  6 active torsions:
REMARK  status: ('A' for Active; 'I' for Inactive)
REMARK    1  A    between atoms: C_11  and  N_12 
REMARK       I    between atoms: N_12  and  C_13 
REMARK    2  A    between atoms: C_13  and  C_14 
REMARK    3  A    between atoms: N_15  and  C_17 
REMARK    4  A    between atoms: C_17  and  C_18 
REMARK    5  A    between atoms: C_26  and  S_27 
REMARK    6  A    between atoms: S_27  and  C_28 
ROOT
HETATM    1  C   UNL     1      41.866 -10.442   2.326  1.00  0.00     0.281 C 
HETATM    2  N   UNL     1      41.159 -11.054   1.072  1.00  0.00    -0.053 N 
HETATM    3  H   UNL     1      41.476 -10.494   0.267  1.00  0.00     0.281 HD
HETATM    4  C   UNL     1      39.672 -10.808   1.238  1.00  0.00     0.252 C 
HETATM    5  C   UNL     1      39.606  -9.573   2.119  1.00  0.00     0.083 C 
HETATM    6  C   UNL     1      40.704  -9.850   3.135  1.00  0.00     0.060 C 
ENDROOT
BRANCH   1   7
HETATM    7  C   UNL     1      42.767 -11.386   3.165  1.00  0.00     0.253 C 
HETATM    8  N   UNL     1      42.085 -12.332   3.915  1.00  0.00    -0.325 N 
HETATM    9  H   UNL     1      41.072 -12.311   3.943  1.00  0.00     0.169 HD
HETATM   10  O   UNL     1      43.986 -11.238   3.163  1.00  0.00    -0.271 OA
BRANCH   8  11
HETATM   11  C   UNL     1      42.655 -13.411   4.638  1.00  0.00     0.036 A 
HETATM   12  C   UNL     1      42.971 -14.652   4.080  1.00  0.00     0.059 A 
HETATM   13  C   UNL     1      43.469 -15.723   4.853  1.00  0.00     0.041 A 
HETATM   14  N   UNL     1      43.691 -16.940   4.187  1.00  0.00    -0.355 N 
HETATM   15  C   UNL     1      43.628 -15.532   6.228  1.00  0.00    -0.031 A 
HETATM   16  C   UNL     1      43.758 -18.289   4.583  1.00  0.00     0.039 A 
HETATM   17  H   UNL     1      43.836 -16.820   3.191  1.00  0.00     0.166 HD
HETATM   18  C   UNL     1      43.533 -18.763   5.883  1.00  0.00    -0.031 A 
HETATM   19  C   UNL     1      44.038 -19.233   3.570  1.00  0.00     0.030 A 
HETATM   20  C   UNL     1      43.541 -20.155   6.123  1.00  0.00     0.009 A 
HETATM   21  C   UNL     1      43.229 -17.864   7.055  1.00  0.00     0.045 C 
HETATM   22  C   UNL     1      43.805 -21.068   5.105  1.00  0.00     0.001 A 
HETATM   23  C   UNL     1      44.064 -20.605   3.826  1.00  0.00     0.002 A 
HETATM   24  C   UNL     1      44.126 -16.633   7.126  1.00  0.00     0.045 C 
HETATM   25  C   UNL     1      43.350 -14.273   6.789  1.00  0.00     0.012 A 
HETATM   26  C   UNL     1      42.869 -13.224   6.002  1.00  0.00     0.030 A 
ENDBRANCH   8  11
ENDBRANCH   1   7
BRANCH   2  27
HETATM   27  C   UNL     1      41.486 -12.477   0.673  1.00  0.00     0.277 C 
BRANCH  27  28
HETATM   28  C   UNL     1      40.760 -12.923  -0.567  1.00  0.00     0.006 A 
HETATM   29  C   UNL     1      39.910 -14.031  -0.507  1.00  0.00     0.124 A 
HETATM   30  F   UNL     1      39.794 -14.697   0.652  1.00  0.00    -0.206 F 
HETATM   31  C   UNL     1      39.221 -14.483  -1.626  1.00  0.00     0.043 A 
HETATM   32  C   UNL     1      39.383 -13.820  -2.840  1.00  0.00     0.003 A 
HETATM   33  C   UNL     1      40.231 -12.713  -2.923  1.00  0.00     0.001 A 
HETATM   34  C   UNL     1      40.916 -12.262  -1.792  1.00  0.00     0.012 A 
ENDBRANCH  27  28
ENDBRANCH   2  27
BRANCH   5  35
HETATM   35  S   UNL     1      38.014  -9.355   2.965  1.00  0.00    -0.084 SA
BRANCH  35  36
HETATM   36  C   UNL     1      36.990  -8.860   1.601  1.00  0.00     0.188 A 
HETATM   37  N   UNL     1      37.138  -7.617   1.113  1.00  0.00    -0.235 NA
HETATM   38  C   UNL     1      36.346  -7.298   0.067  1.00  0.00     0.121 A 
HETATM   39  C   UNL     1      35.463  -8.176  -0.515  1.00  0.00     0.038 A 
HETATM   40  C   UNL     1      35.420  -9.430   0.044  1.00  0.00     0.121 A 
HETATM   41  N   UNL     1      36.180  -9.797   1.093  1.00  0.00    -0.235 NA
ENDBRANCH  35  36
ENDBRANCH   5  35
TORSDOF 6
ENDMDL
MODEL 5
REMARK VINA RESULT:      -9.6      1.927      2.995
REMARK  6 active torsions:
REMARK  status: ('A' for Active; 'I' for Inactive)
REMARK    1  A    between atoms: C_11  and  N_12 
REMARK       I    between atoms: N_12  and  C_13 
REMARK    2  A    between atoms: C_13  and  C_14 
REMARK    3  A    between atoms: N_15  and  C_17 
REMARK    4  A    between atoms: C_17  and  C_18 
REMARK    5  A    between atoms: C_26  and  S_27 
REMARK    6  A    between atoms: S_27  and  C_28 
ROOT
HETATM    1  C   UNL     1      42.489 -11.989   3.316  1.00  0.00     0.281 C 
HETATM    2  N   UNL     1      42.035 -13.368   2.734  1.00  0.00    -0.053 N 
HETATM    3  H   UNL     1      42.886 -13.810   2.356  1.00  0.00     0.281 HD
HETATM    4  C   UNL     1      41.117 -13.076   1.564  1.00  0.00     0.252 C 
HETATM    5  C   UNL     1      41.568 -11.706   1.085  1.00  0.00     0.083 C 
HETATM    6  C   UNL     1      41.798 -10.972   2.398  1.00  0.00     0.060 C 
ENDROOT
BRANCH   1   7
HETATM    7  C   UNL     1      42.214 -11.729   4.821  1.00  0.00     0.253 C 
HETATM    8  N   UNL     1      41.499 -10.573   5.094  1.00  0.00    -0.325 N 
HETATM    9  H   UNL     1      41.269  -9.939   4.337  1.00  0.00     0.169 HD
HETATM   10  O   UNL     1      42.657 -12.497   5.671  1.00  0.00    -0.271 OA
BRANCH   8  11
HETATM   11  C   UNL     1      40.975 -10.178   6.351  1.00  0.00     0.036 A 
HETATM   12  C   UNL     1      41.734  -9.611   7.377  1.00  0.00     0.059 A 
HETATM   13  C   UNL     1      41.185  -9.301   8.641  1.00  0.00     0.041 A 
HETATM   14  N   UNL     1      42.065  -8.790   9.610  1.00  0.00    -0.355 N 
HETATM   15  C   UNL     1      39.839  -9.596   8.870  1.00  0.00    -0.031 A 
HETATM   16  C   UNL     1      42.075  -8.749  11.016  1.00  0.00     0.039 A 
HETATM   17  H   UNL     1      42.883  -8.350   9.202  1.00  0.00     0.166 HD
HETATM   18  C   UNL     1      41.112  -9.334  11.850  1.00  0.00    -0.031 A 
HETATM   19  C   UNL     1      43.171  -8.096  11.623  1.00  0.00     0.030 A 
HETATM   20  C   UNL     1      41.294  -9.297  13.251  1.00  0.00     0.009 A 
HETATM   21  C   UNL     1      39.894 -10.057  11.333  1.00  0.00     0.045 C 
HETATM   22  C   UNL     1      42.390  -8.659  13.825  1.00  0.00     0.001 A 
HETATM   23  C   UNL     1      43.328  -8.048  13.009  1.00  0.00     0.002 A 
HETATM   24  C   UNL     1      39.186  -9.323  10.199  1.00  0.00     0.045 C 
HETATM   25  C   UNL     1      39.060 -10.130   7.828  1.00  0.00     0.012 A 
HETATM   26  C   UNL     1      39.622 -10.417   6.583  1.00  0.00     0.030 A 
ENDBRANCH   8  11
ENDBRANCH   1   7
BRANCH   2  27
HETATM   27  C   UNL     1      41.479 -14.412   3.681  1.00  0.00     0.277 C 
BRANCH  27  28
HETATM   28  C   UNL     1      42.247 -15.705   3.648  1.00  0.00     0.006 A 
HETATM   29  C   UNL     1      41.975 -16.643   2.648  1.00  0.00     0.124 A 
HETATM   30  F   UNL     1      41.003 -16.381   1.761  1.00  0.00    -0.206 F 
HETATM   31  C   UNL     1      42.654 -17.854   2.580  1.00  0.00     0.043 A 
HETATM   32  C   UNL     1      43.628 -18.144   3.532  1.00  0.00     0.003 A 
HETATM   33  C   UNL     1      43.913 -17.223   4.543  1.00  0.00     0.001 A 
HETATM   34  C   UNL     1      43.228 -16.006   4.601  1.00  0.00     0.012 A 
ENDBRANCH  27  28
ENDBRANCH   2  27
BRANCH   5  35
HETATM   35  S   UNL     1      40.329 -10.829   0.089  1.00  0.00    -0.084 SA
BRANCH  35  36
HETATM   36  C   UNL     1      39.874 -12.108  -1.056  1.00  0.00     0.188 A 
HETATM   37  N   UNL     1      38.615 -12.577  -1.018  1.00  0.00    -0.235 NA
HETATM   38  C   UNL     1      38.318 -13.538  -1.920  1.00  0.00     0.121 A 
HETATM   39  C   UNL     1      39.209 -14.002  -2.859  1.00  0.00     0.038 A 
HETATM   40  C   UNL     1      40.456 -13.427  -2.826  1.00  0.00     0.121 A 
HETATM   41  N   UNL     1      40.807 -12.474  -1.943  1.00  0.00    -0.235 NA
ENDBRANCH  35  36
ENDBRANCH   5  35
TORSDOF 6
ENDMDL
MODEL 6
REMARK VINA RESULT:      -9.6      2.552     10.407
REMARK  6 active torsions:
REMARK  status: ('A' for Active; 'I' for Inactive)
REMARK    1  A    between atoms: C_11  and  N_12 
REMARK       I    between atoms: N_12  and  C_13 
REMARK    2  A    between atoms: C_13  and  C_14 
REMARK    3  A    between atoms: N_15  and  C_17 
REMARK    4  A    between atoms: C_17  and  C_18 
REMARK    5  A    between atoms: C_26  and  S_27 
REMARK    6  A    between atoms: S_27  and  C_28 
ROOT
HETATM    1  C   UNL     1      41.036 -13.897   4.662  1.00  0.00     0.281 C 
HETATM    2  N   UNL     1      42.575 -14.173   4.700  1.00  0.00    -0.053 N 
HETATM    3  H   UNL     1      42.719 -14.874   5.441  1.00  0.00     0.281 HD
HETATM    4  C   UNL     1      43.245 -12.891   5.151  1.00  0.00     0.252 C 
HETATM    5  C   UNL     1      42.172 -12.191   5.967  1.00  0.00     0.083 C 
HETATM    6  C   UNL     1      40.925 -12.440   5.130  1.00  0.00     0.060 C 
ENDROOT
BRANCH   1   7
HETATM    7  C   UNL     1      40.300 -14.158   3.321  1.00  0.00     0.253 C 
HETATM    8  N   UNL     1      40.282 -13.084   2.445  1.00  0.00    -0.325 N 
HETATM    9  H   UNL     1      40.663 -12.193   2.741  1.00  0.00     0.169 HD
HETATM   10  O   UNL     1      39.754 -15.239   3.117  1.00  0.00    -0.271 OA
BRANCH   8  11
HETATM   11  C   UNL     1      39.827 -13.094   1.102  1.00  0.00     0.036 A 
HETATM   12  C   UNL     1      38.994 -12.121   0.545  1.00  0.00     0.059 A 
HETATM   13  C   UNL     1      38.505 -12.211  -0.777  1.00  0.00     0.041 A 
HETATM   14  N   UNL     1      37.626 -11.200  -1.201  1.00  0.00    -0.355 N 
HETATM   15  C   UNL     1      38.856 -13.327  -1.540  1.00  0.00    -0.031 A 
HETATM   16  C   UNL     1      36.628 -11.104  -2.188  1.00  0.00     0.039 A 
HETATM   17  H   UNL     1      37.734 -10.340  -0.673  1.00  0.00     0.166 HD
HETATM   18  C   UNL     1      36.213 -12.151  -3.024  1.00  0.00    -0.031 A 
HETATM   19  C   UNL     1      35.974  -9.858  -2.309  1.00  0.00     0.030 A 
HETATM   20  C   UNL     1      35.133 -11.942  -3.910  1.00  0.00     0.009 A 
HETATM   21  C   UNL     1      36.829 -13.527  -3.000  1.00  0.00     0.045 C 
HETATM   22  C   UNL     1      34.495 -10.707  -4.001  1.00  0.00     0.001 A 
HETATM   23  C   UNL     1      34.922  -9.659  -3.204  1.00  0.00     0.002 A 
HETATM   24  C   UNL     1      38.352 -13.511  -2.947  1.00  0.00     0.045 C 
HETATM   25  C   UNL     1      39.726 -14.290  -0.999  1.00  0.00     0.012 A 
HETATM   26  C   UNL     1      40.207 -14.174   0.307  1.00  0.00     0.030 A 
ENDBRANCH   8  11
ENDBRANCH   1   7
BRANCH   2  27
HETATM   27  C   UNL     1      43.234 -14.794   3.486  1.00  0.00     0.277 C 
BRANCH  27  28
HETATM   28  C   UNL     1      43.494 -16.267   3.645  1.00  0.00     0.006 A 
HETATM   29  C   UNL     1      43.343 -17.117   2.546  1.00  0.00     0.124 A 
HETATM   30  F   UNL     1      42.930 -16.599   1.379  1.00  0.00    -0.206 F 
HETATM   31  C   UNL     1      43.567 -18.485   2.645  1.00  0.00     0.043 A 
HETATM   32  C   UNL     1      43.947 -19.026   3.871  1.00  0.00     0.003 A 
HETATM   33  C   UNL     1      44.099 -18.196   4.984  1.00  0.00     0.001 A 
HETATM   34  C   UNL     1      43.876 -16.821   4.874  1.00  0.00     0.012 A 
ENDBRANCH  27  28
ENDBRANCH   2  27
BRANCH   5  35
HETATM   35  S   UNL     1      42.442 -10.406   6.165  1.00  0.00    -0.084 SA
BRANCH  35  36
HETATM   36  C   UNL     1      43.647 -10.407   7.470  1.00  0.00     0.188 A 
HETATM   37  N   UNL     1      44.932 -10.640   7.149  1.00  0.00    -0.235 NA
HETATM   38  C   UNL     1      45.808 -10.615   8.177  1.00  0.00     0.121 A 
HETATM   39  C   UNL     1      45.451 -10.332   9.475  1.00  0.00     0.038 A 
HETATM   40  C   UNL     1      44.117 -10.077   9.679  1.00  0.00     0.121 A 
HETATM   41  N   UNL     1      43.201 -10.099   8.694  1.00  0.00    -0.235 NA
ENDBRANCH  35  36
ENDBRANCH   5  35
TORSDOF 6
ENDMDL
MODEL 7
REMARK VINA RESULT:      -9.5      3.395      7.601
REMARK  6 active torsions:
REMARK  status: ('A' for Active; 'I' for Inactive)
REMARK    1  A    between atoms: C_11  and  N_12 
REMARK       I    between atoms: N_12  and  C_13 
REMARK    2  A    between atoms: C_13  and  C_14 
REMARK    3  A    between atoms: N_15  and  C_17 
REMARK    4  A    between atoms: C_17  and  C_18 
REMARK    5  A    between atoms: C_26  and  S_27 
REMARK    6  A    between atoms: S_27  and  C_28 
ROOT
HETATM    1  C   UNL     1      39.069 -11.540   2.345  1.00  0.00     0.281 C 
HETATM    2  N   UNL     1      39.232  -9.986   2.391  1.00  0.00    -0.053 N 
HETATM    3  H   UNL     1      38.630  -9.660   3.160  1.00  0.00     0.281 HD
HETATM    4  C   UNL     1      38.653  -9.442   1.100  1.00  0.00     0.252 C 
HETATM    5  C   UNL     1      37.632 -10.489   0.692  1.00  0.00     0.083 C 
HETATM    6  C   UNL     1      38.367 -11.785   1.004  1.00  0.00     0.060 C 
ENDROOT
BRANCH   1   7
HETATM    7  C   UNL     1      40.353 -12.395   2.519  1.00  0.00     0.253 C 
HETATM    8  N   UNL     1      40.535 -12.927   3.787  1.00  0.00    -0.325 N 
HETATM    9  H   UNL     1      39.892 -12.677   4.529  1.00  0.00     0.169 HD
HETATM   10  O   UNL     1      41.139 -12.524   1.585  1.00  0.00    -0.271 OA
BRANCH   8  11
HETATM   11  C   UNL     1      41.523 -13.866   4.176  1.00  0.00     0.036 A 
HETATM   12  C   UNL     1      41.826 -15.030   3.467  1.00  0.00     0.059 A 
HETATM   13  C   UNL     1      42.767 -15.975   3.931  1.00  0.00     0.041 A 
HETATM   14  N   UNL     1      42.940 -17.136   3.157  1.00  0.00    -0.355 N 
HETATM   15  C   UNL     1      43.396 -15.739   5.156  1.00  0.00    -0.031 A 
HETATM   16  C   UNL     1      43.397 -18.441   3.416  1.00  0.00     0.039 A 
HETATM   17  H   UNL     1      42.672 -17.003   2.188  1.00  0.00     0.166 HD
HETATM   18  C   UNL     1      43.771 -18.933   4.675  1.00  0.00    -0.031 A 
HETATM   19  C   UNL     1      43.441 -19.327   2.317  1.00  0.00     0.030 A 
HETATM   20  C   UNL     1      44.124 -20.294   4.809  1.00  0.00     0.009 A 
HETATM   21  C   UNL     1      43.774 -18.094   5.928  1.00  0.00     0.045 C 
HETATM   22  C   UNL     1      44.146 -21.151   3.712  1.00  0.00     0.001 A 
HETATM   23  C   UNL     1      43.812 -20.664   2.460  1.00  0.00     0.002 A 
HETATM   24  C   UNL     1      44.389 -16.712   5.734  1.00  0.00     0.045 C 
HETATM   25  C   UNL     1      43.125 -14.550   5.856  1.00  0.00     0.012 A 
HETATM   26  C   UNL     1      42.199 -13.624   5.371  1.00  0.00     0.030 A 
ENDBRANCH   8  11
ENDBRANCH   1   7
BRANCH   2  27
HETATM   27  C   UNL     1      40.590  -9.405   2.726  1.00  0.00     0.277 C 
BRANCH  27  28
HETATM   28  C   UNL     1      40.862  -9.359   4.205  1.00  0.00     0.006 A 
HETATM   29  C   UNL     1      42.034  -9.929   4.709  1.00  0.00     0.124 A 
HETATM   30  F   UNL     1      42.873 -10.542   3.860  1.00  0.00    -0.206 F 
HETATM   31  C   UNL     1      42.326  -9.916   6.067  1.00  0.00     0.043 A 
HETATM   32  C   UNL     1      41.429  -9.323   6.952  1.00  0.00     0.003 A 
HETATM   33  C   UNL     1      40.249  -8.751   6.470  1.00  0.00     0.001 A 
HETATM   34  C   UNL     1      39.965  -8.765   5.102  1.00  0.00     0.012 A 
ENDBRANCH  27  28
ENDBRANCH   2  27
BRANCH   5  35
HETATM   35  S   UNL     1      37.182 -10.435  -1.067  1.00  0.00    -0.084 SA
BRANCH  35  36
HETATM   36  C   UNL     1      38.205 -11.741  -1.700  1.00  0.00     0.188 A 
HETATM   37  N   UNL     1      37.634 -12.932  -1.950  1.00  0.00    -0.235 NA
HETATM   38  C   UNL     1      38.454 -13.884  -2.445  1.00  0.00     0.121 A 
HETATM   39  C   UNL     1      39.783 -13.674  -2.725  1.00  0.00     0.038 A 
HETATM   40  C   UNL     1      40.251 -12.409  -2.462  1.00  0.00     0.121 A 
HETATM   41  N   UNL     1      39.480 -11.427  -1.960  1.00  0.00    -0.235 NA
ENDBRANCH  35  36
ENDBRANCH   5  35
TORSDOF 6
ENDMDL
MODEL 8
REMARK VINA RESULT:      -9.4      2.692     10.053
REMARK  6 active torsions:
REMARK  status: ('A' for Active; 'I' for Inactive)
REMARK    1  A    between atoms: C_11  and  N_12 
REMARK       I    between atoms: N_12  and  C_13 
REMARK    2  A    between atoms: C_13  and  C_14 
REMARK    3  A    between atoms: N_15  and  C_17 
REMARK    4  A    between atoms: C_17  and  C_18 
REMARK    5  A    between atoms: C_26  and  S_27 
REMARK    6  A    between atoms: S_27  and  C_28 
ROOT
HETATM    1  C   UNL     1      41.437 -13.177   5.346  1.00  0.00     0.281 C 
HETATM    2  N   UNL     1      42.193 -14.536   5.510  1.00  0.00    -0.053 N 
HETATM    3  H   UNL     1      41.788 -14.988   6.342  1.00  0.00     0.281 HD
HETATM    4  C   UNL     1      43.637 -14.204   5.832  1.00  0.00     0.252 C 
HETATM    5  C   UNL     1      43.555 -12.836   6.486  1.00  0.00     0.083 C 
HETATM    6  C   UNL     1      42.525 -12.130   5.616  1.00  0.00     0.060 C 
ENDROOT
BRANCH   1   7
HETATM    7  C   UNL     1      40.688 -12.938   4.008  1.00  0.00     0.253 C 
HETATM    8  N   UNL     1      41.501 -12.866   2.887  1.00  0.00    -0.325 N 
HETATM    9  H   UNL     1      42.507 -12.892   2.999  1.00  0.00     0.169 HD
HETATM   10  O   UNL     1      39.469 -12.787   4.001  1.00  0.00    -0.271 OA
BRANCH   8  11
HETATM   11  C   UNL     1      41.076 -12.818   1.535  1.00  0.00     0.036 A 
HETATM   12  C   UNL     1      41.248 -11.715   0.695  1.00  0.00     0.059 A 
HETATM   13  C   UNL     1      40.742 -11.683  -0.624  1.00  0.00     0.041 A 
HETATM   14  N   UNL     1      40.927 -10.493  -1.348  1.00  0.00    -0.355 N 
HETATM   15  C   UNL     1      40.028 -12.790  -1.088  1.00  0.00    -0.031 A 
HETATM   16  C   UNL     1      40.277  -9.885  -2.438  1.00  0.00     0.039 A 
HETATM   17  H   UNL     1      41.709  -9.945  -1.006  1.00  0.00     0.166 HD
HETATM   18  C   UNL     1      39.128 -10.378  -3.072  1.00  0.00    -0.031 A 
HETATM   19  C   UNL     1      40.814  -8.660  -2.893  1.00  0.00     0.030 A 
HETATM   20  C   UNL     1      38.523  -9.616  -4.097  1.00  0.00     0.009 A 
HETATM   21  C   UNL     1      38.457 -11.672  -2.688  1.00  0.00     0.045 C 
HETATM   22  C   UNL     1      39.064  -8.405  -4.519  1.00  0.00     0.001 A 
HETATM   23  C   UNL     1      40.219  -7.929  -3.921  1.00  0.00     0.002 A 
HETATM   24  C   UNL     1      39.433 -12.823  -2.470  1.00  0.00     0.045 C 
HETATM   25  C   UNL     1      39.886 -13.919  -0.261  1.00  0.00     0.012 A 
HETATM   26  C   UNL     1      40.405 -13.933   1.035  1.00  0.00     0.030 A 
ENDBRANCH   8  11
ENDBRANCH   1   7
BRANCH   2  27
HETATM   27  C   UNL     1      42.051 -15.585   4.426  1.00  0.00     0.277 C 
BRANCH  27  28
HETATM   28  C   UNL     1      42.764 -16.869   4.753  1.00  0.00     0.006 A 
HETATM   29  C   UNL     1      43.498 -17.522   3.758  1.00  0.00     0.124 A 
HETATM   30  F   UNL     1      43.514 -17.006   2.520  1.00  0.00    -0.206 F 
HETATM   31  C   UNL     1      44.169 -18.713   4.011  1.00  0.00     0.043 A 
HETATM   32  C   UNL     1      44.108 -19.273   5.285  1.00  0.00     0.003 A 
HETATM   33  C   UNL     1      43.377 -18.639   6.292  1.00  0.00     0.001 A 
HETATM   34  C   UNL     1      42.709 -17.440   6.031  1.00  0.00     0.012 A 
ENDBRANCH  27  28
ENDBRANCH   2  27
BRANCH   5  35
HETATM   35  S   UNL     1      45.121 -11.916   6.470  1.00  0.00    -0.084 SA
BRANCH  35  36
HETATM   36  C   UNL     1      44.896 -10.873   7.890  1.00  0.00     0.188 A 
HETATM   37  N   UNL     1      44.067 -11.293   8.861  1.00  0.00    -0.235 NA
HETATM   38  C   UNL     1      43.944 -10.469   9.925  1.00  0.00     0.121 A 
HETATM   39  C   UNL     1      44.637  -9.289  10.058  1.00  0.00     0.038 A 
HETATM   40  C   UNL     1      45.480  -8.978   9.019  1.00  0.00     0.121 A 
HETATM   41  N   UNL     1      45.633  -9.757   7.933  1.00  0.00    -0.235 NA
ENDBRANCH  35  36
ENDBRANCH   5  35
TORSDOF 6
ENDMDL
MODEL 9
REMARK VINA RESULT:      -9.4      3.552      9.299
REMARK  6 active torsions:
REMARK  status: ('A' for Active; 'I' for Inactive)
REMARK    1  A    between atoms: C_11  and  N_12 
REMARK       I    between atoms: N_12  and  C_13 
REMARK    2  A    between atoms: C_13  and  C_14 
REMARK    3  A    between atoms: N_15  and  C_17 
REMARK    4  A    between atoms: C_17  and  C_18 
REMARK    5  A    between atoms: C_26  and  S_27 
REMARK    6  A    between atoms: S_27  and  C_28 
ROOT
HETATM    1  C   UNL     1      40.489 -14.912   3.105  1.00  0.00     0.281 C 
HETATM    2  N   UNL     1      41.673 -15.609   3.852  1.00  0.00    -0.053 N 
HETATM    3  H   UNL     1      41.314 -16.525   4.159  1.00  0.00     0.281 HD
HETATM    4  C   UNL     1      41.955 -14.791   5.096  1.00  0.00     0.252 C 
HETATM    5  C   UNL     1      40.624 -14.124   5.399  1.00  0.00     0.083 C 
HETATM    6  C   UNL     1      40.149 -13.721   4.010  1.00  0.00     0.060 C 
ENDROOT
BRANCH   1   7
HETATM    7  C   UNL     1      40.726 -14.499   1.628  1.00  0.00     0.253 C 
HETATM    8  N   UNL     1      40.292 -13.224   1.300  1.00  0.00    -0.325 N 
HETATM    9  H   UNL     1      39.790 -12.676   1.989  1.00  0.00     0.169 HD
HETATM   10  O   UNL     1      41.225 -15.295   0.837  1.00  0.00    -0.271 OA
BRANCH   8  11
HETATM   11  C   UNL     1      40.526 -12.537   0.081  1.00  0.00     0.036 A 
HETATM   12  C   UNL     1      41.315 -11.391  -0.038  1.00  0.00     0.059 A 
HETATM   13  C   UNL     1      41.460 -10.697  -1.259  1.00  0.00     0.041 A 
HETATM   14  N   UNL     1      42.231  -9.522  -1.236  1.00  0.00    -0.355 N 
HETATM   15  C   UNL     1      40.769 -11.169  -2.378  1.00  0.00    -0.031 A 
HETATM   16  C   UNL     1      42.295  -8.363  -2.031  1.00  0.00     0.039 A 
HETATM   17  H   UNL     1      42.895  -9.505  -0.470  1.00  0.00     0.166 HD
HETATM   18  C   UNL     1      41.455  -8.079  -3.117  1.00  0.00    -0.031 A 
HETATM   19  C   UNL     1      43.263  -7.399  -1.669  1.00  0.00     0.030 A 
HETATM   20  C   UNL     1      41.568  -6.832  -3.772  1.00  0.00     0.009 A 
HETATM   21  C   UNL     1      40.385  -9.020  -3.609  1.00  0.00     0.045 C 
HETATM   22  C   UNL     1      42.521  -5.892  -3.387  1.00  0.00     0.001 A 
HETATM   23  C   UNL     1      43.378  -6.180  -2.339  1.00  0.00     0.002 A 
HETATM   24  C   UNL     1      40.848 -10.469  -3.708  1.00  0.00     0.045 C 
HETATM   25  C   UNL     1      40.006 -12.345  -2.274  1.00  0.00     0.012 A 
HETATM   26  C   UNL     1      39.886 -13.022  -1.058  1.00  0.00     0.030 A 
ENDBRANCH   8  11
ENDBRANCH   1   7
BRANCH   2  27
HETATM   27  C   UNL     1      42.924 -15.956   3.071  1.00  0.00     0.277 C 
BRANCH  27  28
HETATM   28  C   UNL     1      43.257 -17.423   3.116  1.00  0.00     0.006 A 
HETATM   29  C   UNL     1      44.027 -17.923   4.169  1.00  0.00     0.124 A 
HETATM   30  F   UNL     1      44.486 -17.071   5.098  1.00  0.00    -0.206 F 
HETATM   31  C   UNL     1      44.365 -19.269   4.251  1.00  0.00     0.043 A 
HETATM   32  C   UNL     1      43.929 -20.142   3.257  1.00  0.00     0.003 A 
HETATM   33  C   UNL     1      43.162 -19.663   2.193  1.00  0.00     0.001 A 
HETATM   34  C   UNL     1      42.823 -18.309   2.121  1.00  0.00     0.012 A 
ENDBRANCH  27  28
ENDBRANCH   2  27
BRANCH   5  35
HETATM   35  S   UNL     1      40.759 -12.657   6.461  1.00  0.00    -0.084 SA
BRANCH  35  36
HETATM   36  C   UNL     1      42.444 -12.188   6.148  1.00  0.00     0.188 A 
HETATM   37  N   UNL     1      43.371 -12.494   7.072  1.00  0.00    -0.235 NA
HETATM   38  C   UNL     1      44.637 -12.129   6.777  1.00  0.00     0.121 A 
HETATM   39  C   UNL     1      44.999 -11.518   5.600  1.00  0.00     0.038 A 
HETATM   40  C   UNL     1      43.974 -11.285   4.716  1.00  0.00     0.121 A 
HETATM   41  N   UNL     1      42.694 -11.619   4.963  1.00  0.00    -0.235 NA
ENDBRANCH  35  36
ENDBRANCH   5  35
TORSDOF 6
ENDMDL
MODEL 10
REMARK VINA RESULT:      -9.3      3.004      8.025
REMARK  6 active torsions:
REMARK  status: ('A' for Active; 'I' for Inactive)
REMARK    1  A    between atoms: C_11  and  N_12 
REMARK       I    between atoms: N_12  and  C_13 
REMARK    2  A    between atoms: C_13  and  C_14 
REMARK    3  A    between atoms: N_15  and  C_17 
REMARK    4  A    between atoms: C_17  and  C_18 
REMARK    5  A    between atoms: C_26  and  S_27 
REMARK    6  A    between atoms: S_27  and  C_28 
ROOT
HETATM    1  C   UNL     1      39.250 -10.847   5.078  1.00  0.00     0.281 C 
HETATM    2  N   UNL     1      39.858  -9.545   5.694  1.00  0.00    -0.053 N 
HETATM    3  H   UNL     1      39.097  -9.103   6.229  1.00  0.00     0.281 HD
HETATM    4  C   UNL     1      40.196  -8.624   4.539  1.00  0.00     0.252 C 
HETATM    5  C   UNL     1      39.232  -9.049   3.444  1.00  0.00     0.083 C 
HETATM    6  C   UNL     1      39.260 -10.565   3.570  1.00  0.00     0.060 C 
ENDROOT
BRANCH   1   7
HETATM    7  C   UNL     1      39.932 -12.192   5.444  1.00  0.00     0.253 C 
HETATM    8  N   UNL     1      41.095 -12.470   4.742  1.00  0.00    -0.325 N 
HETATM    9  H   UNL     1      41.388 -11.848   3.998  1.00  0.00     0.169 HD
HETATM   10  O   UNL     1      39.417 -12.940   6.272  1.00  0.00    -0.271 OA
BRANCH   8  11
HETATM   11  C   UNL     1      41.997 -13.536   4.986  1.00  0.00     0.036 A 
HETATM   12  C   UNL     1      42.184 -14.622   4.127  1.00  0.00     0.059 A 
HETATM   13  C   UNL     1      43.040 -15.699   4.445  1.00  0.00     0.041 A 
HETATM   14  N   UNL     1      43.096 -16.761   3.526  1.00  0.00    -0.355 N 
HETATM   15  C   UNL     1      43.703 -15.679   5.675  1.00  0.00    -0.031 A 
HETATM   16  C   UNL     1      43.436 -18.124   3.606  1.00  0.00     0.039 A 
HETATM   17  H   UNL     1      42.830 -16.481   2.588  1.00  0.00     0.166 HD
HETATM   18  C   UNL     1      43.778 -18.805   4.783  1.00  0.00    -0.031 A 
HETATM   19  C   UNL     1      43.385 -18.861   2.403  1.00  0.00     0.030 A 
HETATM   20  C   UNL     1      44.007 -20.198   4.735  1.00  0.00     0.009 A 
HETATM   21  C   UNL     1      43.873 -18.137   6.132  1.00  0.00     0.045 C 
HETATM   22  C   UNL     1      43.937 -20.906   3.538  1.00  0.00     0.001 A 
HETATM   23  C   UNL     1      43.634 -20.234   2.366  1.00  0.00     0.002 A 
HETATM   24  C   UNL     1      44.609 -16.803   6.101  1.00  0.00     0.045 C 
HETATM   25  C   UNL     1      43.550 -14.571   6.526  1.00  0.00     0.012 A 
HETATM   26  C   UNL     1      42.707 -13.511   6.185  1.00  0.00     0.030 A 
ENDBRANCH   8  11
ENDBRANCH   1   7
BRANCH   2  27
HETATM   27  C   UNL     1      40.981  -9.671   6.703  1.00  0.00     0.277 C 
BRANCH  27  28
HETATM   28  C   UNL     1      40.585  -9.225   8.084  1.00  0.00     0.006 A 
HETATM   29  C   UNL     1      41.511  -9.306   9.127  1.00  0.00     0.124 A 
HETATM   30  F   UNL     1      42.725  -9.819   8.877  1.00  0.00    -0.206 F 
HETATM   31  C   UNL     1      41.189  -8.911  10.420  1.00  0.00     0.043 A 
HETATM   32  C   UNL     1      39.912  -8.425  10.686  1.00  0.00     0.003 A 
HETATM   33  C   UNL     1      38.969  -8.340   9.659  1.00  0.00     0.001 A 
HETATM   34  C   UNL     1      39.302  -8.735   8.361  1.00  0.00     0.012 A 
ENDBRANCH  27  28
ENDBRANCH   2  27
BRANCH   5  35
HETATM   35  S   UNL     1      39.746  -8.551   1.775  1.00  0.00    -0.084 SA
BRANCH  35  36
HETATM   36  C   UNL     1      39.062  -9.882   0.819  1.00  0.00     0.188 A 
HETATM   37  N   UNL     1      37.771  -9.805   0.453  1.00  0.00    -0.235 NA
HETATM   38  C   UNL     1      37.306 -10.836  -0.285  1.00  0.00     0.121 A 
HETATM   39  C   UNL     1      38.085 -11.894  -0.690  1.00  0.00     0.038 A 
HETATM   40  C   UNL     1      39.397 -11.852  -0.286  1.00  0.00     0.121 A 
HETATM   41  N   UNL     1      39.909 -10.854   0.458  1.00  0.00    -0.235 NA
ENDBRANCH  35  36
ENDBRANCH   5  35
TORSDOF 6
ENDMDL
