MODEL 1
REMARK VINA RESULT:      -8.6      0.000      0.000
REMARK  8 active torsions:
REMARK  status: ('A' for Active; 'I' for Inactive)
REMARK    1  A    between atoms: N_5  and  C_7 
REMARK    2  A    between atoms: C_7  and  C_8 
REMARK    3  A    between atoms: N_9  and  C_10 
REMARK    4  A    between atoms: C_14  and  N_15 
REMARK    5  A    between atoms: C_18  and  C_19 
REMARK       I    between atoms: C_19  and  N_20 
REMARK    6  A    between atoms: N_20  and  N_21 
REMARK    7  A    between atoms: C_22  and  C_23 
REMARK    8  A    between atoms: C_24  and  O_25 
ROOT
HETATM    1  C   UNL     1      42.795 -16.831   4.829  1.00  0.00     0.096 A 
HETATM    2  N   UNL     1      43.636 -17.902   4.521  1.00  0.00    -0.215 N 
HETATM    3  N   UNL     1      44.707 -17.859   5.362  1.00  0.00     0.012 NA
HETATM    4  N   UNL     1      44.642 -16.769   6.106  1.00  0.00    -0.152 NA
HETATM    5  C   UNL     1      43.493 -16.113   5.789  1.00  0.00     0.170 A 
ENDROOT
BRANCH   5   6
HETATM    6  C   UNL     1      43.091 -14.847   6.385  1.00  0.00     0.293 C 
HETATM    7  N   UNL     1      43.889 -13.780   6.022  1.00  0.00    -0.242 N 
HETATM    8  H   UNL     1      44.672 -13.927   5.386  1.00  0.00     0.192 HD
HETATM    9  O   UNL     1      42.104 -14.801   7.120  1.00  0.00    -0.264 OA
BRANCH   7  10
HETATM   10  N   UNL     1      43.653 -12.543   6.540  1.00  0.00    -0.183 NA
HETATM   11  C   UNL     1      44.674 -11.970   7.101  1.00  0.00     0.153 C 
BRANCH  11  12
HETATM   12  C   UNL     1      44.558 -10.635   7.724  1.00  0.00     0.017 A 
HETATM   13  C   UNL     1      45.660  -9.784   7.878  1.00  0.00     0.077 A 
HETATM   14  C   UNL     1      45.503  -8.530   8.462  1.00  0.00     0.039 A 
HETATM   15  C   UNL     1      44.244  -8.119   8.900  1.00  0.00     0.022 A 
HETATM   16  C   UNL     1      43.148  -8.968   8.750  1.00  0.00     0.012 A 
HETATM   17 BR   UNL     1      41.443  -8.410   9.346  1.00  0.00    -0.051 Br
HETATM   18  C   UNL     1      43.294 -10.225   8.163  1.00  0.00     0.034 A 
BRANCH  13  19
HETATM   19  O   UNL     1      46.925 -10.115   7.472  1.00  0.00    -0.360 OA
HETATM   20  H   UNL     1      46.852 -10.582   6.613  1.00  0.00     0.217 HD
ENDBRANCH  13  19
ENDBRANCH  11  12
ENDBRANCH   7  10
ENDBRANCH   5   6
BRANCH   1  21
HETATM   21  C   UNL     1      41.434 -16.593   4.290  1.00  0.00     0.296 C 
BRANCH  21  22
HETATM   22  N   UNL     1      41.409 -15.959   2.917  1.00  0.00    -0.066 N 
HETATM   23  C   UNL     1      40.039 -15.950   2.291  1.00  0.00     0.235 C 
HETATM   24  C   UNL     1      40.112 -15.379   0.882  1.00  0.00     0.032 C 
HETATM   25  C   UNL     1      40.748 -13.985   0.832  1.00  0.00    -0.016 C 
HETATM   26  C   UNL     1      39.817 -12.916   1.411  1.00  0.00     0.010 C 
HETATM   27  C   UNL     1      42.106 -14.007   1.542  1.00  0.00     0.032 C 
HETATM   28  C   UNL     1      42.037 -14.584   2.949  1.00  0.00     0.235 C 
HETATM   29  H   UNL     1      42.042 -16.541   2.332  1.00  0.00     0.280 HD
ENDBRANCH  21  22
ENDBRANCH   1  21
BRANCH   2  30
HETATM   30  C   UNL     1      43.525 -18.875   3.500  1.00  0.00     0.225 A 
HETATM   31  N   UNL     1      43.146 -18.520   2.271  1.00  0.00    -0.081 NA
HETATM   32  O   UNL     1      43.182 -19.718   1.551  1.00  0.00    -0.103 OA
HETATM   33  N   UNL     1      43.605 -20.770   2.352  1.00  0.00    -0.083 NA
HETATM   34  C   UNL     1      43.820 -20.249   3.557  1.00  0.00     0.201 A 
BRANCH  34  35
HETATM   35  N   UNL     1      44.244 -20.947   4.623  1.00  0.00    -0.379 N 
HETATM   36  H   UNL     1      44.631 -20.462   5.429  1.00  0.00     0.158 HD
HETATM   37  H   UNL     1      44.029 -21.929   4.780  1.00  0.00     0.158 HD
ENDBRANCH  34  35
ENDBRANCH   2  30
TORSDOF 8
ENDMDL
MODEL 2
REMARK VINA RESULT:      -8.5      2.956      5.201
REMARK  8 active torsions:
REMARK  status: ('A' for Active; 'I' for Inactive)
REMARK    1  A    between atoms: N_5  and  C_7 
REMARK    2  A    between atoms: C_7  and  C_8 
REMARK    3  A    between atoms: N_9  and  C_10 
REMARK    4  A    between atoms: C_14  and  N_15 
REMARK    5  A    between atoms: C_18  and  C_19 
REMARK       I    between atoms: C_19  and  N_20 
REMARK    6  A    between atoms: N_20  and  N_21 
REMARK    7  A    between atoms: C_22  and  C_23 
REMARK    8  A    between atoms: C_24  and  O_25 
ROOT
HETATM    1  C   UNL     1      42.464 -12.810   4.180  1.00  0.00     0.096 A 
HETATM    2  N   UNL     1      42.217 -12.545   2.832  1.00  0.00    -0.215 N 
HETATM    3  N   UNL     1      42.937 -11.445   2.472  1.00  0.00     0.012 NA
HETATM    4  N   UNL     1      43.537 -10.943   3.537  1.00  0.00    -0.152 NA
HETATM    5  C   UNL     1      43.251 -11.746   4.598  1.00  0.00     0.170 A 
ENDROOT
BRANCH   5   6
HETATM    6  C   UNL     1      43.715 -11.493   5.955  1.00  0.00     0.293 C 
HETATM    7  N   UNL     1      42.905 -10.634   6.671  1.00  0.00    -0.242 N 
HETATM    8  H   UNL     1      42.068 -10.248   6.237  1.00  0.00     0.192 HD
HETATM    9  O   UNL     1      44.735 -12.046   6.367  1.00  0.00    -0.264 OA
BRANCH   7  10
HETATM   10  N   UNL     1      43.243 -10.276   7.941  1.00  0.00    -0.183 NA
HETATM   11  C   UNL     1      42.367  -9.552   8.567  1.00  0.00     0.153 C 
BRANCH  11  12
HETATM   12  C   UNL     1      42.611  -9.073   9.944  1.00  0.00     0.017 A 
HETATM   13  C   UNL     1      43.135  -9.904  10.943  1.00  0.00     0.077 A 
HETATM   14  C   UNL     1      43.358  -9.407  12.224  1.00  0.00     0.039 A 
HETATM   15  C   UNL     1      43.057  -8.077  12.517  1.00  0.00     0.022 A 
HETATM   16  C   UNL     1      42.533  -7.251  11.523  1.00  0.00     0.012 A 
HETATM   17 BR   UNL     1      42.124  -5.449  11.924  1.00  0.00    -0.051 Br
HETATM   18  C   UNL     1      42.308  -7.738  10.236  1.00  0.00     0.034 A 
BRANCH  13  19
HETATM   19  O   UNL     1      43.456 -11.217  10.732  1.00  0.00    -0.360 OA
HETATM   20  H   UNL     1      44.428 -11.308  10.827  1.00  0.00     0.217 HD
ENDBRANCH  13  19
ENDBRANCH  11  12
ENDBRANCH   7  10
ENDBRANCH   5   6
BRANCH   1  21
HETATM   21  C   UNL     1      42.034 -14.008   4.938  1.00  0.00     0.296 C 
BRANCH  21  22
HETATM   22  N   UNL     1      43.025 -15.150   4.916  1.00  0.00    -0.066 N 
HETATM   23  C   UNL     1      43.678 -15.399   6.250  1.00  0.00     0.235 C 
HETATM   24  C   UNL     1      44.722 -16.500   6.124  1.00  0.00     0.032 C 
HETATM   25  C   UNL     1      44.156 -17.798   5.539  1.00  0.00    -0.016 C 
HETATM   26  C   UNL     1      43.250 -18.524   6.539  1.00  0.00     0.010 C 
HETATM   27  C   UNL     1      43.433 -17.503   4.221  1.00  0.00     0.032 C 
HETATM   28  C   UNL     1      42.393 -16.398   4.342  1.00  0.00     0.235 C 
HETATM   29  H   UNL     1      43.757 -14.868   4.230  1.00  0.00     0.280 HD
ENDBRANCH  21  22
ENDBRANCH   1  21
BRANCH   2  30
HETATM   30  C   UNL     1      41.346 -13.197   1.927  1.00  0.00     0.225 A 
HETATM   31  N   UNL     1      40.137 -12.691   1.675  1.00  0.00    -0.081 NA
HETATM   32  O   UNL     1      39.596 -13.571   0.734  1.00  0.00    -0.103 OA
HETATM   33  N   UNL     1      40.496 -14.579   0.416  1.00  0.00    -0.083 NA
HETATM   34  C   UNL     1      41.581 -14.346   1.151  1.00  0.00     0.201 A 
BRANCH  34  35
HETATM   35  N   UNL     1      42.690 -15.102   1.131  1.00  0.00    -0.379 N 
HETATM   36  H   UNL     1      43.437 -14.928   1.799  1.00  0.00     0.158 HD
HETATM   37  H   UNL     1      42.769 -15.980   0.623  1.00  0.00     0.158 HD
ENDBRANCH  34  35
ENDBRANCH   2  30
TORSDOF 8
ENDMDL
MODEL 3
REMARK VINA RESULT:      -8.5      4.227      9.166
REMARK  8 active torsions:
REMARK  status: ('A' for Active; 'I' for Inactive)
REMARK    1  A    between atoms: N_5  and  C_7 
REMARK    2  A    between atoms: C_7  and  C_8 
REMARK    3  A    between atoms: N_9  and  C_10 
REMARK    4  A    between atoms: C_14  and  N_15 
REMARK    5  A    between atoms: C_18  and  C_19 
REMARK       I    between atoms: C_19  and  N_20 
REMARK    6  A    between atoms: N_20  and  N_21 
REMARK    7  A    between atoms: C_22  and  C_23 
REMARK    8  A    between atoms: C_24  and  O_25 
ROOT
HETATM    1  C   UNL     1      43.512  -9.856   8.564  1.00  0.00     0.096 A 
HETATM    2  N   UNL     1      43.662  -9.449   9.891  1.00  0.00    -0.215 N 
HETATM    3  N   UNL     1      44.769 -10.056  10.402  1.00  0.00     0.012 NA
HETATM    4  N   UNL     1      45.262 -10.900   9.511  1.00  0.00    -0.152 NA
HETATM    5  C   UNL     1      44.503 -10.812   8.385  1.00  0.00     0.170 A 
ENDROOT
BRANCH   5   6
HETATM    6  C   UNL     1      44.724 -11.617   7.192  1.00  0.00     0.293 C 
HETATM    7  N   UNL     1      43.882 -12.708   7.091  1.00  0.00    -0.242 N 
HETATM    8  H   UNL     1      43.186 -12.878   7.815  1.00  0.00     0.192 HD
HETATM    9  O   UNL     1      45.586 -11.284   6.379  1.00  0.00    -0.264 OA
BRANCH   7  10
HETATM   10  N   UNL     1      44.008 -13.572   6.047  1.00  0.00    -0.183 NA
HETATM   11  C   UNL     1      43.259 -14.630   6.106  1.00  0.00     0.153 C 
BRANCH  11  12
HETATM   12  C   UNL     1      43.307 -15.665   5.053  1.00  0.00     0.017 A 
HETATM   13  C   UNL     1      43.026 -15.378   3.710  1.00  0.00     0.077 A 
HETATM   14  C   UNL     1      43.093 -16.382   2.748  1.00  0.00     0.039 A 
HETATM   15  C   UNL     1      43.440 -17.681   3.121  1.00  0.00     0.022 A 
HETATM   16  C   UNL     1      43.716 -17.967   4.458  1.00  0.00     0.012 A 
HETATM   17 BR   UNL     1      44.183 -19.729   4.961  1.00  0.00    -0.051 Br
HETATM   18  C   UNL     1      43.654 -16.967   5.428  1.00  0.00     0.034 A 
BRANCH  13  19
HETATM   19  O   UNL     1      42.681 -14.130   3.267  1.00  0.00    -0.360 OA
HETATM   20  H   UNL     1      43.494 -13.581   3.252  1.00  0.00     0.217 HD
ENDBRANCH  13  19
ENDBRANCH  11  12
ENDBRANCH   7  10
ENDBRANCH   5   6
BRANCH   1  21
HETATM   21  C   UNL     1      42.552  -9.311   7.575  1.00  0.00     0.296 C 
BRANCH  21  22
HETATM   22  N   UNL     1      41.360 -10.203   7.304  1.00  0.00    -0.066 N 
HETATM   23  C   UNL     1      40.059  -9.621   7.790  1.00  0.00     0.235 C 
HETATM   24  C   UNL     1      38.926 -10.612   7.561  1.00  0.00     0.032 C 
HETATM   25  C   UNL     1      38.813 -11.067   6.103  1.00  0.00    -0.016 C 
HETATM   26  C   UNL     1      38.264  -9.957   5.202  1.00  0.00     0.010 C 
HETATM   27  C   UNL     1      40.170 -11.584   5.612  1.00  0.00     0.032 C 
HETATM   28  C   UNL     1      41.306 -10.597   5.846  1.00  0.00     0.235 C 
HETATM   29  H   UNL     1      41.550 -11.084   7.825  1.00  0.00     0.280 HD
ENDBRANCH  21  22
ENDBRANCH   1  21
BRANCH   2  30
HETATM   30  C   UNL     1      42.837  -8.613  10.679  1.00  0.00     0.225 A 
HETATM   31  N   UNL     1      43.080  -7.303  10.751  1.00  0.00    -0.081 NA
HETATM   32  O   UNL     1      42.063  -6.819  11.578  1.00  0.00    -0.103 OA
HETATM   33  N   UNL     1      41.209  -7.840  11.971  1.00  0.00    -0.083 NA
HETATM   34  C   UNL     1      41.685  -8.950  11.412  1.00  0.00     0.201 A 
BRANCH  34  35
HETATM   35  N   UNL     1      41.135 -10.167  11.550  1.00  0.00    -0.379 N 
HETATM   36  H   UNL     1      41.458 -10.941  10.974  1.00  0.00     0.158 HD
HETATM   37  H   UNL     1      40.545 -10.437  12.334  1.00  0.00     0.158 HD
ENDBRANCH  34  35
ENDBRANCH   2  30
TORSDOF 8
ENDMDL
MODEL 4
REMARK VINA RESULT:      -8.3      4.022      8.766
REMARK  8 active torsions:
REMARK  status: ('A' for Active; 'I' for Inactive)
REMARK    1  A    between atoms: N_5  and  C_7 
REMARK    2  A    between atoms: C_7  and  C_8 
REMARK    3  A    between atoms: N_9  and  C_10 
REMARK    4  A    between atoms: C_14  and  N_15 
REMARK    5  A    between atoms: C_18  and  C_19 
REMARK       I    between atoms: C_19  and  N_20 
REMARK    6  A    between atoms: N_20  and  N_21 
REMARK    7  A    between atoms: C_22  and  C_23 
REMARK    8  A    between atoms: C_24  and  O_25 
ROOT
HETATM    1  C   UNL     1      43.482 -11.513   6.446  1.00  0.00     0.096 A 
HETATM    2  N   UNL     1      43.401 -10.622   7.518  1.00  0.00    -0.215 N 
HETATM    3  N   UNL     1      42.629  -9.566   7.139  1.00  0.00     0.012 NA
HETATM    4  N   UNL     1      42.308  -9.688   5.862  1.00  0.00    -0.152 NA
HETATM    5  C   UNL     1      42.832 -10.860   5.409  1.00  0.00     0.170 A 
ENDROOT
BRANCH   5   6
HETATM    6  C   UNL     1      42.711 -11.324   4.034  1.00  0.00     0.293 C 
HETATM    7  N   UNL     1      41.510 -11.948   3.759  1.00  0.00    -0.242 N 
HETATM    8  H   UNL     1      40.808 -12.040   4.492  1.00  0.00     0.192 HD
HETATM    9  O   UNL     1      43.628 -11.125   3.237  1.00  0.00    -0.264 OA
BRANCH   7  10
HETATM   10  N   UNL     1      41.279 -12.470   2.522  1.00  0.00    -0.183 NA
HETATM   11  C   UNL     1      40.059 -12.367   2.093  1.00  0.00     0.153 C 
BRANCH  11  12
HETATM   12  C   UNL     1      39.659 -12.908   0.778  1.00  0.00     0.017 A 
HETATM   13  C   UNL     1      40.065 -14.175   0.337  1.00  0.00     0.077 A 
HETATM   14  C   UNL     1      39.656 -14.650  -0.907  1.00  0.00     0.039 A 
HETATM   15  C   UNL     1      38.841 -13.861  -1.720  1.00  0.00     0.022 A 
HETATM   16  C   UNL     1      38.440 -12.599  -1.281  1.00  0.00     0.012 A 
HETATM   17 BR   UNL     1      37.338 -11.532  -2.386  1.00  0.00    -0.051 Br
HETATM   18  C   UNL     1      38.842 -12.116  -0.036  1.00  0.00     0.034 A 
BRANCH  13  19
HETATM   19  O   UNL     1      40.861 -15.006   1.076  1.00  0.00    -0.360 OA
HETATM   20  H   UNL     1      41.749 -15.023   0.658  1.00  0.00     0.217 HD
ENDBRANCH  13  19
ENDBRANCH  11  12
ENDBRANCH   7  10
ENDBRANCH   5   6
BRANCH   1  21
HETATM   21  C   UNL     1      44.068 -12.874   6.471  1.00  0.00     0.296 C 
BRANCH  21  22
HETATM   22  N   UNL     1      43.074 -13.987   6.222  1.00  0.00    -0.066 N 
HETATM   23  C   UNL     1      43.313 -14.720   4.928  1.00  0.00     0.235 C 
HETATM   24  C   UNL     1      42.224 -15.760   4.708  1.00  0.00     0.032 C 
HETATM   25  C   UNL     1      42.087 -16.741   5.878  1.00  0.00    -0.016 C 
HETATM   26  C   UNL     1      43.262 -17.721   5.937  1.00  0.00     0.010 C 
HETATM   27  C   UNL     1      41.921 -15.966   7.190  1.00  0.00     0.032 C 
HETATM   28  C   UNL     1      43.005 -14.920   7.409  1.00  0.00     0.235 C 
HETATM   29  H   UNL     1      42.144 -13.522   6.178  1.00  0.00     0.280 HD
ENDBRANCH  21  22
ENDBRANCH   1  21
BRANCH   2  30
HETATM   30  C   UNL     1      44.021 -10.677   8.788  1.00  0.00     0.225 A 
HETATM   31  N   UNL     1      45.320 -10.965   8.891  1.00  0.00    -0.081 NA
HETATM   32  O   UNL     1      45.569 -10.897  10.265  1.00  0.00    -0.103 OA
HETATM   33  N   UNL     1      44.423 -10.547  10.965  1.00  0.00    -0.083 NA
HETATM   34  C   UNL     1      43.465 -10.407  10.052  1.00  0.00     0.201 A 
BRANCH  34  35
HETATM   35  N   UNL     1      42.196 -10.068  10.327  1.00  0.00    -0.379 N 
HETATM   36  H   UNL     1      41.509 -10.014   9.579  1.00  0.00     0.158 HD
HETATM   37  H   UNL     1      41.805 -10.050  11.266  1.00  0.00     0.158 HD
ENDBRANCH  34  35
ENDBRANCH   2  30
TORSDOF 8
ENDMDL
MODEL 5
REMARK VINA RESULT:      -8.3      2.914      5.216
REMARK  8 active torsions:
REMARK  status: ('A' for Active; 'I' for Inactive)
REMARK    1  A    between atoms: N_5  and  C_7 
REMARK    2  A    between atoms: C_7  and  C_8 
REMARK    3  A    between atoms: N_9  and  C_10 
REMARK    4  A    between atoms: C_14  and  N_15 
REMARK    5  A    between atoms: C_18  and  C_19 
REMARK       I    between atoms: C_19  and  N_20 
REMARK    6  A    between atoms: N_20  and  N_21 
REMARK    7  A    between atoms: C_22  and  C_23 
REMARK    8  A    between atoms: C_24  and  O_25 
ROOT
HETATM    1  C   UNL     1      42.266 -12.707   2.301  1.00  0.00     0.096 A 
HETATM    2  N   UNL     1      41.218 -12.458   1.414  1.00  0.00    -0.215 N 
HETATM    3  N   UNL     1      40.667 -11.253   1.729  1.00  0.00     0.012 NA
HETATM    4  N   UNL     1      41.237 -10.780   2.825  1.00  0.00    -0.152 NA
HETATM    5  C   UNL     1      42.205 -11.657   3.206  1.00  0.00     0.170 A 
ENDROOT
BRANCH   5   6
HETATM    6  C   UNL     1      43.031 -11.487   4.394  1.00  0.00     0.293 C 
HETATM    7  N   UNL     1      42.353 -11.695   5.579  1.00  0.00    -0.242 N 
HETATM    8  H   UNL     1      41.366 -11.948   5.560  1.00  0.00     0.192 HD
HETATM    9  O   UNL     1      44.223 -11.205   4.276  1.00  0.00    -0.264 OA
BRANCH   7  10
HETATM   10  N   UNL     1      42.992 -11.528   6.769  1.00  0.00    -0.183 NA
HETATM   11  C   UNL     1      42.890 -10.346   7.296  1.00  0.00     0.153 C 
BRANCH  11  12
HETATM   12  C   UNL     1      43.551 -10.016   8.575  1.00  0.00     0.017 A 
HETATM   13  C   UNL     1      44.860 -10.424   8.867  1.00  0.00     0.077 A 
HETATM   14  C   UNL     1      45.448 -10.081  10.082  1.00  0.00     0.039 A 
HETATM   15  C   UNL     1      44.732  -9.329  11.014  1.00  0.00     0.022 A 
HETATM   16  C   UNL     1      43.429  -8.926  10.724  1.00  0.00     0.012 A 
HETATM   17 BR   UNL     1      42.460  -7.910  11.990  1.00  0.00    -0.051 Br
HETATM   18  C   UNL     1      42.832  -9.262   9.509  1.00  0.00     0.034 A 
BRANCH  13  19
HETATM   19  O   UNL     1      45.625 -11.161   8.004  1.00  0.00    -0.360 OA
HETATM   20  H   UNL     1      45.502 -12.108   8.228  1.00  0.00     0.217 HD
ENDBRANCH  13  19
ENDBRANCH  11  12
ENDBRANCH   7  10
ENDBRANCH   5   6
BRANCH   1  21
HETATM   21  C   UNL     1      43.252 -13.811   2.217  1.00  0.00     0.296 C 
BRANCH  21  22
HETATM   22  N   UNL     1      42.746 -15.141   2.729  1.00  0.00    -0.066 N 
HETATM   23  C   UNL     1      43.199 -16.311   1.897  1.00  0.00     0.235 C 
HETATM   24  C   UNL     1      42.578 -17.598   2.421  1.00  0.00     0.032 C 
HETATM   25  C   UNL     1      42.864 -17.838   3.908  1.00  0.00    -0.016 C 
HETATM   26  C   UNL     1      44.324 -18.233   4.148  1.00  0.00     0.010 C 
HETATM   27  C   UNL     1      42.463 -16.603   4.721  1.00  0.00     0.032 C 
HETATM   28  C   UNL     1      43.077 -15.314   4.194  1.00  0.00     0.235 C 
HETATM   29  H   UNL     1      41.707 -15.077   2.684  1.00  0.00     0.280 HD
ENDBRANCH  21  22
ENDBRANCH   1  21
BRANCH   2  30
HETATM   30  C   UNL     1      40.696 -13.271   0.380  1.00  0.00     0.225 A 
HETATM   31  N   UNL     1      40.205 -14.480   0.657  1.00  0.00    -0.081 NA
HETATM   32  O   UNL     1      39.766 -14.955  -0.582  1.00  0.00    -0.103 OA
HETATM   33  N   UNL     1      39.979 -14.016  -1.581  1.00  0.00    -0.083 NA
HETATM   34  C   UNL     1      40.551 -12.972  -0.987  1.00  0.00     0.201 A 
BRANCH  34  35
HETATM   35  N   UNL     1      40.916 -11.844  -1.617  1.00  0.00    -0.379 N 
HETATM   36  H   UNL     1      41.755 -11.830  -2.192  1.00  0.00     0.158 HD
HETATM   37  H   UNL     1      40.309 -11.035  -1.730  1.00  0.00     0.158 HD
ENDBRANCH  34  35
ENDBRANCH   2  30
TORSDOF 8
ENDMDL
MODEL 6
REMARK VINA RESULT:      -8.2      4.568     10.130
REMARK  8 active torsions:
REMARK  status: ('A' for Active; 'I' for Inactive)
REMARK    1  A    between atoms: N_5  and  C_7 
REMARK    2  A    between atoms: C_7  and  C_8 
REMARK    3  A    between atoms: N_9  and  C_10 
REMARK    4  A    between atoms: C_14  and  N_15 
REMARK    5  A    between atoms: C_18  and  C_19 
REMARK       I    between atoms: C_19  and  N_20 
REMARK    6  A    between atoms: N_20  and  N_21 
REMARK    7  A    between atoms: C_22  and  C_23 
REMARK    8  A    between atoms: C_24  and  O_25 
ROOT
HETATM    1  C   UNL     1      40.369  -9.593   7.975  1.00  0.00     0.096 A 
HETATM    2  N   UNL     1      39.697  -9.170   9.123  1.00  0.00    -0.215 N 
HETATM    3  N   UNL     1      38.635  -9.998   9.327  1.00  0.00     0.012 NA
HETATM    4  N   UNL     1      38.539 -10.850   8.321  1.00  0.00    -0.152 NA
HETATM    5  C   UNL     1      39.575 -10.613   7.471  1.00  0.00     0.170 A 
ENDROOT
BRANCH   5   6
HETATM    6  C   UNL     1      39.784 -11.339   6.226  1.00  0.00     0.293 C 
HETATM    7  N   UNL     1      40.379 -12.574   6.393  1.00  0.00    -0.242 N 
HETATM    8  H   UNL     1      40.621 -12.896   7.328  1.00  0.00     0.192 HD
HETATM    9  O   UNL     1      39.420 -10.844   5.159  1.00  0.00    -0.264 OA
BRANCH   7  10
HETATM   10  N   UNL     1      40.673 -13.342   5.308  1.00  0.00    -0.183 NA
HETATM   11  C   UNL     1      41.034 -14.561   5.569  1.00  0.00     0.153 C 
BRANCH  11  12
HETATM   12  C   UNL     1      41.404 -15.501   4.491  1.00  0.00     0.017 A 
HETATM   13  C   UNL     1      40.740 -15.520   3.257  1.00  0.00     0.077 A 
HETATM   14  C   UNL     1      41.129 -16.416   2.264  1.00  0.00     0.039 A 
HETATM   15  C   UNL     1      42.182 -17.301   2.498  1.00  0.00     0.022 A 
HETATM   16  C   UNL     1      42.839 -17.283   3.728  1.00  0.00     0.012 A 
HETATM   17 BR   UNL     1      44.264 -18.486   4.044  1.00  0.00    -0.051 Br
HETATM   18  C   UNL     1      42.459 -16.388   4.728  1.00  0.00     0.034 A 
BRANCH  13  19
HETATM   19  O   UNL     1      39.701 -14.683   2.951  1.00  0.00    -0.360 OA
HETATM   20  H   UNL     1      39.974 -14.131   2.187  1.00  0.00     0.217 HD
ENDBRANCH  13  19
ENDBRANCH  11  12
ENDBRANCH   7  10
ENDBRANCH   5   6
BRANCH   1  21
HETATM   21  C   UNL     1      41.676  -9.097   7.482  1.00  0.00     0.296 C 
BRANCH  21  22
HETATM   22  N   UNL     1      42.876  -9.805   8.071  1.00  0.00    -0.066 N 
HETATM   23  C   UNL     1      43.746 -10.464   7.033  1.00  0.00     0.235 C 
HETATM   24  C   UNL     1      44.877 -11.227   7.708  1.00  0.00     0.032 C 
HETATM   25  C   UNL     1      45.712 -10.352   8.649  1.00  0.00    -0.016 C 
HETATM   26  C   UNL     1      46.595  -9.369   7.875  1.00  0.00     0.010 C 
HETATM   27  C   UNL     1      44.794  -9.635   9.645  1.00  0.00     0.032 C 
HETATM   28  C   UNL     1      43.657  -8.877   8.973  1.00  0.00     0.235 C 
HETATM   29  H   UNL     1      42.484 -10.538   8.697  1.00  0.00     0.280 HD
ENDBRANCH  21  22
ENDBRANCH   1  21
BRANCH   2  30
HETATM   30  C   UNL     1      39.949  -8.057   9.960  1.00  0.00     0.225 A 
HETATM   31  N   UNL     1      39.432  -6.863   9.665  1.00  0.00    -0.081 NA
HETATM   32  O   UNL     1      39.864  -6.044  10.712  1.00  0.00    -0.103 OA
HETATM   33  N   UNL     1      40.613  -6.762  11.632  1.00  0.00    -0.083 NA
HETATM   34  C   UNL     1      40.664  -8.009  11.170  1.00  0.00     0.201 A 
BRANCH  34  35
HETATM   35  N   UNL     1      41.300  -9.021  11.780  1.00  0.00    -0.379 N 
HETATM   36  H   UNL     1      40.943  -9.393  12.657  1.00  0.00     0.158 HD
HETATM   37  H   UNL     1      42.014  -9.593  11.334  1.00  0.00     0.158 HD
ENDBRANCH  34  35
ENDBRANCH   2  30
TORSDOF 8
ENDMDL
MODEL 7
REMARK VINA RESULT:      -8.1      4.299      8.809
REMARK  8 active torsions:
REMARK  status: ('A' for Active; 'I' for Inactive)
REMARK    1  A    between atoms: N_5  and  C_7 
REMARK    2  A    between atoms: C_7  and  C_8 
REMARK    3  A    between atoms: N_9  and  C_10 
REMARK    4  A    between atoms: C_14  and  N_15 
REMARK    5  A    between atoms: C_18  and  C_19 
REMARK       I    between atoms: C_19  and  N_20 
REMARK    6  A    between atoms: N_20  and  N_21 
REMARK    7  A    between atoms: C_22  and  C_23 
REMARK    8  A    between atoms: C_24  and  O_25 
ROOT
HETATM    1  C   UNL     1      42.866 -11.948   5.303  1.00  0.00     0.096 A 
HETATM    2  N   UNL     1      43.922 -11.274   5.919  1.00  0.00    -0.215 N 
HETATM    3  N   UNL     1      44.870 -11.011   4.976  1.00  0.00     0.012 NA
HETATM    4  N   UNL     1      44.521 -11.570   3.831  1.00  0.00    -0.152 NA
HETATM    5  C   UNL     1      43.309 -12.165   4.006  1.00  0.00     0.170 A 
ENDROOT
BRANCH   5   6
HETATM    6  C   UNL     1      42.614 -12.912   2.967  1.00  0.00     0.293 C 
HETATM    7  N   UNL     1      41.558 -12.227   2.399  1.00  0.00    -0.242 N 
HETATM    8  H   UNL     1      41.337 -11.285   2.716  1.00  0.00     0.192 HD
HETATM    9  O   UNL     1      43.002 -14.039   2.658  1.00  0.00    -0.264 OA
BRANCH   7  10
HETATM   10  N   UNL     1      40.793 -12.823   1.443  1.00  0.00    -0.183 NA
HETATM   11  C   UNL     1      40.378 -12.042   0.493  1.00  0.00     0.153 C 
BRANCH  11  12
HETATM   12  C   UNL     1      39.521 -12.549  -0.598  1.00  0.00     0.017 A 
HETATM   13  C   UNL     1      39.651 -13.848  -1.108  1.00  0.00     0.077 A 
HETATM   14  C   UNL     1      38.814 -14.287  -2.131  1.00  0.00     0.039 A 
HETATM   15  C   UNL     1      37.844 -13.431  -2.654  1.00  0.00     0.022 A 
HETATM   16  C   UNL     1      37.718 -12.137  -2.148  1.00  0.00     0.012 A 
HETATM   17 BR   UNL     1      36.405 -10.978  -2.859  1.00  0.00    -0.051 Br
HETATM   18  C   UNL     1      38.550 -11.689  -1.121  1.00  0.00     0.034 A 
BRANCH  13  19
HETATM   19  O   UNL     1      40.575 -14.745  -0.648  1.00  0.00    -0.360 OA
HETATM   20  H   UNL     1      40.141 -15.623  -0.592  1.00  0.00     0.217 HD
ENDBRANCH  13  19
ENDBRANCH  11  12
ENDBRANCH   7  10
ENDBRANCH   5   6
BRANCH   1  21
HETATM   21  C   UNL     1      41.551 -12.270   5.906  1.00  0.00     0.296 C 
BRANCH  21  22
HETATM   22  N   UNL     1      41.428 -13.690   6.414  1.00  0.00    -0.066 N 
HETATM   23  C   UNL     1      40.720 -14.607   5.452  1.00  0.00     0.235 C 
HETATM   24  C   UNL     1      40.557 -15.988   6.069  1.00  0.00     0.032 C 
HETATM   25  C   UNL     1      41.885 -16.597   6.532  1.00  0.00    -0.016 C 
HETATM   26  C   UNL     1      42.754 -17.032   5.348  1.00  0.00     0.010 C 
HETATM   27  C   UNL     1      42.618 -15.612   7.449  1.00  0.00     0.032 C 
HETATM   28  C   UNL     1      42.776 -14.228   6.836  1.00  0.00     0.235 C 
HETATM   29  H   UNL     1      40.867 -13.622   7.289  1.00  0.00     0.280 HD
ENDBRANCH  21  22
ENDBRANCH   1  21
BRANCH   2  30
HETATM   30  C   UNL     1      44.106 -10.934   7.280  1.00  0.00     0.225 A 
HETATM   31  N   UNL     1      45.058 -11.530   7.999  1.00  0.00    -0.081 NA
HETATM   32  O   UNL     1      44.957 -10.926   9.255  1.00  0.00    -0.103 OA
HETATM   33  N   UNL     1      43.961  -9.959   9.266  1.00  0.00    -0.083 NA
HETATM   34  C   UNL     1      43.436  -9.961   8.043  1.00  0.00     0.201 A 
BRANCH  34  35
HETATM   35  N   UNL     1      42.437  -9.158   7.643  1.00  0.00    -0.379 N 
HETATM   36  H   UNL     1      41.558  -9.146   8.153  1.00  0.00     0.158 HD
HETATM   37  H   UNL     1      42.552  -8.399   6.975  1.00  0.00     0.158 HD
ENDBRANCH  34  35
ENDBRANCH   2  30
TORSDOF 8
ENDMDL
MODEL 8
REMARK VINA RESULT:      -8.0      4.675      9.286
REMARK  8 active torsions:
REMARK  status: ('A' for Active; 'I' for Inactive)
REMARK    1  A    between atoms: N_5  and  C_7 
REMARK    2  A    between atoms: C_7  and  C_8 
REMARK    3  A    between atoms: N_9  and  C_10 
REMARK    4  A    between atoms: C_14  and  N_15 
REMARK    5  A    between atoms: C_18  and  C_19 
REMARK       I    between atoms: C_19  and  N_20 
REMARK    6  A    between atoms: N_20  and  N_21 
REMARK    7  A    between atoms: C_22  and  C_23 
REMARK    8  A    between atoms: C_24  and  O_25 
ROOT
HETATM    1  C   UNL     1      42.718  -9.805   9.763  1.00  0.00     0.096 A 
HETATM    2  N   UNL     1      42.749  -9.837  11.159  1.00  0.00    -0.215 N 
HETATM    3  N   UNL     1      43.860 -10.524  11.546  1.00  0.00     0.012 NA
HETATM    4  N   UNL     1      44.471 -11.014  10.481  1.00  0.00    -0.152 NA
HETATM    5  C   UNL     1      43.784 -10.606   9.379  1.00  0.00     0.170 A 
ENDROOT
BRANCH   5   6
HETATM    6  C   UNL     1      44.142 -10.977   8.017  1.00  0.00     0.293 C 
HETATM    7  N   UNL     1      43.523 -12.128   7.571  1.00  0.00    -0.242 N 
HETATM    8  H   UNL     1      42.880 -12.626   8.184  1.00  0.00     0.192 HD
HETATM    9  O   UNL     1      44.916 -10.269   7.372  1.00  0.00    -0.264 OA
BRANCH   7  10
HETATM   10  N   UNL     1      43.800 -12.615   6.330  1.00  0.00    -0.183 NA
HETATM   11  C   UNL     1      42.858 -13.324   5.787  1.00  0.00     0.153 C 
BRANCH  11  12
HETATM   12  C   UNL     1      43.029 -13.933   4.452  1.00  0.00     0.017 A 
HETATM   13  C   UNL     1      43.187 -13.161   3.293  1.00  0.00     0.077 A 
HETATM   14  C   UNL     1      43.355 -13.778   2.056  1.00  0.00     0.039 A 
HETATM   15  C   UNL     1      43.364 -15.170   1.967  1.00  0.00     0.022 A 
HETATM   16  C   UNL     1      43.204 -15.938   3.121  1.00  0.00     0.012 A 
HETATM   17 BR   UNL     1      43.214 -17.824   2.998  1.00  0.00    -0.051 Br
HETATM   18  C   UNL     1      43.037 -15.329   4.365  1.00  0.00     0.034 A 
BRANCH  13  19
HETATM   19  O   UNL     1      43.191 -11.793   3.299  1.00  0.00    -0.360 OA
HETATM   20  H   UNL     1      42.534 -11.493   3.963  1.00  0.00     0.217 HD
ENDBRANCH  13  19
ENDBRANCH  11  12
ENDBRANCH   7  10
ENDBRANCH   5   6
BRANCH   1  21
HETATM   21  C   UNL     1      41.790  -9.017   8.918  1.00  0.00     0.296 C 
BRANCH  21  22
HETATM   22  N   UNL     1      41.006  -9.838   7.919  1.00  0.00    -0.066 N 
HETATM   23  C   UNL     1      39.524  -9.850   8.190  1.00  0.00     0.235 C 
HETATM   24  C   UNL     1      38.819 -10.765   7.200  1.00  0.00     0.032 C 
HETATM   25  C   UNL     1      39.106 -10.403   5.739  1.00  0.00    -0.016 C 
HETATM   26  C   UNL     1      38.397  -9.110   5.325  1.00  0.00     0.010 C 
HETATM   27  C   UNL     1      40.620 -10.324   5.510  1.00  0.00     0.032 C 
HETATM   28  C   UNL     1      41.329  -9.415   6.504  1.00  0.00     0.235 C 
HETATM   29  H   UNL     1      41.372 -10.809   8.010  1.00  0.00     0.280 HD
ENDBRANCH  21  22
ENDBRANCH   1  21
BRANCH   2  30
HETATM   30  C   UNL     1      41.815  -9.336  12.096  1.00  0.00     0.225 A 
HETATM   31  N   UNL     1      40.556  -9.778  12.093  1.00  0.00    -0.081 NA
HETATM   32  O   UNL     1      39.959  -9.092  13.154  1.00  0.00    -0.103 OA
HETATM   33  N   UNL     1      40.872  -8.267  13.794  1.00  0.00    -0.083 NA
HETATM   34  C   UNL     1      42.022  -8.420  13.142  1.00  0.00     0.201 A 
BRANCH  34  35
HETATM   35  N   UNL     1      43.164  -7.788  13.456  1.00  0.00    -0.379 N 
HETATM   36  H   UNL     1      44.019  -8.320  13.601  1.00  0.00     0.158 HD
HETATM   37  H   UNL     1      43.299  -6.783  13.370  1.00  0.00     0.158 HD
ENDBRANCH  34  35
ENDBRANCH   2  30
TORSDOF 8
ENDMDL
MODEL 9
REMARK VINA RESULT:      -7.9      4.106      6.227
REMARK  8 active torsions:
REMARK  status: ('A' for Active; 'I' for Inactive)
REMARK    1  A    between atoms: N_5  and  C_7 
REMARK    2  A    between atoms: C_7  and  C_8 
REMARK    3  A    between atoms: N_9  and  C_10 
REMARK    4  A    between atoms: C_14  and  N_15 
REMARK    5  A    between atoms: C_18  and  C_19 
REMARK       I    between atoms: C_19  and  N_20 
REMARK    6  A    between atoms: N_20  and  N_21 
REMARK    7  A    between atoms: C_22  and  C_23 
REMARK    8  A    between atoms: C_24  and  O_25 
ROOT
HETATM    1  C   UNL     1      40.413 -11.447   5.189  1.00  0.00     0.096 A 
HETATM    2  N   UNL     1      39.888 -11.449   3.895  1.00  0.00    -0.215 N 
HETATM    3  N   UNL     1      38.781 -10.656   3.882  1.00  0.00     0.012 NA
HETATM    4  N   UNL     1      38.519 -10.242   5.110  1.00  0.00    -0.152 NA
HETATM    5  C   UNL     1      39.490 -10.725   5.932  1.00  0.00     0.170 A 
ENDROOT
BRANCH   5   6
HETATM    6  C   UNL     1      39.520 -10.501   7.370  1.00  0.00     0.293 C 
HETATM    7  N   UNL     1      40.575  -9.715   7.790  1.00  0.00    -0.242 N 
HETATM    8  H   UNL     1      41.237  -9.349   7.107  1.00  0.00     0.192 HD
HETATM    9  O   UNL     1      38.640 -10.982   8.084  1.00  0.00    -0.264 OA
BRANCH   7  10
HETATM   10  N   UNL     1      40.751  -9.460   9.116  1.00  0.00    -0.183 NA
HETATM   11  C   UNL     1      41.753  -8.688   9.407  1.00  0.00     0.153 C 
BRANCH  11  12
HETATM   12  C   UNL     1      42.075  -8.344  10.808  1.00  0.00     0.017 A 
HETATM   13  C   UNL     1      42.456  -9.313  11.746  1.00  0.00     0.077 A 
HETATM   14  C   UNL     1      42.761  -8.942  13.053  1.00  0.00     0.039 A 
HETATM   15  C   UNL     1      42.685  -7.601  13.433  1.00  0.00     0.022 A 
HETATM   16  C   UNL     1      42.303  -6.639  12.499  1.00  0.00     0.012 A 
HETATM   17 BR   UNL     1      42.199  -4.823  13.016  1.00  0.00    -0.051 Br
HETATM   18  C   UNL     1      41.998  -6.999  11.186  1.00  0.00     0.034 A 
BRANCH  13  19
HETATM   19  O   UNL     1      42.555 -10.645  11.450  1.00  0.00    -0.360 OA
HETATM   20  H   UNL     1      43.504 -10.854  11.318  1.00  0.00     0.217 HD
ENDBRANCH  13  19
ENDBRANCH  11  12
ENDBRANCH   7  10
ENDBRANCH   5   6
BRANCH   1  21
HETATM   21  C   UNL     1      41.708 -12.027   5.618  1.00  0.00     0.296 C 
BRANCH  21  22
HETATM   22  N   UNL     1      41.587 -13.324   6.387  1.00  0.00    -0.066 N 
HETATM   23  C   UNL     1      40.628 -14.301   5.758  1.00  0.00     0.235 C 
HETATM   24  C   UNL     1      40.495 -15.539   6.634  1.00  0.00     0.032 C 
HETATM   25  C   UNL     1      41.841 -16.207   6.935  1.00  0.00    -0.016 C 
HETATM   26  C   UNL     1      42.409 -16.919   5.704  1.00  0.00     0.010 C 
HETATM   27  C   UNL     1      42.820 -15.174   7.502  1.00  0.00     0.032 C 
HETATM   28  C   UNL     1      42.950 -13.931   6.632  1.00  0.00     0.235 C 
HETATM   29  H   UNL     1      41.228 -13.056   7.326  1.00  0.00     0.280 HD
ENDBRANCH  21  22
ENDBRANCH   1  21
BRANCH   2  30
HETATM   30  C   UNL     1      40.312 -12.160   2.748  1.00  0.00     0.225 A 
HETATM   31  N   UNL     1      41.374 -11.747   2.055  1.00  0.00    -0.081 NA
HETATM   32  O   UNL     1      41.499 -12.695   1.036  1.00  0.00    -0.103 OA
HETATM   33  N   UNL     1      40.525 -13.678   1.146  1.00  0.00    -0.083 NA
HETATM   34  C   UNL     1      39.792 -13.349   2.207  1.00  0.00     0.201 A 
BRANCH  34  35
HETATM   35  N   UNL     1      38.741 -14.056   2.653  1.00  0.00    -0.379 N 
HETATM   36  H   UNL     1      37.813 -13.882   2.276  1.00  0.00     0.158 HD
HETATM   37  H   UNL     1      38.823 -14.904   3.209  1.00  0.00     0.158 HD
ENDBRANCH  34  35
ENDBRANCH   2  30
TORSDOF 8
ENDMDL
MODEL 10
REMARK VINA RESULT:      -7.9      3.937      6.166
REMARK  8 active torsions:
REMARK  status: ('A' for Active; 'I' for Inactive)
REMARK    1  A    between atoms: N_5  and  C_7 
REMARK    2  A    between atoms: C_7  and  C_8 
REMARK    3  A    between atoms: N_9  and  C_10 
REMARK    4  A    between atoms: C_14  and  N_15 
REMARK    5  A    between atoms: C_18  and  C_19 
REMARK       I    between atoms: C_19  and  N_20 
REMARK    6  A    between atoms: N_20  and  N_21 
REMARK    7  A    between atoms: C_22  and  C_23 
REMARK    8  A    between atoms: C_24  and  O_25 
ROOT
HETATM    1  C   UNL     1      40.080 -12.460   1.198  1.00  0.00     0.096 A 
HETATM    2  N   UNL     1      39.391 -12.324  -0.008  1.00  0.00    -0.215 N 
HETATM    3  N   UNL     1      38.226 -11.661   0.236  1.00  0.00     0.012 NA
HETATM    4  N   UNL     1      38.093 -11.466   1.537  1.00  0.00    -0.152 NA
HETATM    5  C   UNL     1      39.203 -11.961   2.151  1.00  0.00     0.170 A 
ENDROOT
BRANCH   5   6
HETATM    6  C   UNL     1      39.403 -11.953   3.593  1.00  0.00     0.293 C 
HETATM    7  N   UNL     1      39.491 -10.687   4.138  1.00  0.00    -0.242 N 
HETATM    8  H   UNL     1      39.410  -9.870   3.535  1.00  0.00     0.192 HD
HETATM    9  O   UNL     1      39.458 -13.017   4.210  1.00  0.00    -0.264 OA
BRANCH   7  10
HETATM   10  N   UNL     1      39.722 -10.532   5.471  1.00  0.00    -0.183 NA
HETATM   11  C   UNL     1      40.774  -9.837   5.777  1.00  0.00     0.153 C 
BRANCH  11  12
HETATM   12  C   UNL     1      41.158  -9.606   7.185  1.00  0.00     0.017 A 
HETATM   13  C   UNL     1      40.217  -9.296   8.176  1.00  0.00     0.077 A 
HETATM   14  C   UNL     1      40.623  -9.097   9.493  1.00  0.00     0.039 A 
HETATM   15  C   UNL     1      41.973  -9.204   9.829  1.00  0.00     0.022 A 
HETATM   16  C   UNL     1      42.910  -9.510   8.842  1.00  0.00     0.012 A 
HETATM   17 BR   UNL     1      44.739  -9.652   9.299  1.00  0.00    -0.051 Br
HETATM   18  C   UNL     1      42.512  -9.714   7.520  1.00  0.00     0.034 A 
BRANCH  13  19
HETATM   19  O   UNL     1      38.877  -9.175   7.925  1.00  0.00    -0.360 OA
HETATM   20  H   UNL     1      38.642  -8.226   7.998  1.00  0.00     0.217 HD
ENDBRANCH  13  19
ENDBRANCH  11  12
ENDBRANCH   7  10
ENDBRANCH   5   6
BRANCH   1  21
HETATM   21  C   UNL     1      41.466 -12.956   1.374  1.00  0.00     0.296 C 
BRANCH  21  22
HETATM   22  N   UNL     1      41.597 -14.114   2.337  1.00  0.00    -0.066 N 
HETATM   23  C   UNL     1      40.873 -15.353   1.880  1.00  0.00     0.235 C 
HETATM   24  C   UNL     1      40.978 -16.441   2.940  1.00  0.00     0.032 C 
HETATM   25  C   UNL     1      42.425 -16.762   3.327  1.00  0.00    -0.016 C 
HETATM   26  C   UNL     1      43.154 -17.524   2.216  1.00  0.00     0.010 C 
HETATM   27  C   UNL     1      43.159 -15.474   3.715  1.00  0.00     0.032 C 
HETATM   28  C   UNL     1      43.050 -14.382   2.660  1.00  0.00     0.235 C 
HETATM   29  H   UNL     1      41.170 -13.784   3.227  1.00  0.00     0.280 HD
ENDBRANCH  21  22
ENDBRANCH   1  21
BRANCH   2  30
HETATM   30  C   UNL     1      39.720 -12.805  -1.297  1.00  0.00     0.225 A 
HETATM   31  N   UNL     1      40.345 -12.014  -2.171  1.00  0.00    -0.081 NA
HETATM   32  O   UNL     1      40.524 -12.829  -3.292  1.00  0.00    -0.103 OA
HETATM   33  N   UNL     1      40.025 -14.105  -3.067  1.00  0.00    -0.083 NA
HETATM   34  C   UNL     1      39.531 -14.092  -1.832  1.00  0.00     0.201 A 
BRANCH  34  35
HETATM   35  N   UNL     1      38.955 -15.146  -1.232  1.00  0.00    -0.379 N 
HETATM   36  H   UNL     1      37.945 -15.178  -1.118  1.00  0.00     0.158 HD
HETATM   37  H   UNL     1      39.432 -16.027  -1.052  1.00  0.00     0.158 HD
ENDBRANCH  34  35
ENDBRANCH   2  30
TORSDOF 8
ENDMDL
