MODEL 1
REMARK VINA RESULT:      -7.9      0.000      0.000
REMARK  6 active torsions:
REMARK  status: ('A' for Active; 'I' for Inactive)
REMARK    1  A    between atoms: O_2  and  C_3 
REMARK    2  A    between atoms: C_3  and  C_4 
REMARK    3  A    between atoms: C_4  and  N_5 
REMARK       I    between atoms: N_5  and  C_6 
REMARK    4  A    between atoms: C_6  and  C_7 
REMARK    5  A    between atoms: C_12  and  C_13 
REMARK    6  A    between atoms: C_21  and  C_22 
ROOT
HETATM    1  C   UNL     1      42.280 -11.020   5.724  1.00  0.00     0.170 A 
HETATM    2  N   UNL     1      41.467 -11.243   4.662  1.00  0.00    -0.163 NA
HETATM    3  N   UNL     1      41.709 -12.521   4.329  1.00  0.00    -0.238 N 
HETATM    4  C   UNL     1      42.728 -13.091   5.046  1.00  0.00     0.145 A 
HETATM    5  N   UNL     1      43.173 -14.343   4.757  1.00  0.00    -0.365 N 
HETATM    6  C   UNL     1      42.847 -14.933   3.463  1.00  0.00     0.118 C 
HETATM    7  C   UNL     1      41.371 -14.661   3.150  1.00  0.00     0.066 C 
HETATM    8  C   UNL     1      41.080 -13.148   3.177  1.00  0.00     0.221 C 
HETATM    9  C   UNL     1      43.090 -12.159   5.991  1.00  0.00     0.115 A 
HETATM   10 CL   UNL     1      44.285 -12.338   7.183  1.00  0.00    -0.077 Cl
HETATM   11  H   UNL     1      44.061 -14.649   5.159  1.00  0.00     0.162 HD
ENDROOT
BRANCH   1  12
HETATM   12  C   UNL     1      42.266  -9.728   6.429  1.00  0.00     0.273 C 
HETATM   13  N   UNL     1      42.850  -9.783   7.677  1.00  0.00    -0.353 N 
HETATM   14  H   UNL     1      43.347 -10.645   7.896  1.00  0.00     0.162 HD
HETATM   15  O   UNL     1      41.792  -8.700   5.959  1.00  0.00    -0.266 OA
BRANCH  13  16
HETATM   16  C   UNL     1      43.149  -8.597   8.453  1.00  0.00     0.149 C 
BRANCH  16  17
HETATM   17  C   UNL     1      44.498  -8.715   9.160  1.00  0.00     0.186 C 
BRANCH  17  18
HETATM   18  O   UNL     1      45.529  -8.239   8.290  1.00  0.00    -0.394 OA
HETATM   19  C   UNL     1      46.432  -9.279   7.934  1.00  0.00     0.201 C 
ENDBRANCH  17  18
ENDBRANCH  16  17
ENDBRANCH  13  16
ENDBRANCH   1  12
BRANCH   8  20
HETATM   20  C   UNL     1      39.585 -12.917   3.152  1.00  0.00     0.409 C 
HETATM   21  F   UNL     1      38.920 -13.901   2.508  1.00  0.00    -0.169 F 
HETATM   22  F   UNL     1      39.045 -12.776   4.382  1.00  0.00    -0.169 F 
HETATM   23  F   UNL     1      39.313 -11.762   2.486  1.00  0.00    -0.169 F 
ENDBRANCH   8  20
BRANCH   6  24
HETATM   24  C   UNL     1      43.138 -16.422   3.471  1.00  0.00    -0.035 A 
HETATM   25  C   UNL     1      42.871 -17.231   2.352  1.00  0.00     0.011 A 
HETATM   26  C   UNL     1      43.165 -18.596   2.372  1.00  0.00     0.024 A 
HETATM   27  C   UNL     1      43.739 -19.164   3.505  1.00  0.00     0.034 A 
HETATM   28 CL   UNL     1      44.107 -20.845   3.529  1.00  0.00    -0.084 Cl
HETATM   29  C   UNL     1      44.022 -18.378   4.619  1.00  0.00     0.024 A 
HETATM   30  C   UNL     1      43.724 -17.013   4.602  1.00  0.00     0.011 A 
ENDBRANCH   6  24
TORSDOF 6
ENDMDL
MODEL 2
REMARK VINA RESULT:      -7.9      0.722      1.407
REMARK  6 active torsions:
REMARK  status: ('A' for Active; 'I' for Inactive)
REMARK    1  A    between atoms: O_2  and  C_3 
REMARK    2  A    between atoms: C_3  and  C_4 
REMARK    3  A    between atoms: C_4  and  N_5 
REMARK       I    between atoms: N_5  and  C_6 
REMARK    4  A    between atoms: C_6  and  C_7 
REMARK    5  A    between atoms: C_12  and  C_13 
REMARK    6  A    between atoms: C_21  and  C_22 
ROOT
HETATM    1  C   UNL     1      42.058 -11.421   5.565  1.00  0.00     0.170 A 
HETATM    2  N   UNL     1      41.377 -11.666   4.418  1.00  0.00    -0.163 NA
HETATM    3  N   UNL     1      41.689 -12.937   4.120  1.00  0.00    -0.238 N 
HETATM    4  C   UNL     1      42.634 -13.480   4.950  1.00  0.00     0.145 A 
HETATM    5  N   UNL     1      43.141 -14.719   4.717  1.00  0.00    -0.365 N 
HETATM    6  C   UNL     1      42.980 -15.319   3.397  1.00  0.00     0.118 C 
HETATM    7  C   UNL     1      41.543 -15.086   2.917  1.00  0.00     0.066 C 
HETATM    8  C   UNL     1      41.212 -13.580   2.905  1.00  0.00     0.221 C 
HETATM    9  C   UNL     1      42.861 -12.538   5.927  1.00  0.00     0.115 A 
HETATM   10 CL   UNL     1      43.917 -12.685   7.248  1.00  0.00    -0.077 Cl
HETATM   11  H   UNL     1      43.985 -15.002   5.219  1.00  0.00     0.162 HD
ENDROOT
BRANCH   1  12
HETATM   12  C   UNL     1      41.930 -10.130   6.260  1.00  0.00     0.273 C 
HETATM   13  N   UNL     1      41.682 -10.260   7.611  1.00  0.00    -0.353 N 
HETATM   14  H   UNL     1      41.769 -11.202   7.987  1.00  0.00     0.162 HD
HETATM   15  O   UNL     1      42.039  -9.042   5.704  1.00  0.00    -0.266 OA
BRANCH  13  16
HETATM   16  C   UNL     1      41.743  -9.141   8.528  1.00  0.00     0.149 C 
BRANCH  16  17
HETATM   17  C   UNL     1      43.075  -9.098   9.273  1.00  0.00     0.186 C 
BRANCH  17  18
HETATM   18  O   UNL     1      43.987  -8.257   8.561  1.00  0.00    -0.394 OA
HETATM   19  C   UNL     1      45.274  -8.851   8.460  1.00  0.00     0.201 C 
ENDBRANCH  17  18
ENDBRANCH  16  17
ENDBRANCH  13  16
ENDBRANCH   1  12
BRANCH   8  20
HETATM   20  C   UNL     1      39.723 -13.389   2.710  1.00  0.00     0.409 C 
HETATM   21  F   UNL     1      39.089 -13.061   3.857  1.00  0.00    -0.169 F 
HETATM   22  F   UNL     1      39.421 -12.460   1.778  1.00  0.00    -0.169 F 
HETATM   23  F   UNL     1      39.168 -14.553   2.276  1.00  0.00    -0.169 F 
ENDBRANCH   8  20
BRANCH   6  24
HETATM   24  C   UNL     1      43.308 -16.799   3.443  1.00  0.00    -0.035 A 
HETATM   25  C   UNL     1      43.911 -17.386   4.569  1.00  0.00     0.011 A 
HETATM   26  C   UNL     1      44.185 -18.755   4.601  1.00  0.00     0.024 A 
HETATM   27  C   UNL     1      43.851 -19.553   3.511  1.00  0.00     0.034 A 
HETATM   28 CL   UNL     1      44.184 -21.241   3.550  1.00  0.00    -0.084 Cl
HETATM   29  C   UNL     1      43.243 -18.994   2.390  1.00  0.00     0.024 A 
HETATM   30  C   UNL     1      42.972 -17.623   2.356  1.00  0.00     0.011 A 
ENDBRANCH   6  24
TORSDOF 6
ENDMDL
MODEL 3
REMARK VINA RESULT:      -7.7      4.049      5.560
REMARK  6 active torsions:
REMARK  status: ('A' for Active; 'I' for Inactive)
REMARK    1  A    between atoms: O_2  and  C_3 
REMARK    2  A    between atoms: C_3  and  C_4 
REMARK    3  A    between atoms: C_4  and  N_5 
REMARK       I    between atoms: N_5  and  C_6 
REMARK    4  A    between atoms: C_6  and  C_7 
REMARK    5  A    between atoms: C_12  and  C_13 
REMARK    6  A    between atoms: C_21  and  C_22 
ROOT
HETATM    1  C   UNL     1      41.046 -12.102   1.386  1.00  0.00     0.170 A 
HETATM    2  N   UNL     1      41.572 -11.710   2.572  1.00  0.00    -0.163 NA
HETATM    3  N   UNL     1      42.026 -12.848   3.120  1.00  0.00    -0.238 N 
HETATM    4  C   UNL     1      41.706 -13.970   2.400  1.00  0.00     0.145 A 
HETATM    5  N   UNL     1      41.995 -15.211   2.872  1.00  0.00    -0.365 N 
HETATM    6  C   UNL     1      42.289 -15.383   4.291  1.00  0.00     0.118 C 
HETATM    7  C   UNL     1      43.232 -14.261   4.742  1.00  0.00     0.066 C 
HETATM    8  C   UNL     1      42.613 -12.880   4.450  1.00  0.00     0.221 C 
HETATM    9  C   UNL     1      41.110 -13.517   1.245  1.00  0.00     0.115 A 
HETATM   10 CL   UNL     1      40.539 -14.469  -0.039  1.00  0.00    -0.077 Cl
HETATM   11  H   UNL     1      41.557 -16.017   2.422  1.00  0.00     0.162 HD
ENDROOT
BRANCH   1  12
HETATM   12  C   UNL     1      40.490 -11.119   0.442  1.00  0.00     0.273 C 
HETATM   13  N   UNL     1      41.208  -9.944   0.393  1.00  0.00    -0.353 N 
HETATM   14  H   UNL     1      42.101  -9.950   0.883  1.00  0.00     0.162 HD
HETATM   15  O   UNL     1      39.492 -11.320  -0.242  1.00  0.00    -0.266 OA
BRANCH  13  16
HETATM   16  C   UNL     1      40.982  -8.931  -0.617  1.00  0.00     0.149 C 
BRANCH  16  17
HETATM   17  C   UNL     1      42.028  -9.002  -1.727  1.00  0.00     0.186 C 
BRANCH  17  18
HETATM   18  O   UNL     1      43.264  -8.466  -1.244  1.00  0.00    -0.394 OA
HETATM   19  C   UNL     1      43.466  -7.134  -1.697  1.00  0.00     0.201 C 
ENDBRANCH  17  18
ENDBRANCH  16  17
ENDBRANCH  13  16
ENDBRANCH   1  12
BRANCH   8  20
HETATM   20  C   UNL     1      43.662 -11.805   4.633  1.00  0.00     0.409 C 
HETATM   21  F   UNL     1      44.504 -12.072   5.656  1.00  0.00    -0.169 F 
HETATM   22  F   UNL     1      44.399 -11.582   3.524  1.00  0.00    -0.169 F 
HETATM   23  F   UNL     1      43.055 -10.622   4.926  1.00  0.00    -0.169 F 
ENDBRANCH   8  20
BRANCH   6  24
HETATM   24  C   UNL     1      42.902 -16.747   4.544  1.00  0.00    -0.035 A 
HETATM   25  C   UNL     1      42.923 -17.318   5.829  1.00  0.00     0.011 A 
HETATM   26  C   UNL     1      43.473 -18.585   6.038  1.00  0.00     0.024 A 
HETATM   27  C   UNL     1      43.998 -19.298   4.964  1.00  0.00     0.034 A 
HETATM   28 CL   UNL     1      44.672 -20.860   5.219  1.00  0.00    -0.084 Cl
HETATM   29  C   UNL     1      43.977 -18.754   3.682  1.00  0.00     0.024 A 
HETATM   30  C   UNL     1      43.431 -17.485   3.473  1.00  0.00     0.011 A 
ENDBRANCH   6  24
TORSDOF 6
ENDMDL
MODEL 4
REMARK VINA RESULT:      -7.7      4.126      6.663
REMARK  6 active torsions:
REMARK  status: ('A' for Active; 'I' for Inactive)
REMARK    1  A    between atoms: O_2  and  C_3 
REMARK    2  A    between atoms: C_3  and  C_4 
REMARK    3  A    between atoms: C_4  and  N_5 
REMARK       I    between atoms: N_5  and  C_6 
REMARK    4  A    between atoms: C_6  and  C_7 
REMARK    5  A    between atoms: C_12  and  C_13 
REMARK    6  A    between atoms: C_21  and  C_22 
ROOT
HETATM    1  C   UNL     1      40.355 -12.563   1.131  1.00  0.00     0.170 A 
HETATM    2  N   UNL     1      40.965 -12.055   2.231  1.00  0.00    -0.163 NA
HETATM    3  N   UNL     1      41.526 -13.124   2.816  1.00  0.00    -0.238 N 
HETATM    4  C   UNL     1      41.202 -14.312   2.215  1.00  0.00     0.145 A 
HETATM    5  N   UNL     1      41.597 -15.498   2.749  1.00  0.00    -0.365 N 
HETATM    6  C   UNL     1      42.027 -15.543   4.143  1.00  0.00     0.118 C 
HETATM    7  C   UNL     1      42.947 -14.348   4.419  1.00  0.00     0.066 C 
HETATM    8  C   UNL     1      42.232 -13.024   4.084  1.00  0.00     0.221 C 
HETATM    9  C   UNL     1      40.481 -13.980   1.091  1.00  0.00     0.115 A 
HETATM   10 CL   UNL     1      39.847 -15.055  -0.059  1.00  0.00    -0.077 Cl
HETATM   11  H   UNL     1      41.163 -16.356   2.403  1.00  0.00     0.162 HD
ENDROOT
BRANCH   1  12
HETATM   12  C   UNL     1      39.665 -11.684   0.174  1.00  0.00     0.273 C 
HETATM   13  N   UNL     1      38.481 -12.213  -0.296  1.00  0.00    -0.353 N 
HETATM   14  H   UNL     1      38.154 -13.053   0.177  1.00  0.00     0.162 HD
HETATM   15  O   UNL     1      40.088 -10.586  -0.171  1.00  0.00    -0.266 OA
BRANCH  13  16
HETATM   16  C   UNL     1      37.530 -11.437  -1.065  1.00  0.00     0.149 C 
BRANCH  16  17
HETATM   17  C   UNL     1      37.287 -12.054  -2.441  1.00  0.00     0.186 C 
BRANCH  17  18
HETATM   18  O   UNL     1      37.265 -13.480  -2.320  1.00  0.00    -0.394 OA
HETATM   19  C   UNL     1      38.137 -14.096  -3.259  1.00  0.00     0.201 C 
ENDBRANCH  17  18
ENDBRANCH  16  17
ENDBRANCH  13  16
ENDBRANCH   1  12
BRANCH   8  20
HETATM   20  C   UNL     1      43.234 -11.891   4.087  1.00  0.00     0.409 C 
HETATM   21  F   UNL     1      44.018 -11.896   5.188  1.00  0.00    -0.169 F 
HETATM   22  F   UNL     1      44.033 -11.880   2.998  1.00  0.00    -0.169 F 
HETATM   23  F   UNL     1      42.576 -10.700   4.083  1.00  0.00    -0.169 F 
ENDBRANCH   8  20
BRANCH   6  24
HETATM   24  C   UNL     1      42.731 -16.854   4.438  1.00  0.00    -0.035 A 
HETATM   25  C   UNL     1      42.866 -17.339   5.751  1.00  0.00     0.011 A 
HETATM   26  C   UNL     1      43.499 -18.558   6.001  1.00  0.00     0.024 A 
HETATM   27  C   UNL     1      43.995 -19.310   4.940  1.00  0.00     0.034 A 
HETATM   28 CL   UNL     1      44.772 -20.815   5.246  1.00  0.00    -0.084 Cl
HETATM   29  C   UNL     1      43.862 -18.854   3.631  1.00  0.00     0.024 A 
HETATM   30  C   UNL     1      43.232 -17.631   3.381  1.00  0.00     0.011 A 
ENDBRANCH   6  24
TORSDOF 6
ENDMDL
MODEL 5
REMARK VINA RESULT:      -7.7      3.649      4.814
REMARK  6 active torsions:
REMARK  status: ('A' for Active; 'I' for Inactive)
REMARK    1  A    between atoms: O_2  and  C_3 
REMARK    2  A    between atoms: C_3  and  C_4 
REMARK    3  A    between atoms: C_4  and  N_5 
REMARK       I    between atoms: N_5  and  C_6 
REMARK    4  A    between atoms: C_6  and  C_7 
REMARK    5  A    between atoms: C_12  and  C_13 
REMARK    6  A    between atoms: C_21  and  C_22 
ROOT
HETATM    1  C   UNL     1      43.690 -12.151   7.321  1.00  0.00     0.170 A 
HETATM    2  N   UNL     1      43.711 -13.505   7.394  1.00  0.00    -0.163 NA
HETATM    3  N   UNL     1      43.110 -13.902   6.262  1.00  0.00    -0.238 N 
HETATM    4  C   UNL     1      42.592 -12.870   5.524  1.00  0.00     0.145 A 
HETATM    5  N   UNL     1      41.856 -13.108   4.407  1.00  0.00    -0.365 N 
HETATM    6  C   UNL     1      41.289 -14.436   4.196  1.00  0.00     0.118 C 
HETATM    7  C   UNL     1      42.353 -15.489   4.531  1.00  0.00     0.066 C 
HETATM    8  C   UNL     1      42.862 -15.306   5.975  1.00  0.00     0.221 C 
HETATM    9  C   UNL     1      42.992 -11.717   6.160  1.00  0.00     0.115 A 
HETATM   10 CL   UNL     1      42.667 -10.125   5.668  1.00  0.00    -0.077 Cl
HETATM   11  H   UNL     1      41.312 -12.339   4.009  1.00  0.00     0.162 HD
ENDROOT
BRANCH   1  12
HETATM   12  C   UNL     1      44.320 -11.327   8.365  1.00  0.00     0.273 C 
HETATM   13  N   UNL     1      43.424 -10.856   9.302  1.00  0.00    -0.353 N 
HETATM   14  H   UNL     1      42.486 -11.249   9.253  1.00  0.00     0.162 HD
HETATM   15  O   UNL     1      45.521 -11.084   8.410  1.00  0.00    -0.266 OA
BRANCH  13  16
HETATM   16  C   UNL     1      43.844 -10.219  10.533  1.00  0.00     0.149 C 
BRANCH  16  17
HETATM   17  C   UNL     1      42.647  -9.823  11.395  1.00  0.00     0.186 C 
BRANCH  17  18
HETATM   18  O   UNL     1      41.561  -9.442  10.546  1.00  0.00    -0.394 OA
HETATM   19  C   UNL     1      40.304  -9.684  11.166  1.00  0.00     0.201 C 
ENDBRANCH  17  18
ENDBRANCH  16  17
ENDBRANCH  13  16
ENDBRANCH   1  12
BRANCH   8  20
HETATM   20  C   UNL     1      44.096 -16.155   6.189  1.00  0.00     0.409 C 
HETATM   21  F   UNL     1      44.304 -17.030   5.180  1.00  0.00    -0.169 F 
HETATM   22  F   UNL     1      45.222 -15.429   6.360  1.00  0.00    -0.169 F 
HETATM   23  F   UNL     1      43.950 -16.894   7.322  1.00  0.00    -0.169 F 
ENDBRANCH   8  20
BRANCH   6  24
HETATM   24  C   UNL     1      40.804 -14.585   2.767  1.00  0.00    -0.035 A 
HETATM   25  C   UNL     1      40.313 -15.809   2.280  1.00  0.00     0.011 A 
HETATM   26  C   UNL     1      39.851 -15.921   0.966  1.00  0.00     0.024 A 
HETATM   27  C   UNL     1      39.866 -14.809   0.130  1.00  0.00     0.034 A 
HETATM   28 CL   UNL     1      39.294 -14.944  -1.487  1.00  0.00    -0.084 Cl
HETATM   29  C   UNL     1      40.339 -13.585   0.597  1.00  0.00     0.024 A 
HETATM   30  C   UNL     1      40.805 -13.473   1.909  1.00  0.00     0.011 A 
ENDBRANCH   6  24
TORSDOF 6
ENDMDL
MODEL 6
REMARK VINA RESULT:      -7.7      4.481      7.373
REMARK  6 active torsions:
REMARK  status: ('A' for Active; 'I' for Inactive)
REMARK    1  A    between atoms: O_2  and  C_3 
REMARK    2  A    between atoms: C_3  and  C_4 
REMARK    3  A    between atoms: C_4  and  N_5 
REMARK       I    between atoms: N_5  and  C_6 
REMARK    4  A    between atoms: C_6  and  C_7 
REMARK    5  A    between atoms: C_12  and  C_13 
REMARK    6  A    between atoms: C_21  and  C_22 
ROOT
HETATM    1  C   UNL     1      42.867 -16.145   4.629  1.00  0.00     0.170 A 
HETATM    2  N   UNL     1      42.408 -14.939   5.044  1.00  0.00    -0.163 NA
HETATM    3  N   UNL     1      41.677 -14.494   4.010  1.00  0.00    -0.238 N 
HETATM    4  C   UNL     1      41.747 -15.299   2.903  1.00  0.00     0.145 A 
HETATM    5  N   UNL     1      41.156 -14.936   1.734  1.00  0.00    -0.365 N 
HETATM    6  C   UNL     1      40.779 -13.541   1.530  1.00  0.00     0.118 C 
HETATM    7  C   UNL     1      40.114 -13.013   2.807  1.00  0.00     0.066 C 
HETATM    8  C   UNL     1      41.053 -13.180   4.017  1.00  0.00     0.221 C 
HETATM    9  C   UNL     1      42.474 -16.403   3.286  1.00  0.00     0.115 A 
HETATM   10 CL   UNL     1      42.847 -17.752   2.326  1.00  0.00    -0.077 Cl
HETATM   11  H   UNL     1      41.405 -15.444   0.883  1.00  0.00     0.162 HD
ENDROOT
BRANCH   1  12
HETATM   12  C   UNL     1      43.674 -16.995   5.520  1.00  0.00     0.273 C 
HETATM   13  N   UNL     1      43.006 -18.122   5.949  1.00  0.00    -0.353 N 
HETATM   14  H   UNL     1      42.116 -18.311   5.492  1.00  0.00     0.162 HD
HETATM   15  O   UNL     1      44.828 -16.739   5.846  1.00  0.00    -0.266 OA
BRANCH  13  16
HETATM   16  C   UNL     1      43.669 -19.207   6.643  1.00  0.00     0.149 C 
BRANCH  16  17
HETATM   17  C   UNL     1      43.718 -20.472   5.789  1.00  0.00     0.186 C 
BRANCH  17  18
HETATM   18  O   UNL     1      44.384 -20.182   4.556  1.00  0.00    -0.394 OA
HETATM   19  C   UNL     1      43.854 -20.952   3.484  1.00  0.00     0.201 C 
ENDBRANCH  17  18
ENDBRANCH  16  17
ENDBRANCH  13  16
ENDBRANCH   1  12
BRANCH   8  20
HETATM   20  C   UNL     1      40.284 -12.926   5.296  1.00  0.00     0.409 C 
HETATM   21  F   UNL     1      39.219 -12.115   5.107  1.00  0.00    -0.169 F 
HETATM   22  F   UNL     1      39.854 -14.057   5.895  1.00  0.00    -0.169 F 
HETATM   23  F   UNL     1      41.092 -12.305   6.198  1.00  0.00    -0.169 F 
ENDBRANCH   8  20
BRANCH   6  24
HETATM   24  C   UNL     1      39.852 -13.411   0.336  1.00  0.00    -0.035 A 
HETATM   25  C   UNL     1      39.798 -14.396  -0.665  1.00  0.00     0.011 A 
HETATM   26  C   UNL     1      38.922 -14.269  -1.746  1.00  0.00     0.024 A 
HETATM   27  C   UNL     1      38.085 -13.160  -1.831  1.00  0.00     0.034 A 
HETATM   28 CL   UNL     1      37.002 -13.004  -3.159  1.00  0.00    -0.084 Cl
HETATM   29  C   UNL     1      38.115 -12.178  -0.844  1.00  0.00     0.024 A 
HETATM   30  C   UNL     1      38.994 -12.303   0.235  1.00  0.00     0.011 A 
ENDBRANCH   6  24
TORSDOF 6
ENDMDL
MODEL 7
REMARK VINA RESULT:      -7.6      3.033      3.498
REMARK  6 active torsions:
REMARK  status: ('A' for Active; 'I' for Inactive)
REMARK    1  A    between atoms: O_2  and  C_3 
REMARK    2  A    between atoms: C_3  and  C_4 
REMARK    3  A    between atoms: C_4  and  N_5 
REMARK       I    between atoms: N_5  and  C_6 
REMARK    4  A    between atoms: C_6  and  C_7 
REMARK    5  A    between atoms: C_12  and  C_13 
REMARK    6  A    between atoms: C_21  and  C_22 
ROOT
HETATM    1  C   UNL     1      40.795 -11.535   3.311  1.00  0.00     0.170 A 
HETATM    2  N   UNL     1      40.769 -12.123   2.090  1.00  0.00    -0.163 NA
HETATM    3  N   UNL     1      41.285 -13.344   2.305  1.00  0.00    -0.238 N 
HETATM    4  C   UNL     1      41.757 -13.523   3.579  1.00  0.00     0.145 A 
HETATM    5  N   UNL     1      42.410 -14.662   3.930  1.00  0.00    -0.365 N 
HETATM    6  C   UNL     1      42.951 -15.524   2.884  1.00  0.00     0.118 C 
HETATM    7  C   UNL     1      41.906 -15.671   1.771  1.00  0.00     0.066 C 
HETATM    8  C   UNL     1      41.502 -14.289   1.221  1.00  0.00     0.221 C 
HETATM    9  C   UNL     1      41.412 -12.385   4.271  1.00  0.00     0.115 A 
HETATM   10 CL   UNL     1      41.713 -12.067   5.911  1.00  0.00    -0.077 Cl
HETATM   11  H   UNL     1      42.930 -14.674   4.810  1.00  0.00     0.162 HD
ENDROOT
BRANCH   1  12
HETATM   12  C   UNL     1      40.246 -10.184   3.512  1.00  0.00     0.273 C 
HETATM   13  N   UNL     1      39.013 -10.182   4.128  1.00  0.00    -0.353 N 
HETATM   14  H   UNL     1      38.705 -11.078   4.503  1.00  0.00     0.162 HD
HETATM   15  O   UNL     1      40.825  -9.156   3.175  1.00  0.00    -0.266 OA
BRANCH  13  16
HETATM   16  C   UNL     1      38.390  -8.973   4.626  1.00  0.00     0.149 C 
BRANCH  16  17
HETATM   17  C   UNL     1      38.844  -8.654   6.049  1.00  0.00     0.186 C 
BRANCH  17  18
HETATM   18  O   UNL     1      38.631  -9.799   6.880  1.00  0.00    -0.394 OA
HETATM   19  C   UNL     1      39.471  -9.775   8.026  1.00  0.00     0.201 C 
ENDBRANCH  17  18
ENDBRANCH  16  17
ENDBRANCH  13  16
ENDBRANCH   1  12
BRANCH   8  20
HETATM   20  C   UNL     1      40.280 -14.431   0.340  1.00  0.00     0.409 C 
HETATM   21  F   UNL     1      40.517 -14.060  -0.938  1.00  0.00    -0.169 F 
HETATM   22  F   UNL     1      39.769 -15.680   0.331  1.00  0.00    -0.169 F 
HETATM   23  F   UNL     1      39.289 -13.621   0.803  1.00  0.00    -0.169 F 
ENDBRANCH   8  20
BRANCH   6  24
HETATM   24  C   UNL     1      43.333 -16.876   3.456  1.00  0.00    -0.035 A 
HETATM   25  C   UNL     1      43.490 -18.006   2.635  1.00  0.00     0.011 A 
HETATM   26  C   UNL     1      43.862 -19.238   3.178  1.00  0.00     0.024 A 
HETATM   27  C   UNL     1      44.090 -19.351   4.546  1.00  0.00     0.034 A 
HETATM   28 CL   UNL     1      44.553 -20.866   5.216  1.00  0.00    -0.084 Cl
HETATM   29  C   UNL     1      43.951 -18.241   5.376  1.00  0.00     0.024 A 
HETATM   30  C   UNL     1      43.574 -17.009   4.834  1.00  0.00     0.011 A 
ENDBRANCH   6  24
TORSDOF 6
ENDMDL
MODEL 8
REMARK VINA RESULT:      -7.6      3.376      4.116
REMARK  6 active torsions:
REMARK  status: ('A' for Active; 'I' for Inactive)
REMARK    1  A    between atoms: O_2  and  C_3 
REMARK    2  A    between atoms: C_3  and  C_4 
REMARK    3  A    between atoms: C_4  and  N_5 
REMARK       I    between atoms: N_5  and  C_6 
REMARK    4  A    between atoms: C_6  and  C_7 
REMARK    5  A    between atoms: C_12  and  C_13 
REMARK    6  A    between atoms: C_21  and  C_22 
ROOT
HETATM    1  C   UNL     1      40.127 -11.176   4.786  1.00  0.00     0.170 A 
HETATM    2  N   UNL     1      41.129 -11.370   5.679  1.00  0.00    -0.163 NA
HETATM    3  N   UNL     1      41.627 -12.574   5.355  1.00  0.00    -0.238 N 
HETATM    4  C   UNL     1      40.913 -13.218   4.378  1.00  0.00     0.145 A 
HETATM    5  N   UNL     1      41.217 -14.491   4.013  1.00  0.00    -0.365 N 
HETATM    6  C   UNL     1      42.035 -15.311   4.901  1.00  0.00     0.118 C 
HETATM    7  C   UNL     1      43.206 -14.467   5.417  1.00  0.00     0.066 C 
HETATM    8  C   UNL     1      42.692 -13.198   6.124  1.00  0.00     0.221 C 
HETATM    9  C   UNL     1      39.961 -12.319   3.955  1.00  0.00     0.115 A 
HETATM   10 CL   UNL     1      38.812 -12.564   2.730  1.00  0.00    -0.077 Cl
HETATM   11  H   UNL     1      40.542 -15.010   3.447  1.00  0.00     0.162 HD
ENDROOT
BRANCH   1  12
HETATM   12  C   UNL     1      39.360  -9.921   4.770  1.00  0.00     0.273 C 
HETATM   13  N   UNL     1      39.194  -9.368   6.022  1.00  0.00    -0.353 N 
HETATM   14  H   UNL     1      39.737  -9.795   6.770  1.00  0.00     0.162 HD
HETATM   15  O   UNL     1      38.915  -9.406   3.750  1.00  0.00    -0.266 OA
BRANCH  13  16
HETATM   16  C   UNL     1      38.672  -8.032   6.224  1.00  0.00     0.149 C 
BRANCH  16  17
HETATM   17  C   UNL     1      39.247  -7.390   7.485  1.00  0.00     0.186 C 
BRANCH  17  18
HETATM   18  O   UNL     1      38.305  -7.527   8.554  1.00  0.00    -0.394 OA
HETATM   19  C   UNL     1      38.857  -8.255   9.644  1.00  0.00     0.201 C 
ENDBRANCH  17  18
ENDBRANCH  16  17
ENDBRANCH  13  16
ENDBRANCH   1  12
BRANCH   8  20
HETATM   20  C   UNL     1      43.845 -12.250   6.369  1.00  0.00     0.409 C 
HETATM   21  F   UNL     1      44.140 -11.502   5.282  1.00  0.00    -0.169 F 
HETATM   22  F   UNL     1      43.641 -11.418   7.413  1.00  0.00    -0.169 F 
HETATM   23  F   UNL     1      44.965 -12.962   6.668  1.00  0.00    -0.169 F 
ENDBRANCH   8  20
BRANCH   6  24
HETATM   24  C   UNL     1      42.530 -16.547   4.174  1.00  0.00    -0.035 A 
HETATM   25  C   UNL     1      42.100 -16.858   2.872  1.00  0.00     0.011 A 
HETATM   26  C   UNL     1      42.584 -17.990   2.212  1.00  0.00     0.024 A 
HETATM   27  C   UNL     1      43.509 -18.817   2.842  1.00  0.00     0.034 A 
HETATM   28 CL   UNL     1      44.109 -20.209   2.029  1.00  0.00    -0.084 Cl
HETATM   29  C   UNL     1      43.956 -18.520   4.128  1.00  0.00     0.024 A 
HETATM   30  C   UNL     1      43.469 -17.390   4.791  1.00  0.00     0.011 A 
ENDBRANCH   6  24
TORSDOF 6
ENDMDL
MODEL 9
REMARK VINA RESULT:      -7.5      3.379      4.646
REMARK  6 active torsions:
REMARK  status: ('A' for Active; 'I' for Inactive)
REMARK    1  A    between atoms: O_2  and  C_3 
REMARK    2  A    between atoms: C_3  and  C_4 
REMARK    3  A    between atoms: C_4  and  N_5 
REMARK       I    between atoms: N_5  and  C_6 
REMARK    4  A    between atoms: C_6  and  C_7 
REMARK    5  A    between atoms: C_12  and  C_13 
REMARK    6  A    between atoms: C_21  and  C_22 
ROOT
HETATM    1  C   UNL     1      41.505 -11.419   2.653  1.00  0.00     0.170 A 
HETATM    2  N   UNL     1      41.207 -12.154   1.553  1.00  0.00    -0.163 NA
HETATM    3  N   UNL     1      41.614 -13.393   1.869  1.00  0.00    -0.238 N 
HETATM    4  C   UNL     1      42.272 -13.466   3.068  1.00  0.00     0.145 A 
HETATM    5  N   UNL     1      42.845 -14.626   3.484  1.00  0.00    -0.365 N 
HETATM    6  C   UNL     1      43.102 -15.682   2.510  1.00  0.00     0.118 C 
HETATM    7  C   UNL     1      41.873 -15.832   1.605  1.00  0.00     0.066 C 
HETATM    8  C   UNL     1      41.537 -14.493   0.919  1.00  0.00     0.221 C 
HETATM    9  C   UNL     1      42.178 -12.211   3.625  1.00  0.00     0.115 A 
HETATM   10 CL   UNL     1      42.786 -11.724   5.133  1.00  0.00    -0.077 Cl
HETATM   11  H   UNL     1      43.503 -14.592   4.266  1.00  0.00     0.162 HD
ENDROOT
BRANCH   1  12
HETATM   12  C   UNL     1      41.152  -9.992   2.729  1.00  0.00     0.273 C 
HETATM   13  N   UNL     1      41.260  -9.339   1.519  1.00  0.00    -0.353 N 
HETATM   14  H   UNL     1      41.416  -9.934   0.707  1.00  0.00     0.162 HD
HETATM   15  O   UNL     1      40.788  -9.433   3.758  1.00  0.00    -0.266 OA
BRANCH  13  16
HETATM   16  C   UNL     1      40.754  -7.999   1.306  1.00  0.00     0.149 C 
BRANCH  16  17
HETATM   17  C   UNL     1      39.956  -7.901   0.008  1.00  0.00     0.186 C 
BRANCH  17  18
HETATM   18  O   UNL     1      38.976  -8.944  -0.023  1.00  0.00    -0.394 OA
HETATM   19  C   UNL     1      38.788  -9.444  -1.340  1.00  0.00     0.201 C 
ENDBRANCH  17  18
ENDBRANCH  16  17
ENDBRANCH  13  16
ENDBRANCH   1  12
BRANCH   8  20
HETATM   20  C   UNL     1      40.175 -14.584   0.267  1.00  0.00     0.409 C 
HETATM   21  F   UNL     1      39.584 -15.782   0.468  1.00  0.00    -0.169 F 
HETATM   22  F   UNL     1      39.323 -13.617   0.670  1.00  0.00    -0.169 F 
HETATM   23  F   UNL     1      40.304 -14.434  -1.080  1.00  0.00    -0.169 F 
ENDBRANCH   8  20
BRANCH   6  24
HETATM   24  C   UNL     1      43.423 -16.986   3.215  1.00  0.00    -0.035 A 
HETATM   25  C   UNL     1      43.472 -18.207   2.519  1.00  0.00     0.011 A 
HETATM   26  C   UNL     1      43.790 -19.395   3.183  1.00  0.00     0.024 A 
HETATM   27  C   UNL     1      44.072 -19.373   4.545  1.00  0.00     0.034 A 
HETATM   28 CL   UNL     1      44.468 -20.834   5.363  1.00  0.00    -0.084 Cl
HETATM   29  C   UNL     1      44.039 -18.172   5.251  1.00  0.00     0.024 A 
HETATM   30  C   UNL     1      43.717 -16.984   4.589  1.00  0.00     0.011 A 
ENDBRANCH   6  24
TORSDOF 6
ENDMDL
MODEL 10
REMARK VINA RESULT:      -7.5      2.190      3.142
REMARK  6 active torsions:
REMARK  status: ('A' for Active; 'I' for Inactive)
REMARK    1  A    between atoms: O_2  and  C_3 
REMARK    2  A    between atoms: C_3  and  C_4 
REMARK    3  A    between atoms: C_4  and  N_5 
REMARK       I    between atoms: N_5  and  C_6 
REMARK    4  A    between atoms: C_6  and  C_7 
REMARK    5  A    between atoms: C_12  and  C_13 
REMARK    6  A    between atoms: C_21  and  C_22 
ROOT
HETATM    1  C   UNL     1      43.166  -9.741   7.470  1.00  0.00     0.170 A 
HETATM    2  N   UNL     1      41.992  -9.738   6.791  1.00  0.00    -0.163 NA
HETATM    3  N   UNL     1      42.027 -10.874   6.077  1.00  0.00    -0.238 N 
HETATM    4  C   UNL     1      43.219 -11.544   6.168  1.00  0.00     0.145 A 
HETATM    5  N   UNL     1      43.459 -12.653   5.420  1.00  0.00    -0.365 N 
HETATM    6  C   UNL     1      42.625 -12.917   4.251  1.00  0.00     0.118 C 
HETATM    7  C   UNL     1      41.158 -12.665   4.620  1.00  0.00     0.066 C 
HETATM    8  C   UNL     1      40.969 -11.227   5.143  1.00  0.00     0.221 C 
HETATM    9  C   UNL     1      43.964 -10.859   7.101  1.00  0.00     0.115 A 
HETATM   10 CL   UNL     1      45.521 -11.260   7.644  1.00  0.00    -0.077 Cl
HETATM   11  H   UNL     1      44.419 -12.996   5.351  1.00  0.00     0.162 HD
ENDROOT
BRANCH   1  12
HETATM   12  C   UNL     1      43.487  -8.672   8.430  1.00  0.00     0.273 C 
HETATM   13  N   UNL     1      42.687  -8.689   9.552  1.00  0.00    -0.353 N 
HETATM   14  H   UNL     1      42.090  -9.507   9.658  1.00  0.00     0.162 HD
HETATM   15  O   UNL     1      44.381  -7.849   8.260  1.00  0.00    -0.266 OA
BRANCH  13  16
HETATM   16  C   UNL     1      42.965  -7.880  10.722  1.00  0.00     0.149 C 
BRANCH  16  17
HETATM   17  C   UNL     1      43.713  -8.677  11.788  1.00  0.00     0.186 C 
BRANCH  17  18
HETATM   18  O   UNL     1      42.985  -8.618  13.019  1.00  0.00    -0.394 OA
HETATM   19  C   UNL     1      42.082  -9.709  13.142  1.00  0.00     0.201 C 
ENDBRANCH  17  18
ENDBRANCH  16  17
ENDBRANCH  13  16
ENDBRANCH   1  12
BRANCH   8  20
HETATM   20  C   UNL     1      39.596 -11.089   5.763  1.00  0.00     0.409 C 
HETATM   21  F   UNL     1      39.579 -11.447   7.066  1.00  0.00    -0.169 F 
HETATM   22  F   UNL     1      39.085  -9.844   5.659  1.00  0.00    -0.169 F 
HETATM   23  F   UNL     1      38.721 -11.911   5.121  1.00  0.00    -0.169 F 
ENDBRANCH   8  20
BRANCH   6  24
HETATM   24  C   UNL     1      42.830 -14.339   3.765  1.00  0.00    -0.035 A 
HETATM   25  C   UNL     1      42.800 -15.432   4.650  1.00  0.00     0.011 A 
HETATM   26  C   UNL     1      42.970 -16.736   4.179  1.00  0.00     0.024 A 
HETATM   27  C   UNL     1      43.161 -16.963   2.820  1.00  0.00     0.034 A 
HETATM   28 CL   UNL     1      43.366 -18.569   2.239  1.00  0.00    -0.084 Cl
HETATM   29  C   UNL     1      43.183 -15.895   1.925  1.00  0.00     0.024 A 
HETATM   30  C   UNL     1      43.018 -14.589   2.396  1.00  0.00     0.011 A 
ENDBRANCH   6  24
TORSDOF 6
ENDMDL
