MODEL 1
REMARK VINA RESULT:      -9.4      0.000      0.000
REMARK  7 active torsions:
REMARK  status: ('A' for Active; 'I' for Inactive)
REMARK    1  A    between atoms: C_2  and  O_3 
REMARK    2  A    between atoms: O_3  and  C_4 
REMARK    3  A    between atoms: C_4  and  C_5 
REMARK    4  A    between atoms: C_6  and  C_7 
REMARK    5  A    between atoms: C_18  and  S_19 
REMARK    6  A    between atoms: S_19  and  C_20 
REMARK    7  A    between atoms: C_20  and  C_21 
ROOT
HETATM    1  C   UNL     1      40.201 -13.344  -1.402  1.00  0.00     0.070 A 
HETATM    2  C   UNL     1      40.916 -12.695  -0.220  1.00  0.00     0.203 A 
HETATM    3  N   UNL     1      40.752 -13.485   1.007  1.00  0.00    -0.082 N 
HETATM    4  C   UNL     1      40.055 -14.658   1.079  1.00  0.00     0.726 A 
HETATM    5  N   UNL     1      39.472 -15.147  -0.030  1.00  0.00    -0.192 N 
HETATM    6  N   UNL     1      41.322 -13.183   2.189  1.00  0.00    -0.128 NA
HETATM    7  C   UNL     1      40.855 -14.175   2.956  1.00  0.00     0.226 A 
HETATM    8  N   UNL     1      40.094 -15.114   2.305  1.00  0.00    -0.035 NA
HETATM    9  C   UNL     1      39.529 -14.516  -1.268  1.00  0.00     0.037 A 
HETATM   10  C   UNL     1      38.835 -15.239  -2.398  1.00  0.00     0.070 C 
HETATM   11  H   UNL     1      38.950 -16.017   0.032  1.00  0.00     0.184 HD
ENDROOT
BRANCH   7  12
HETATM   12  S   UNL     1      41.197 -14.215   4.661  1.00  0.00    -0.083 SA
BRANCH  12  13
HETATM   13  C   UNL     1      42.975 -14.567   4.630  1.00  0.00     0.121 C 
BRANCH  13  14
HETATM   14  C   UNL     1      43.247 -16.054   4.598  1.00  0.00    -0.048 A 
HETATM   15  C   UNL     1      43.101 -16.783   3.406  1.00  0.00     0.020 A 
HETATM   16  C   UNL     1      43.376 -18.159   3.354  1.00  0.00    -0.025 A 
HETATM   17  C   UNL     1      43.795 -18.826   4.527  1.00  0.00    -0.026 A 
HETATM   18  C   UNL     1      43.251 -18.887   2.159  1.00  0.00     0.012 A 
HETATM   19  C   UNL     1      43.933 -18.096   5.717  1.00  0.00     0.013 A 
HETATM   20  C   UNL     1      44.074 -20.202   4.474  1.00  0.00     0.012 A 
HETATM   21  C   UNL     1      43.666 -16.725   5.752  1.00  0.00     0.009 A 
HETATM   22  C   UNL     1      43.944 -20.909   3.278  1.00  0.00     0.001 A 
HETATM   23  C   UNL     1      43.534 -20.253   2.122  1.00  0.00     0.001 A 
ENDBRANCH  13  14
ENDBRANCH  12  13
ENDBRANCH   7  12
BRANCH   2  24
HETATM   24  C   UNL     1      40.496 -11.247   0.040  1.00  0.00    -0.028 A 
HETATM   25  C   UNL     1      39.225 -10.923   0.548  1.00  0.00     0.012 A 
HETATM   26  C   UNL     1      38.874  -9.590   0.770  1.00  0.00     0.043 A 
HETATM   27  C   UNL     1      39.789  -8.581   0.498  1.00  0.00     0.116 A 
HETATM   28  F   UNL     1      39.448  -7.303   0.712  1.00  0.00    -0.206 F 
HETATM   29  C   UNL     1      41.054  -8.877   0.010  1.00  0.00     0.043 A 
HETATM   30  C   UNL     1      41.410 -10.207  -0.217  1.00  0.00     0.012 A 
ENDBRANCH   2  24
BRANCH   1  31
HETATM   31  C   UNL     1      40.220 -12.606  -2.685  1.00  0.00     0.293 C 
HETATM   32  O   UNL     1      41.158 -12.616  -3.466  1.00  0.00    -0.259 OA
BRANCH  31  33
HETATM   33  O   UNL     1      39.042 -11.959  -2.862  1.00  0.00    -0.318 OA
BRANCH  33  34
HETATM   34  C   UNL     1      39.149 -10.600  -3.316  1.00  0.00     0.174 C 
HETATM   35  C   UNL     1      37.992  -9.768  -2.792  1.00  0.00     0.034 C 
ENDBRANCH  33  34
ENDBRANCH  31  33
ENDBRANCH   1  31
TORSDOF 7
ENDMDL
MODEL 2
REMARK VINA RESULT:      -9.1      2.288      3.900
REMARK  7 active torsions:
REMARK  status: ('A' for Active; 'I' for Inactive)
REMARK    1  A    between atoms: C_2  and  O_3 
REMARK    2  A    between atoms: O_3  and  C_4 
REMARK    3  A    between atoms: C_4  and  C_5 
REMARK    4  A    between atoms: C_6  and  C_7 
REMARK    5  A    between atoms: C_18  and  S_19 
REMARK    6  A    between atoms: S_19  and  C_20 
REMARK    7  A    between atoms: C_20  and  C_21 
ROOT
HETATM    1  C   UNL     1      40.227  -9.871  -0.702  1.00  0.00     0.070 A 
HETATM    2  C   UNL     1      39.529 -11.079  -0.083  1.00  0.00     0.203 A 
HETATM    3  N   UNL     1      40.299 -11.627   1.041  1.00  0.00    -0.082 N 
HETATM    4  C   UNL     1      41.487 -11.113   1.482  1.00  0.00     0.726 A 
HETATM    5  N   UNL     1      42.007 -10.036   0.868  1.00  0.00    -0.192 N 
HETATM    6  N   UNL     1      39.897 -12.656   1.810  1.00  0.00    -0.128 NA
HETATM    7  C   UNL     1      40.934 -12.766   2.648  1.00  0.00     0.226 A 
HETATM    8  N   UNL     1      41.919 -11.822   2.495  1.00  0.00    -0.035 NA
HETATM    9  C   UNL     1      41.404  -9.404  -0.214  1.00  0.00     0.037 A 
HETATM   10  C   UNL     1      42.130  -8.191  -0.746  1.00  0.00     0.070 C 
HETATM   11  H   UNL     1      42.893  -9.663   1.198  1.00  0.00     0.184 HD
ENDROOT
BRANCH   7  12
HETATM   12  S   UNL     1      40.997 -14.051   3.819  1.00  0.00    -0.083 SA
BRANCH  12  13
HETATM   13  C   UNL     1      42.770 -14.431   3.794  1.00  0.00     0.121 C 
BRANCH  13  14
HETATM   14  C   UNL     1      43.021 -15.889   3.485  1.00  0.00    -0.048 A 
HETATM   15  C   UNL     1      43.392 -16.783   4.503  1.00  0.00     0.020 A 
HETATM   16  C   UNL     1      43.603 -18.146   4.236  1.00  0.00    -0.025 A 
HETATM   17  C   UNL     1      43.452 -18.624   2.916  1.00  0.00    -0.026 A 
HETATM   18  C   UNL     1      43.954 -19.047   5.255  1.00  0.00     0.012 A 
HETATM   19  C   UNL     1      43.089 -17.727   1.900  1.00  0.00     0.013 A 
HETATM   20  C   UNL     1      43.659 -19.988   2.649  1.00  0.00     0.012 A 
HETATM   21  C   UNL     1      42.872 -16.376   2.181  1.00  0.00     0.009 A 
HETATM   22  C   UNL     1      44.008 -20.869   3.674  1.00  0.00     0.001 A 
HETATM   23  C   UNL     1      44.154 -20.400   4.976  1.00  0.00     0.001 A 
ENDBRANCH  13  14
ENDBRANCH  12  13
ENDBRANCH   7  12
BRANCH   2  24
HETATM   24  C   UNL     1      39.214 -12.194  -1.082  1.00  0.00    -0.028 A 
HETATM   25  C   UNL     1      37.898 -12.472  -1.492  1.00  0.00     0.012 A 
HETATM   26  C   UNL     1      37.646 -13.500  -2.403  1.00  0.00     0.043 A 
HETATM   27  C   UNL     1      38.703 -14.244  -2.914  1.00  0.00     0.116 A 
HETATM   28  F   UNL     1      38.457 -15.229  -3.787  1.00  0.00    -0.206 F 
HETATM   29  C   UNL     1      40.011 -13.978  -2.534  1.00  0.00     0.043 A 
HETATM   30  C   UNL     1      40.269 -12.955  -1.622  1.00  0.00     0.012 A 
ENDBRANCH   2  24
BRANCH   1  31
HETATM   31  C   UNL     1      39.594  -9.272  -1.898  1.00  0.00     0.293 C 
HETATM   32  O   UNL     1      38.731  -8.410  -1.857  1.00  0.00    -0.259 OA
BRANCH  31  33
HETATM   33  O   UNL     1      40.138  -9.800  -3.022  1.00  0.00    -0.318 OA
BRANCH  33  34
HETATM   34  C   UNL     1      40.031  -8.983  -4.200  1.00  0.00     0.174 C 
HETATM   35  C   UNL     1      41.239  -8.072  -4.330  1.00  0.00     0.034 C 
ENDBRANCH  33  34
ENDBRANCH  31  33
ENDBRANCH   1  31
TORSDOF 7
ENDMDL
MODEL 3
REMARK VINA RESULT:      -9.1      1.187      1.746
REMARK  7 active torsions:
REMARK  status: ('A' for Active; 'I' for Inactive)
REMARK    1  A    between atoms: C_2  and  O_3 
REMARK    2  A    between atoms: O_3  and  C_4 
REMARK    3  A    between atoms: C_4  and  C_5 
REMARK    4  A    between atoms: C_6  and  C_7 
REMARK    5  A    between atoms: C_18  and  S_19 
REMARK    6  A    between atoms: S_19  and  C_20 
REMARK    7  A    between atoms: C_20  and  C_21 
ROOT
HETATM    1  C   UNL     1      39.301 -12.613  -1.572  1.00  0.00     0.070 A 
HETATM    2  C   UNL     1      39.813 -11.957  -0.293  1.00  0.00     0.203 A 
HETATM    3  N   UNL     1      40.098 -12.955   0.746  1.00  0.00    -0.082 N 
HETATM    4  C   UNL     1      39.934 -14.302   0.584  1.00  0.00     0.726 A 
HETATM    5  N   UNL     1      39.486 -14.774  -0.593  1.00  0.00    -0.192 N 
HETATM    6  N   UNL     1      40.615 -12.668   1.956  1.00  0.00    -0.128 NA
HETATM    7  C   UNL     1      40.658 -13.887   2.507  1.00  0.00     0.226 A 
HETATM    8  N   UNL     1      40.272 -14.919   1.688  1.00  0.00    -0.035 NA
HETATM    9  C   UNL     1      39.166 -13.960  -1.674  1.00  0.00     0.037 A 
HETATM   10  C   UNL     1      38.708 -14.683  -2.919  1.00  0.00     0.070 C 
HETATM   11  H   UNL     1      39.361 -15.777  -0.704  1.00  0.00     0.184 HD
ENDROOT
BRANCH   7  12
HETATM   12  S   UNL     1      41.155 -14.095   4.161  1.00  0.00    -0.083 SA
BRANCH  12  13
HETATM   13  C   UNL     1      42.920 -14.441   3.933  1.00  0.00     0.121 C 
BRANCH  13  14
HETATM   14  C   UNL     1      43.228 -15.909   4.122  1.00  0.00    -0.048 A 
HETATM   15  C   UNL     1      43.031 -16.823   3.074  1.00  0.00     0.020 A 
HETATM   16  C   UNL     1      43.338 -18.185   3.226  1.00  0.00    -0.025 A 
HETATM   17  C   UNL     1      43.843 -18.646   4.462  1.00  0.00    -0.026 A 
HETATM   18  C   UNL     1      43.161 -19.098   2.173  1.00  0.00     0.012 A 
HETATM   19  C   UNL     1      44.031 -17.732   5.509  1.00  0.00     0.013 A 
HETATM   20  C   UNL     1      44.154 -20.008   4.613  1.00  0.00     0.012 A 
HETATM   21  C   UNL     1      43.731 -16.378   5.340  1.00  0.00     0.009 A 
HETATM   22  C   UNL     1      43.972 -20.902   3.557  1.00  0.00     0.001 A 
HETATM   23  C   UNL     1      43.477 -20.448   2.338  1.00  0.00     0.001 A 
ENDBRANCH  13  14
ENDBRANCH  12  13
ENDBRANCH   7  12
BRANCH   2  24
HETATM   24  C   UNL     1      38.882 -10.882   0.269  1.00  0.00    -0.028 A 
HETATM   25  C   UNL     1      39.314  -9.560   0.476  1.00  0.00     0.012 A 
HETATM   26  C   UNL     1      38.438  -8.604   0.995  1.00  0.00     0.043 A 
HETATM   27  C   UNL     1      37.129  -8.960   1.296  1.00  0.00     0.116 A 
HETATM   28  F   UNL     1      36.292  -8.041   1.794  1.00  0.00    -0.206 F 
HETATM   29  C   UNL     1      36.675 -10.255   1.087  1.00  0.00     0.043 A 
HETATM   30  C   UNL     1      37.547 -11.215   0.572  1.00  0.00     0.012 A 
ENDBRANCH   2  24
BRANCH   1  31
HETATM   31  C   UNL     1      38.900 -11.711  -2.674  1.00  0.00     0.293 C 
HETATM   32  O   UNL     1      37.742 -11.485  -2.989  1.00  0.00    -0.259 OA
BRANCH  31  33
HETATM   33  O   UNL     1      40.000 -11.162  -3.244  1.00  0.00    -0.318 OA
BRANCH  33  34
HETATM   34  C   UNL     1      39.994  -9.728  -3.339  1.00  0.00     0.174 C 
HETATM   35  C   UNL     1      41.249  -9.145  -2.712  1.00  0.00     0.034 C 
ENDBRANCH  33  34
ENDBRANCH  31  33
ENDBRANCH   1  31
TORSDOF 7
ENDMDL
MODEL 4
REMARK VINA RESULT:      -8.9      5.734      7.902
REMARK  7 active torsions:
REMARK  status: ('A' for Active; 'I' for Inactive)
REMARK    1  A    between atoms: C_2  and  O_3 
REMARK    2  A    between atoms: O_3  and  C_4 
REMARK    3  A    between atoms: C_4  and  C_5 
REMARK    4  A    between atoms: C_6  and  C_7 
REMARK    5  A    between atoms: C_18  and  S_19 
REMARK    6  A    between atoms: S_19  and  C_20 
REMARK    7  A    between atoms: C_20  and  C_21 
ROOT
HETATM    1  C   UNL     1      43.945  -9.402   8.092  1.00  0.00     0.070 A 
HETATM    2  C   UNL     1      42.595  -9.988   7.687  1.00  0.00     0.203 A 
HETATM    3  N   UNL     1      42.752 -11.080   6.718  1.00  0.00    -0.082 N 
HETATM    4  C   UNL     1      43.957 -11.523   6.247  1.00  0.00     0.726 A 
HETATM    5  N   UNL     1      45.088 -10.941   6.681  1.00  0.00    -0.192 N 
HETATM    6  N   UNL     1      41.737 -11.818   6.231  1.00  0.00    -0.128 NA
HETATM    7  C   UNL     1      42.394 -12.636   5.401  1.00  0.00     0.226 A 
HETATM    8  N   UNL     1      43.761 -12.503   5.402  1.00  0.00    -0.035 NA
HETATM    9  C   UNL     1      45.109  -9.890   7.593  1.00  0.00     0.037 A 
HETATM   10  C   UNL     1      46.482  -9.392   7.979  1.00  0.00     0.070 C 
HETATM   11  H   UNL     1      45.980 -11.271   6.322  1.00  0.00     0.184 HD
ENDROOT
BRANCH   7  12
HETATM   12  S   UNL     1      41.529 -13.760   4.393  1.00  0.00    -0.083 SA
BRANCH  12  13
HETATM   13  C   UNL     1      42.890 -14.410   3.387  1.00  0.00     0.121 C 
BRANCH  13  14
HETATM   14  C   UNL     1      43.197 -15.850   3.731  1.00  0.00    -0.048 A 
HETATM   15  C   UNL     1      43.052 -16.863   2.770  1.00  0.00     0.020 A 
HETATM   16  C   UNL     1      43.360 -18.201   3.067  1.00  0.00    -0.025 A 
HETATM   17  C   UNL     1      43.812 -18.535   4.363  1.00  0.00    -0.026 A 
HETATM   18  C   UNL     1      43.235 -19.214   2.102  1.00  0.00     0.012 A 
HETATM   19  C   UNL     1      43.949 -17.521   5.324  1.00  0.00     0.013 A 
HETATM   20  C   UNL     1      44.124 -19.872   4.660  1.00  0.00     0.012 A 
HETATM   21  C   UNL     1      43.649 -16.193   5.010  1.00  0.00     0.009 A 
HETATM   22  C   UNL     1      43.994 -20.866   3.689  1.00  0.00     0.001 A 
HETATM   23  C   UNL     1      43.551 -20.538   2.411  1.00  0.00     0.001 A 
ENDBRANCH  13  14
ENDBRANCH  12  13
ENDBRANCH   7  12
BRANCH   2  24
HETATM   24  C   UNL     1      41.609  -8.954   7.140  1.00  0.00    -0.028 A 
HETATM   25  C   UNL     1      41.855  -8.253   5.947  1.00  0.00     0.012 A 
HETATM   26  C   UNL     1      40.935  -7.313   5.478  1.00  0.00     0.043 A 
HETATM   27  C   UNL     1      39.765  -7.078   6.191  1.00  0.00     0.116 A 
HETATM   28  F   UNL     1      38.885  -6.176   5.739  1.00  0.00    -0.206 F 
HETATM   29  C   UNL     1      39.494  -7.769   7.365  1.00  0.00     0.043 A 
HETATM   30  C   UNL     1      40.411  -8.706   7.838  1.00  0.00     0.012 A 
ENDBRANCH   2  24
BRANCH   1  31
HETATM   31  C   UNL     1      43.924  -8.238   9.005  1.00  0.00     0.293 C 
HETATM   32  O   UNL     1      44.267  -7.111   8.687  1.00  0.00    -0.259 OA
BRANCH  31  33
HETATM   33  O   UNL     1      43.440  -8.610  10.216  1.00  0.00    -0.318 OA
BRANCH  33  34
HETATM   34  C   UNL     1      44.298  -9.472  10.982  1.00  0.00     0.174 C 
HETATM   35  C   UNL     1      43.516 -10.650  11.536  1.00  0.00     0.034 C 
ENDBRANCH  33  34
ENDBRANCH  31  33
ENDBRANCH   1  31
TORSDOF 7
ENDMDL
MODEL 5
REMARK VINA RESULT:      -8.8      4.087      6.298
REMARK  7 active torsions:
REMARK  status: ('A' for Active; 'I' for Inactive)
REMARK    1  A    between atoms: C_2  and  O_3 
REMARK    2  A    between atoms: O_3  and  C_4 
REMARK    3  A    between atoms: C_4  and  C_5 
REMARK    4  A    between atoms: C_6  and  C_7 
REMARK    5  A    between atoms: C_18  and  S_19 
REMARK    6  A    between atoms: S_19  and  C_20 
REMARK    7  A    between atoms: C_20  and  C_21 
ROOT
HETATM    1  C   UNL     1      40.198  -9.587   4.132  1.00  0.00     0.070 A 
HETATM    2  C   UNL     1      41.162 -10.539   3.427  1.00  0.00     0.203 A 
HETATM    3  N   UNL     1      40.449 -11.459   2.532  1.00  0.00    -0.082 N 
HETATM    4  C   UNL     1      39.094 -11.456   2.345  1.00  0.00     0.726 A 
HETATM    5  N   UNL     1      38.340 -10.564   3.010  1.00  0.00    -0.192 N 
HETATM    6  N   UNL     1      41.049 -12.367   1.739  1.00  0.00    -0.128 NA
HETATM    7  C   UNL     1      39.986 -12.940   1.162  1.00  0.00     0.226 A 
HETATM    8  N   UNL     1      38.770 -12.392   1.490  1.00  0.00    -0.035 NA
HETATM    9  C   UNL     1      38.861  -9.630   3.900  1.00  0.00     0.037 A 
HETATM   10  C   UNL     1      37.854  -8.694   4.525  1.00  0.00     0.070 C 
HETATM   11  H   UNL     1      37.333 -10.571   2.871  1.00  0.00     0.184 HD
ENDROOT
BRANCH   7  12
HETATM   12  S   UNL     1      40.180 -14.300   0.095  1.00  0.00    -0.083 SA
BRANCH  12  13
HETATM   13  C   UNL     1      39.819 -15.664   1.234  1.00  0.00     0.121 C 
BRANCH  13  14
HETATM   14  C   UNL     1      40.921 -15.846   2.252  1.00  0.00    -0.048 A 
HETATM   15  C   UNL     1      40.617 -16.017   3.613  1.00  0.00     0.020 A 
HETATM   16  C   UNL     1      41.629 -16.213   4.567  1.00  0.00    -0.025 A 
HETATM   17  C   UNL     1      42.979 -16.226   4.152  1.00  0.00    -0.026 A 
HETATM   18  C   UNL     1      41.328 -16.405   5.926  1.00  0.00     0.012 A 
HETATM   19  C   UNL     1      43.279 -16.047   2.793  1.00  0.00     0.013 A 
HETATM   20  C   UNL     1      43.991 -16.426   5.105  1.00  0.00     0.012 A 
HETATM   21  C   UNL     1      42.262 -15.863   1.853  1.00  0.00     0.009 A 
HETATM   22  C   UNL     1      43.674 -16.615   6.451  1.00  0.00     0.001 A 
HETATM   23  C   UNL     1      42.344 -16.606   6.862  1.00  0.00     0.001 A 
ENDBRANCH  13  14
ENDBRANCH  12  13
ENDBRANCH   7  12
BRANCH   2  24
HETATM   24  C   UNL     1      42.053 -11.337   4.380  1.00  0.00    -0.028 A 
HETATM   25  C   UNL     1      41.523 -12.283   5.275  1.00  0.00     0.012 A 
HETATM   26  C   UNL     1      42.366 -12.992   6.133  1.00  0.00     0.043 A 
HETATM   27  C   UNL     1      43.737 -12.767   6.095  1.00  0.00     0.116 A 
HETATM   28  F   UNL     1      44.542 -13.448   6.920  1.00  0.00    -0.206 F 
HETATM   29  C   UNL     1      44.285 -11.847   5.210  1.00  0.00     0.043 A 
HETATM   30  C   UNL     1      43.447 -11.135   4.353  1.00  0.00     0.012 A 
ENDBRANCH   2  24
BRANCH   1  31
HETATM   31  C   UNL     1      40.781  -8.659   5.126  1.00  0.00     0.293 C 
HETATM   32  O   UNL     1      41.385  -7.638   4.838  1.00  0.00    -0.259 OA
BRANCH  31  33
HETATM   33  O   UNL     1      40.514  -9.099   6.380  1.00  0.00    -0.318 OA
BRANCH  33  34
HETATM   34  C   UNL     1      41.379  -8.589   7.408  1.00  0.00     0.174 C 
HETATM   35  C   UNL     1      42.539  -9.538   7.651  1.00  0.00     0.034 C 
ENDBRANCH  33  34
ENDBRANCH  31  33
ENDBRANCH   1  31
TORSDOF 7
ENDMDL
MODEL 6
REMARK VINA RESULT:      -8.7      5.617      8.315
REMARK  7 active torsions:
REMARK  status: ('A' for Active; 'I' for Inactive)
REMARK    1  A    between atoms: C_2  and  O_3 
REMARK    2  A    between atoms: O_3  and  C_4 
REMARK    3  A    between atoms: C_4  and  C_5 
REMARK    4  A    between atoms: C_6  and  C_7 
REMARK    5  A    between atoms: C_18  and  S_19 
REMARK    6  A    between atoms: S_19  and  C_20 
REMARK    7  A    between atoms: C_20  and  C_21 
ROOT
HETATM    1  C   UNL     1      41.128 -12.152   1.770  1.00  0.00     0.070 A 
HETATM    2  C   UNL     1      41.391 -13.023   2.996  1.00  0.00     0.203 A 
HETATM    3  N   UNL     1      42.306 -12.363   3.936  1.00  0.00    -0.082 N 
HETATM    4  C   UNL     1      42.845 -11.122   3.743  1.00  0.00     0.726 A 
HETATM    5  N   UNL     1      42.535 -10.436   2.629  1.00  0.00    -0.192 N 
HETATM    6  N   UNL     1      42.669 -12.872   5.129  1.00  0.00    -0.128 NA
HETATM    7  C   UNL     1      43.500 -11.921   5.568  1.00  0.00     0.226 A 
HETATM    8  N   UNL     1      43.616 -10.818   4.756  1.00  0.00    -0.035 NA
HETATM    9  C   UNL     1      41.689 -10.923   1.638  1.00  0.00     0.037 A 
HETATM   10  C   UNL     1      41.441  -9.989   0.477  1.00  0.00     0.070 C 
HETATM   11  H   UNL     1      42.944  -9.516   2.489  1.00  0.00     0.184 HD
ENDROOT
BRANCH   7  12
HETATM   12  S   UNL     1      44.372 -12.122   7.059  1.00  0.00    -0.083 SA
BRANCH  12  13
HETATM   13  C   UNL     1      45.011 -10.442   7.295  1.00  0.00     0.121 C 
BRANCH  13  14
HETATM   14  C   UNL     1      44.580  -9.864   8.623  1.00  0.00    -0.048 A 
HETATM   15  C   UNL     1      43.919  -8.626   8.685  1.00  0.00     0.020 A 
HETATM   16  C   UNL     1      43.489  -8.089   9.910  1.00  0.00    -0.025 A 
HETATM   17  C   UNL     1      43.737  -8.803  11.103  1.00  0.00    -0.026 A 
HETATM   18  C   UNL     1      42.810  -6.861   9.973  1.00  0.00     0.012 A 
HETATM   19  C   UNL     1      44.404 -10.035  11.039  1.00  0.00     0.013 A 
HETATM   20  C   UNL     1      43.303  -8.268  12.328  1.00  0.00     0.012 A 
HETATM   21  C   UNL     1      44.817 -10.562   9.813  1.00  0.00     0.009 A 
HETATM   22  C   UNL     1      42.629  -7.046  12.373  1.00  0.00     0.001 A 
HETATM   23  C   UNL     1      42.382  -6.344  11.197  1.00  0.00     0.001 A 
ENDBRANCH  13  14
ENDBRANCH  12  13
ENDBRANCH   7  12
BRANCH   2  24
HETATM   24  C   UNL     1      41.915 -14.420   2.663  1.00  0.00    -0.028 A 
HETATM   25  C   UNL     1      43.099 -14.613   1.929  1.00  0.00     0.012 A 
HETATM   26  C   UNL     1      43.547 -15.904   1.640  1.00  0.00     0.043 A 
HETATM   27  C   UNL     1      42.824 -17.002   2.089  1.00  0.00     0.116 A 
HETATM   28  F   UNL     1      43.257 -18.238   1.809  1.00  0.00    -0.206 F 
HETATM   29  C   UNL     1      41.660 -16.836   2.827  1.00  0.00     0.043 A 
HETATM   30  C   UNL     1      41.206 -15.549   3.116  1.00  0.00     0.012 A 
ENDBRANCH   2  24
BRANCH   1  31
HETATM   31  C   UNL     1      40.283 -12.734   0.703  1.00  0.00     0.293 C 
HETATM   32  O   UNL     1      40.720 -13.258  -0.308  1.00  0.00    -0.259 OA
BRANCH  31  33
HETATM   33  O   UNL     1      38.974 -12.622   1.040  1.00  0.00    -0.318 OA
BRANCH  33  34
HETATM   34  C   UNL     1      38.250 -11.586   0.356  1.00  0.00     0.174 C 
HETATM   35  C   UNL     1      37.002 -11.204   1.133  1.00  0.00     0.034 C 
ENDBRANCH  33  34
ENDBRANCH  31  33
ENDBRANCH   1  31
TORSDOF 7
ENDMDL
MODEL 7
REMARK VINA RESULT:      -8.6      6.245      8.440
REMARK  7 active torsions:
REMARK  status: ('A' for Active; 'I' for Inactive)
REMARK    1  A    between atoms: C_2  and  O_3 
REMARK    2  A    between atoms: O_3  and  C_4 
REMARK    3  A    between atoms: C_4  and  C_5 
REMARK    4  A    between atoms: C_6  and  C_7 
REMARK    5  A    between atoms: C_18  and  S_19 
REMARK    6  A    between atoms: S_19  and  C_20 
REMARK    7  A    between atoms: C_20  and  C_21 
ROOT
HETATM    1  C   UNL     1      43.243  -9.728   9.220  1.00  0.00     0.070 A 
HETATM    2  C   UNL     1      42.361  -9.998   8.003  1.00  0.00     0.203 A 
HETATM    3  N   UNL     1      43.136 -10.566   6.893  1.00  0.00    -0.082 N 
HETATM    4  C   UNL     1      44.477 -10.829   6.946  1.00  0.00     0.726 A 
HETATM    5  N   UNL     1      45.156 -10.562   8.076  1.00  0.00    -0.192 N 
HETATM    6  N   UNL     1      42.609 -10.957   5.718  1.00  0.00    -0.128 NA
HETATM    7  C   UNL     1      43.706 -11.369   5.072  1.00  0.00     0.226 A 
HETATM    8  N   UNL     1      44.869 -11.329   5.802  1.00  0.00    -0.035 NA
HETATM    9  C   UNL     1      44.569 -10.017   9.213  1.00  0.00     0.037 A 
HETATM   10  C   UNL     1      45.494  -9.818  10.390  1.00  0.00     0.070 C 
HETATM   11  H   UNL     1      46.153 -10.755   8.107  1.00  0.00     0.184 HD
ENDROOT
BRANCH   7  12
HETATM   12  S   UNL     1      43.619 -11.887   3.415  1.00  0.00    -0.083 SA
BRANCH  12  13
HETATM   13  C   UNL     1      42.215 -13.031   3.502  1.00  0.00     0.121 C 
BRANCH  13  14
HETATM   14  C   UNL     1      42.651 -14.464   3.296  1.00  0.00    -0.048 A 
HETATM   15  C   UNL     1      42.950 -15.286   4.395  1.00  0.00     0.020 A 
HETATM   16  C   UNL     1      43.330 -16.627   4.220  1.00  0.00    -0.025 A 
HETATM   17  C   UNL     1      43.426 -17.155   2.913  1.00  0.00    -0.026 A 
HETATM   18  C   UNL     1      43.611 -17.458   5.317  1.00  0.00     0.012 A 
HETATM   19  C   UNL     1      43.133 -16.328   1.818  1.00  0.00     0.013 A 
HETATM   20  C   UNL     1      43.802 -18.497   2.739  1.00  0.00     0.012 A 
HETATM   21  C   UNL     1      42.746 -14.999   2.007  1.00  0.00     0.009 A 
HETATM   22  C   UNL     1      44.078 -19.308   3.840  1.00  0.00     0.001 A 
HETATM   23  C   UNL     1      43.982 -18.790   5.128  1.00  0.00     0.001 A 
ENDBRANCH  13  14
ENDBRANCH  12  13
ENDBRANCH   7  12
BRANCH   2  24
HETATM   24  C   UNL     1      41.585  -8.774   7.515  1.00  0.00    -0.028 A 
HETATM   25  C   UNL     1      40.180  -8.760   7.457  1.00  0.00     0.012 A 
HETATM   26  C   UNL     1      39.504  -7.625   7.002  1.00  0.00     0.043 A 
HETATM   27  C   UNL     1      40.225  -6.502   6.614  1.00  0.00     0.116 A 
HETATM   28  F   UNL     1      39.573  -5.417   6.178  1.00  0.00    -0.206 F 
HETATM   29  C   UNL     1      41.612  -6.488   6.675  1.00  0.00     0.043 A 
HETATM   30  C   UNL     1      42.292  -7.619   7.126  1.00  0.00     0.012 A 
ENDBRANCH   2  24
BRANCH   1  31
HETATM   31  C   UNL     1      42.598  -9.079  10.383  1.00  0.00     0.293 C 
HETATM   32  O   UNL     1      42.606  -7.876  10.588  1.00  0.00    -0.259 OA
BRANCH  31  33
HETATM   33  O   UNL     1      41.984 -10.013  11.150  1.00  0.00    -0.318 OA
BRANCH  33  34
HETATM   34  C   UNL     1      40.775  -9.581  11.796  1.00  0.00     0.174 C 
HETATM   35  C   UNL     1      39.570  -9.855  10.914  1.00  0.00     0.034 C 
ENDBRANCH  33  34
ENDBRANCH  31  33
ENDBRANCH   1  31
TORSDOF 7
ENDMDL
MODEL 8
REMARK VINA RESULT:      -8.5      6.152      9.381
REMARK  7 active torsions:
REMARK  status: ('A' for Active; 'I' for Inactive)
REMARK    1  A    between atoms: C_2  and  O_3 
REMARK    2  A    between atoms: O_3  and  C_4 
REMARK    3  A    between atoms: C_4  and  C_5 
REMARK    4  A    between atoms: C_6  and  C_7 
REMARK    5  A    between atoms: C_18  and  S_19 
REMARK    6  A    between atoms: S_19  and  C_20 
REMARK    7  A    between atoms: C_20  and  C_21 
ROOT
HETATM    1  C   UNL     1      41.789 -12.915   3.919  1.00  0.00     0.070 A 
HETATM    2  C   UNL     1      42.270 -13.101   5.356  1.00  0.00     0.203 A 
HETATM    3  N   UNL     1      43.452 -12.276   5.637  1.00  0.00    -0.082 N 
HETATM    4  C   UNL     1      44.042 -11.441   4.729  1.00  0.00     0.726 A 
HETATM    5  N   UNL     1      43.527 -11.346   3.491  1.00  0.00    -0.192 N 
HETATM    6  N   UNL     1      44.055 -12.194   6.839  1.00  0.00    -0.128 NA
HETATM    7  C   UNL     1      45.059 -11.354   6.561  1.00  0.00     0.226 A 
HETATM    8  N   UNL     1      45.070 -10.850   5.283  1.00  0.00    -0.035 NA
HETATM    9  C   UNL     1      42.414 -12.065   3.065  1.00  0.00     0.037 A 
HETATM   10  C   UNL     1      41.971 -11.798   1.647  1.00  0.00     0.070 C 
HETATM   11  H   UNL     1      43.973 -10.728   2.819  1.00  0.00     0.184 HD
ENDROOT
BRANCH   7  12
HETATM   12  S   UNL     1      46.257 -10.974   7.763  1.00  0.00    -0.083 SA
BRANCH  12  13
HETATM   13  C   UNL     1      46.038  -9.178   7.888  1.00  0.00     0.121 C 
BRANCH  13  14
HETATM   14  C   UNL     1      44.976  -8.817   8.901  1.00  0.00    -0.048 A 
HETATM   15  C   UNL     1      44.662  -9.693   9.954  1.00  0.00     0.020 A 
HETATM   16  C   UNL     1      43.697  -9.358  10.918  1.00  0.00    -0.025 A 
HETATM   17  C   UNL     1      43.019  -8.123  10.819  1.00  0.00    -0.026 A 
HETATM   18  C   UNL     1      43.394 -10.223  11.983  1.00  0.00     0.012 A 
HETATM   19  C   UNL     1      43.329  -7.254   9.763  1.00  0.00     0.013 A 
HETATM   20  C   UNL     1      42.056  -7.787  11.786  1.00  0.00     0.012 A 
HETATM   21  C   UNL     1      44.300  -7.594   8.817  1.00  0.00     0.009 A 
HETATM   22  C   UNL     1      41.768  -8.658  12.837  1.00  0.00     0.001 A 
HETATM   23  C   UNL     1      42.437  -9.875  12.937  1.00  0.00     0.001 A 
ENDBRANCH  13  14
ENDBRANCH  12  13
ENDBRANCH   7  12
BRANCH   2  24
HETATM   24  C   UNL     1      42.556 -14.555   5.733  1.00  0.00    -0.028 A 
HETATM   25  C   UNL     1      43.628 -15.270   5.170  1.00  0.00     0.012 A 
HETATM   26  C   UNL     1      43.858 -16.598   5.533  1.00  0.00     0.043 A 
HETATM   27  C   UNL     1      43.029 -17.212   6.464  1.00  0.00     0.116 A 
HETATM   28  F   UNL     1      43.252 -18.487   6.810  1.00  0.00    -0.206 F 
HETATM   29  C   UNL     1      41.973 -16.522   7.043  1.00  0.00     0.043 A 
HETATM   30  C   UNL     1      41.736 -15.196   6.681  1.00  0.00     0.012 A 
ENDBRANCH   2  24
BRANCH   1  31
HETATM   31  C   UNL     1      40.649 -13.752   3.481  1.00  0.00     0.293 C 
HETATM   32  O   UNL     1      39.498 -13.589   3.852  1.00  0.00    -0.259 OA
BRANCH  31  33
HETATM   33  O   UNL     1      41.076 -14.686   2.597  1.00  0.00    -0.318 OA
BRANCH  33  34
HETATM   34  C   UNL     1      40.747 -16.045   2.930  1.00  0.00     0.174 C 
HETATM   35  C   UNL     1      41.859 -16.985   2.501  1.00  0.00     0.034 C 
ENDBRANCH  33  34
ENDBRANCH  31  33
ENDBRANCH   1  31
TORSDOF 7
ENDMDL
MODEL 9
REMARK VINA RESULT:      -8.4      6.520      9.117
REMARK  7 active torsions:
REMARK  status: ('A' for Active; 'I' for Inactive)
REMARK    1  A    between atoms: C_2  and  O_3 
REMARK    2  A    between atoms: O_3  and  C_4 
REMARK    3  A    between atoms: C_4  and  C_5 
REMARK    4  A    between atoms: C_6  and  C_7 
REMARK    5  A    between atoms: C_18  and  S_19 
REMARK    6  A    between atoms: S_19  and  C_20 
REMARK    7  A    between atoms: C_20  and  C_21 
ROOT
HETATM    1  C   UNL     1      43.018 -14.590   4.644  1.00  0.00     0.070 A 
HETATM    2  C   UNL     1      43.034 -13.069   4.517  1.00  0.00     0.203 A 
HETATM    3  N   UNL     1      43.377 -12.427   5.792  1.00  0.00    -0.082 N 
HETATM    4  C   UNL     1      43.656 -13.106   6.945  1.00  0.00     0.726 A 
HETATM    5  N   UNL     1      43.624 -14.450   6.941  1.00  0.00    -0.192 N 
HETATM    6  N   UNL     1      43.521 -11.099   5.961  1.00  0.00    -0.128 NA
HETATM    7  C   UNL     1      43.806 -11.039   7.267  1.00  0.00     0.226 A 
HETATM    8  N   UNL     1      43.921 -12.252   7.901  1.00  0.00    -0.035 NA
HETATM    9  C   UNL     1      43.311 -15.207   5.817  1.00  0.00     0.037 A 
HETATM   10  C   UNL     1      43.358 -16.704   6.008  1.00  0.00     0.070 C 
HETATM   11  H   UNL     1      43.827 -14.949   7.803  1.00  0.00     0.184 HD
ENDROOT
BRANCH   7  12
HETATM   12  S   UNL     1      43.983  -9.506   8.069  1.00  0.00    -0.083 SA
BRANCH  12  13
HETATM   13  C   UNL     1      44.929 -10.008   9.532  1.00  0.00     0.121 C 
BRANCH  13  14
HETATM   14  C   UNL     1      44.153  -9.766  10.806  1.00  0.00    -0.048 A 
HETATM   15  C   UNL     1      43.907  -8.458  11.257  1.00  0.00     0.020 A 
HETATM   16  C   UNL     1      43.165  -8.217  12.424  1.00  0.00    -0.025 A 
HETATM   17  C   UNL     1      42.666  -9.311  13.166  1.00  0.00    -0.026 A 
HETATM   18  C   UNL     1      42.900  -6.910  12.868  1.00  0.00     0.012 A 
HETATM   19  C   UNL     1      42.919 -10.615  12.717  1.00  0.00     0.013 A 
HETATM   20  C   UNL     1      41.919  -9.069  14.332  1.00  0.00     0.012 A 
HETATM   21  C   UNL     1      43.650 -10.841  11.548  1.00  0.00     0.009 A 
HETATM   22  C   UNL     1      41.666  -7.764  14.758  1.00  0.00     0.001 A 
HETATM   23  C   UNL     1      42.155  -6.686  14.026  1.00  0.00     0.001 A 
ENDBRANCH  13  14
ENDBRANCH  12  13
ENDBRANCH   7  12
BRANCH   2  24
HETATM   24  C   UNL     1      41.731 -12.478   3.977  1.00  0.00    -0.028 A 
HETATM   25  C   UNL     1      40.519 -12.584   4.684  1.00  0.00     0.012 A 
HETATM   26  C   UNL     1      39.347 -12.036   4.159  1.00  0.00     0.043 A 
HETATM   27  C   UNL     1      39.381 -11.372   2.939  1.00  0.00     0.116 A 
HETATM   28  F   UNL     1      38.254 -10.848   2.440  1.00  0.00    -0.206 F 
HETATM   29  C   UNL     1      40.568 -11.242   2.230  1.00  0.00     0.043 A 
HETATM   30  C   UNL     1      41.741 -11.791   2.748  1.00  0.00     0.012 A 
ENDBRANCH   2  24
BRANCH   1  31
HETATM   31  C   UNL     1      42.608 -15.358   3.447  1.00  0.00     0.293 C 
HETATM   32  O   UNL     1      43.346 -15.608   2.508  1.00  0.00    -0.259 OA
BRANCH  31  33
HETATM   33  O   UNL     1      41.319 -15.757   3.576  1.00  0.00    -0.318 OA
BRANCH  33  34
HETATM   34  C   UNL     1      40.672 -16.149   2.354  1.00  0.00     0.174 C 
HETATM   35  C   UNL     1      39.916 -14.979   1.750  1.00  0.00     0.034 C 
ENDBRANCH  33  34
ENDBRANCH  31  33
ENDBRANCH   1  31
TORSDOF 7
ENDMDL
MODEL 10
REMARK VINA RESULT:      -8.4      7.335      9.336
REMARK  7 active torsions:
REMARK  status: ('A' for Active; 'I' for Inactive)
REMARK    1  A    between atoms: C_2  and  O_3 
REMARK    2  A    between atoms: O_3  and  C_4 
REMARK    3  A    between atoms: C_4  and  C_5 
REMARK    4  A    between atoms: C_6  and  C_7 
REMARK    5  A    between atoms: C_18  and  S_19 
REMARK    6  A    between atoms: S_19  and  C_20 
REMARK    7  A    between atoms: C_20  and  C_21 
ROOT
HETATM    1  C   UNL     1      40.940  -7.528   8.283  1.00  0.00     0.070 A 
HETATM    2  C   UNL     1      42.247  -8.205   8.690  1.00  0.00     0.203 A 
HETATM    3  N   UNL     1      42.516  -9.390   7.864  1.00  0.00    -0.082 N 
HETATM    4  C   UNL     1      41.705  -9.824   6.854  1.00  0.00     0.726 A 
HETATM    5  N   UNL     1      40.580  -9.143   6.573  1.00  0.00    -0.192 N 
HETATM    6  N   UNL     1      43.625 -10.148   7.960  1.00  0.00    -0.128 NA
HETATM    7  C   UNL     1      43.376 -11.078   7.031  1.00  0.00     0.226 A 
HETATM    8  N   UNL     1      42.219 -10.900   6.313  1.00  0.00    -0.035 NA
HETATM    9  C   UNL     1      40.180  -8.005   7.265  1.00  0.00     0.037 A 
HETATM   10  C   UNL     1      38.901  -7.365   6.780  1.00  0.00     0.070 C 
HETATM   11  H   UNL     1      39.979  -9.475   5.824  1.00  0.00     0.184 HD
ENDROOT
BRANCH   7  12
HETATM   12  S   UNL     1      44.463 -12.417   6.803  1.00  0.00    -0.083 SA
BRANCH  12  13
HETATM   13  C   UNL     1      43.321 -13.808   7.025  1.00  0.00     0.121 C 
BRANCH  13  14
HETATM   14  C   UNL     1      43.305 -14.713   5.815  1.00  0.00    -0.048 A 
HETATM   15  C   UNL     1      43.747 -16.043   5.910  1.00  0.00     0.020 A 
HETATM   16  C   UNL     1      43.714 -16.904   4.801  1.00  0.00    -0.025 A 
HETATM   17  C   UNL     1      43.238 -16.420   3.562  1.00  0.00    -0.026 A 
HETATM   18  C   UNL     1      44.136 -18.241   4.898  1.00  0.00     0.012 A 
HETATM   19  C   UNL     1      42.805 -15.088   3.469  1.00  0.00     0.013 A 
HETATM   20  C   UNL     1      43.201 -17.282   2.454  1.00  0.00     0.012 A 
HETATM   21  C   UNL     1      42.834 -14.246   4.583  1.00  0.00     0.009 A 
HETATM   22  C   UNL     1      43.625 -18.607   2.568  1.00  0.00     0.001 A 
HETATM   23  C   UNL     1      44.091 -19.087   3.788  1.00  0.00     0.001 A 
ENDBRANCH  13  14
ENDBRANCH  12  13
ENDBRANCH   7  12
BRANCH   2  24
HETATM   24  C   UNL     1      42.316  -8.583  10.170  1.00  0.00    -0.028 A 
HETATM   25  C   UNL     1      41.398  -9.476  10.751  1.00  0.00     0.012 A 
HETATM   26  C   UNL     1      41.488  -9.796  12.107  1.00  0.00     0.043 A 
HETATM   27  C   UNL     1      42.496  -9.238  12.883  1.00  0.00     0.116 A 
HETATM   28  F   UNL     1      42.579  -9.547  14.183  1.00  0.00    -0.206 F 
HETATM   29  C   UNL     1      43.423  -8.365  12.328  1.00  0.00     0.043 A 
HETATM   30  C   UNL     1      43.335  -8.039  10.974  1.00  0.00     0.012 A 
ENDBRANCH   2  24
BRANCH   1  31
HETATM   31  C   UNL     1      40.510  -6.364   9.091  1.00  0.00     0.293 C 
HETATM   32  O   UNL     1      39.559  -6.376   9.856  1.00  0.00    -0.259 OA
BRANCH  31  33
HETATM   33  O   UNL     1      41.343  -5.318   8.872  1.00  0.00    -0.318 OA
BRANCH  33  34
HETATM   34  C   UNL     1      41.348  -4.310   9.897  1.00  0.00     0.174 C 
HETATM   35  C   UNL     1      42.585  -4.439  10.768  1.00  0.00     0.034 C 
ENDBRANCH  33  34
ENDBRANCH  31  33
ENDBRANCH   1  31
TORSDOF 7
ENDMDL
