MODEL 1
REMARK VINA RESULT:      -8.6      0.000      0.000
REMARK  9 active torsions:
REMARK  status: ('A' for Active; 'I' for Inactive)
REMARK    1  A    between atoms: C_4  and  C_5 
REMARK    2  A    between atoms: C_7  and  O_8 
REMARK    3  A    between atoms: C_10  and  O_11 
REMARK    4  A    between atoms: C_16  and  C_17 
REMARK    5  A    between atoms: C_20  and  C_21 
REMARK    6  A    between atoms: C_21  and  N_22 
REMARK    7  A    between atoms: N_22  and  C_23 
REMARK    8  A    between atoms: C_23  and  N_24 
REMARK    9  A    between atoms: N_24  and  C_25 
ROOT
HETATM    1  C   UNL     1      39.898 -12.240   1.972  1.00  0.00     0.067 C 
HETATM    2  C   UNL     1      40.880 -11.188   1.386  1.00  0.00     0.001 C 
HETATM    3  C   UNL     1      42.006 -10.880   2.398  1.00  0.00     0.040 C 
HETATM    4  C   UNL     1      41.433 -10.255   3.681  1.00  0.00     0.206 C 
HETATM    5  N   UNL     1      39.902 -10.327   3.583  1.00  0.00    -0.065 N 
HETATM    6  H   UNL     1      39.494  -9.984   4.465  1.00  0.00     0.280 HD
HETATM    7  C   UNL     1      39.397 -11.754   3.348  1.00  0.00     0.246 C 
HETATM    8  C   UNL     1      40.087  -9.884   1.159  1.00  0.00     0.033 C 
HETATM    9  C   UNL     1      39.423  -9.422   2.459  1.00  0.00     0.236 C 
ENDROOT
BRANCH   1  10
HETATM   10  C   UNL     1      40.500 -13.617   1.995  1.00  0.00     0.038 A 
HETATM   11  N   UNL     1      40.517 -14.454   0.903  1.00  0.00    -0.277 N 
HETATM   12  C   UNL     1      39.935 -14.233  -0.403  1.00  0.00     0.179 C 
HETATM   13  N   UNL     1      41.188 -15.590   1.112  1.00  0.00    -0.172 NA
HETATM   14  C   UNL     1      41.618 -15.534   2.379  1.00  0.00     0.089 A 
HETATM   15  C   UNL     1      41.167 -14.326   2.980  1.00  0.00     0.061 A 
BRANCH  14  16
HETATM   16  C   UNL     1      42.456 -16.592   2.956  1.00  0.00    -0.003 A 
HETATM   17  C   UNL     1      42.979 -16.445   4.253  1.00  0.00     0.053 A 
HETATM   18  C   UNL     1      43.753 -17.452   4.843  1.00  0.00     0.102 A 
HETATM   19  C   UNL     1      44.022 -18.633   4.124  1.00  0.00     0.101 A 
HETATM   20  C   UNL     1      43.506 -18.784   2.834  1.00  0.00     0.040 A 
HETATM   21  C   UNL     1      42.731 -17.773   2.255  1.00  0.00     0.017 A 
BRANCH  18  22
HETATM   22  O   UNL     1      44.287 -17.381   6.106  1.00  0.00    -0.353 OA
HETATM   23  C   UNL     1      43.392 -17.194   7.193  1.00  0.00     0.210 C 
ENDBRANCH  18  22
BRANCH  19  24
HETATM   24  O   UNL     1      44.779 -19.575   4.773  1.00  0.00    -0.353 OA
HETATM   25  C   UNL     1      44.143 -20.787   5.150  1.00  0.00     0.210 C 
ENDBRANCH  19  24
ENDBRANCH  14  16
ENDBRANCH   1  10
BRANCH   4  26
HETATM   26  C   UNL     1      41.936 -10.865   5.005  1.00  0.00     0.155 C 
BRANCH  26  27
HETATM   27  N   UNL     1      43.358 -11.182   5.030  1.00  0.00    -0.365 N 
HETATM   28  H   UNL     1      43.995 -10.591   4.504  1.00  0.00     0.161 HD
BRANCH  27  29
HETATM   29  C   UNL     1      43.988 -11.810   6.077  1.00  0.00     0.172 C 
HETATM   30  S   UNL     1      43.752 -13.400   6.530  1.00  0.00    -0.041 SA
BRANCH  29  31
HETATM   31  N   UNL     1      44.820 -11.037   6.835  1.00  0.00    -0.333 N 
HETATM   32  H   UNL     1      45.677 -10.773   6.353  1.00  0.00     0.168 HD
BRANCH  31  33
HETATM   33  C   UNL     1      44.614 -10.410   8.080  1.00  0.00     0.034 A 
HETATM   34  C   UNL     1      45.623 -10.244   9.034  1.00  0.00     0.031 A 
HETATM   35  C   UNL     1      45.337  -9.660  10.272  1.00  0.00     0.026 A 
HETATM   36  C   UNL     1      44.039  -9.245  10.561  1.00  0.00     0.034 A 
HETATM   37 CL   UNL     1      43.692  -8.526  12.083  1.00  0.00    -0.084 Cl
HETATM   38  C   UNL     1      43.022  -9.424   9.627  1.00  0.00     0.026 A 
HETATM   39  C   UNL     1      43.309 -10.017   8.394  1.00  0.00     0.031 A 
ENDBRANCH  31  33
ENDBRANCH  29  31
ENDBRANCH  27  29
ENDBRANCH  26  27
ENDBRANCH   4  26
TORSDOF 9
ENDMDL
MODEL 2
REMARK VINA RESULT:      -8.4      0.637      1.742
REMARK  9 active torsions:
REMARK  status: ('A' for Active; 'I' for Inactive)
REMARK    1  A    between atoms: C_4  and  C_5 
REMARK    2  A    between atoms: C_7  and  O_8 
REMARK    3  A    between atoms: C_10  and  O_11 
REMARK    4  A    between atoms: C_16  and  C_17 
REMARK    5  A    between atoms: C_20  and  C_21 
REMARK    6  A    between atoms: C_21  and  N_22 
REMARK    7  A    between atoms: N_22  and  C_23 
REMARK    8  A    between atoms: C_23  and  N_24 
REMARK    9  A    between atoms: N_24  and  C_25 
ROOT
HETATM    1  C   UNL     1      39.712 -12.171   1.934  1.00  0.00     0.067 C 
HETATM    2  C   UNL     1      40.714 -11.148   1.332  1.00  0.00     0.001 C 
HETATM    3  C   UNL     1      41.814 -10.803   2.359  1.00  0.00     0.040 C 
HETATM    4  C   UNL     1      41.210 -10.123   3.601  1.00  0.00     0.206 C 
HETATM    5  N   UNL     1      39.683 -10.193   3.464  1.00  0.00    -0.065 N 
HETATM    6  H   UNL     1      39.253  -9.812   4.320  1.00  0.00     0.280 HD
HETATM    7  C   UNL     1      39.177 -11.627   3.275  1.00  0.00     0.246 C 
HETATM    8  C   UNL     1      39.934  -9.851   1.030  1.00  0.00     0.033 C 
HETATM    9  C   UNL     1      39.238  -9.333   2.292  1.00  0.00     0.236 C 
ENDROOT
BRANCH   1  10
HETATM   10  C   UNL     1      40.306 -13.548   2.029  1.00  0.00     0.038 A 
HETATM   11  N   UNL     1      40.374 -14.418   0.965  1.00  0.00    -0.277 N 
HETATM   12  C   UNL     1      39.860 -14.236  -0.374  1.00  0.00     0.179 C 
HETATM   13  N   UNL     1      41.029 -15.549   1.243  1.00  0.00    -0.172 NA
HETATM   14  C   UNL     1      41.394 -15.455   2.528  1.00  0.00     0.089 A 
HETATM   15  C   UNL     1      40.919 -14.229   3.068  1.00  0.00     0.061 A 
BRANCH  14  16
HETATM   16  C   UNL     1      42.197 -16.498   3.179  1.00  0.00    -0.003 A 
HETATM   17  C   UNL     1      42.815 -17.495   2.404  1.00  0.00     0.053 A 
HETATM   18  C   UNL     1      43.616 -18.482   2.993  1.00  0.00     0.102 A 
HETATM   19  C   UNL     1      43.800 -18.484   4.389  1.00  0.00     0.101 A 
HETATM   20  C   UNL     1      43.187 -17.496   5.164  1.00  0.00     0.040 A 
HETATM   21  C   UNL     1      42.392 -16.513   4.565  1.00  0.00     0.017 A 
BRANCH  18  22
HETATM   22  O   UNL     1      44.257 -19.478   2.299  1.00  0.00    -0.353 OA
HETATM   23  C   UNL     1      43.456 -20.483   1.692  1.00  0.00     0.210 C 
ENDBRANCH  18  22
BRANCH  19  24
HETATM   24  O   UNL     1      44.605 -19.477   4.890  1.00  0.00    -0.353 OA
HETATM   25  C   UNL     1      43.973 -20.604   5.478  1.00  0.00     0.210 C 
ENDBRANCH  19  24
ENDBRANCH  14  16
ENDBRANCH   1  10
BRANCH   4  26
HETATM   26  C   UNL     1      41.675 -10.681   4.961  1.00  0.00     0.155 C 
BRANCH  26  27
HETATM   27  N   UNL     1      43.118 -10.673   5.164  1.00  0.00    -0.365 N 
HETATM   28  H   UNL     1      43.630  -9.818   4.966  1.00  0.00     0.161 HD
BRANCH  27  29
HETATM   29  C   UNL     1      43.770 -11.461   6.082  1.00  0.00     0.172 C 
HETATM   30  S   UNL     1      43.586 -13.113   6.236  1.00  0.00    -0.041 SA
BRANCH  29  31
HETATM   31  N   UNL     1      44.578 -10.812   6.970  1.00  0.00    -0.333 N 
HETATM   32  H   UNL     1      45.490 -10.574   6.587  1.00  0.00     0.168 HD
BRANCH  31  33
HETATM   33  C   UNL     1      44.302 -10.275   8.243  1.00  0.00     0.034 A 
HETATM   34  C   UNL     1      43.060  -9.740   8.599  1.00  0.00     0.031 A 
HETATM   35  C   UNL     1      42.870  -9.175   9.865  1.00  0.00     0.026 A 
HETATM   36  C   UNL     1      43.924  -9.137  10.774  1.00  0.00     0.034 A 
HETATM   37 CL   UNL     1      43.687  -8.441  12.328  1.00  0.00    -0.084 Cl
HETATM   38  C   UNL     1      45.171  -9.646  10.423  1.00  0.00     0.026 A 
HETATM   39  C   UNL     1      45.361 -10.203   9.154  1.00  0.00     0.031 A 
ENDBRANCH  31  33
ENDBRANCH  29  31
ENDBRANCH  27  29
ENDBRANCH  26  27
ENDBRANCH   4  26
TORSDOF 9
ENDMDL
MODEL 3
REMARK VINA RESULT:      -8.3      1.962      2.681
REMARK  9 active torsions:
REMARK  status: ('A' for Active; 'I' for Inactive)
REMARK    1  A    between atoms: C_4  and  C_5 
REMARK    2  A    between atoms: C_7  and  O_8 
REMARK    3  A    between atoms: C_10  and  O_11 
REMARK    4  A    between atoms: C_16  and  C_17 
REMARK    5  A    between atoms: C_20  and  C_21 
REMARK    6  A    between atoms: C_21  and  N_22 
REMARK    7  A    between atoms: N_22  and  C_23 
REMARK    8  A    between atoms: C_23  and  N_24 
REMARK    9  A    between atoms: N_24  and  C_25 
ROOT
HETATM    1  C   UNL     1      39.505 -11.431   4.901  1.00  0.00     0.067 C 
HETATM    2  C   UNL     1      40.182 -10.180   4.275  1.00  0.00     0.001 C 
HETATM    3  C   UNL     1      41.667 -10.106   4.692  1.00  0.00     0.040 C 
HETATM    4  C   UNL     1      41.800  -9.941   6.216  1.00  0.00     0.206 C 
HETATM    5  N   UNL     1      40.397 -10.095   6.818  1.00  0.00    -0.065 N 
HETATM    6  H   UNL     1      40.469 -10.064   7.845  1.00  0.00     0.280 HD
HETATM    7  C   UNL     1      39.734 -11.420   6.427  1.00  0.00     0.246 C 
HETATM    8  C   UNL     1      39.475  -8.932   4.843  1.00  0.00     0.033 C 
HETATM    9  C   UNL     1      39.523  -8.933   6.373  1.00  0.00     0.236 C 
ENDROOT
BRANCH   1  10
HETATM   10  C   UNL     1      39.943 -12.701   4.229  1.00  0.00     0.038 A 
HETATM   11  N   UNL     1      39.572 -13.048   2.950  1.00  0.00    -0.277 N 
HETATM   12  C   UNL     1      38.680 -12.344   2.055  1.00  0.00     0.179 C 
HETATM   13  N   UNL     1      40.153 -14.169   2.511  1.00  0.00    -0.172 NA
HETATM   14  C   UNL     1      40.917 -14.604   3.521  1.00  0.00     0.089 A 
HETATM   15  C   UNL     1      40.778 -13.729   4.633  1.00  0.00     0.061 A 
BRANCH  14  16
HETATM   16  C   UNL     1      41.767 -15.794   3.386  1.00  0.00    -0.003 A 
HETATM   17  C   UNL     1      42.485 -16.274   4.496  1.00  0.00     0.053 A 
HETATM   18  C   UNL     1      43.277 -17.425   4.407  1.00  0.00     0.102 A 
HETATM   19  C   UNL     1      43.365 -18.115   3.182  1.00  0.00     0.101 A 
HETATM   20  C   UNL     1      42.654 -17.642   2.076  1.00  0.00     0.040 A 
HETATM   21  C   UNL     1      41.863 -16.492   2.176  1.00  0.00     0.017 A 
BRANCH  18  22
HETATM   22  O   UNL     1      43.995 -17.956   5.449  1.00  0.00    -0.353 OA
HETATM   23  C   UNL     1      43.548 -17.682   6.769  1.00  0.00     0.210 C 
ENDBRANCH  18  22
BRANCH  19  24
HETATM   24  O   UNL     1      44.152 -19.239   3.177  1.00  0.00    -0.353 OA
HETATM   25  C   UNL     1      43.798 -20.288   2.288  1.00  0.00     0.210 C 
ENDBRANCH  19  24
ENDBRANCH  14  16
ENDBRANCH   1  10
BRANCH   4  26
HETATM   26  C   UNL     1      42.810 -10.881   6.905  1.00  0.00     0.155 C 
BRANCH  26  27
HETATM   27  N   UNL     1      43.332 -10.392   8.174  1.00  0.00    -0.365 N 
HETATM   28  H   UNL     1      42.730 -10.428   8.992  1.00  0.00     0.161 HD
BRANCH  27  29
HETATM   29  C   UNL     1      44.662 -10.411   8.517  1.00  0.00     0.172 C 
HETATM   30  S   UNL     1      45.917 -10.801   7.486  1.00  0.00    -0.041 SA
BRANCH  29  31
HETATM   31  N   UNL     1      44.955 -10.150   9.824  1.00  0.00    -0.333 N 
HETATM   32  H   UNL     1      45.953 -10.082  10.009  1.00  0.00     0.168 HD
BRANCH  31  33
HETATM   33  C   UNL     1      44.119  -9.793  10.901  1.00  0.00     0.034 A 
HETATM   34  C   UNL     1      43.882  -8.470  11.284  1.00  0.00     0.031 A 
HETATM   35  C   UNL     1      43.081  -8.187  12.396  1.00  0.00     0.026 A 
HETATM   36  C   UNL     1      42.521  -9.230  13.130  1.00  0.00     0.034 A 
HETATM   37 CL   UNL     1      41.538  -8.880  14.496  1.00  0.00    -0.084 Cl
HETATM   38  C   UNL     1      42.767 -10.552  12.771  1.00  0.00     0.026 A 
HETATM   39  C   UNL     1      43.575 -10.831  11.665  1.00  0.00     0.031 A 
ENDBRANCH  31  33
ENDBRANCH  29  31
ENDBRANCH  27  29
ENDBRANCH  26  27
ENDBRANCH   4  26
TORSDOF 9
ENDMDL
MODEL 4
REMARK VINA RESULT:      -8.3      2.016      2.833
REMARK  9 active torsions:
REMARK  status: ('A' for Active; 'I' for Inactive)
REMARK    1  A    between atoms: C_4  and  C_5 
REMARK    2  A    between atoms: C_7  and  O_8 
REMARK    3  A    between atoms: C_10  and  O_11 
REMARK    4  A    between atoms: C_16  and  C_17 
REMARK    5  A    between atoms: C_20  and  C_21 
REMARK    6  A    between atoms: C_21  and  N_22 
REMARK    7  A    between atoms: N_22  and  C_23 
REMARK    8  A    between atoms: C_23  and  N_24 
REMARK    9  A    between atoms: N_24  and  C_25 
ROOT
HETATM    1  C   UNL     1      40.398 -11.770   3.769  1.00  0.00     0.067 C 
HETATM    2  C   UNL     1      41.446 -10.772   3.203  1.00  0.00     0.001 C 
HETATM    3  C   UNL     1      42.686 -10.716   4.121  1.00  0.00     0.040 C 
HETATM    4  C   UNL     1      42.311 -10.189   5.517  1.00  0.00     0.206 C 
HETATM    5  N   UNL     1      40.781 -10.076   5.569  1.00  0.00    -0.065 N 
HETATM    6  H   UNL     1      40.499  -9.797   6.520  1.00  0.00     0.280 HD
HETATM    7  C   UNL     1      40.085 -11.399   5.234  1.00  0.00     0.246 C 
HETATM    8  C   UNL     1      40.803  -9.370   3.201  1.00  0.00     0.033 C 
HETATM    9  C   UNL     1      40.319  -8.995   4.605  1.00  0.00     0.236 C 
ENDROOT
BRANCH   1  10
HETATM   10  C   UNL     1      40.825 -13.198   3.580  1.00  0.00     0.038 A 
HETATM   11  N   UNL     1      40.650 -13.892   2.405  1.00  0.00    -0.277 N 
HETATM   12  C   UNL     1      39.996 -13.449   1.193  1.00  0.00     0.179 C 
HETATM   13  N   UNL     1      41.190 -15.114   2.421  1.00  0.00    -0.172 NA
HETATM   14  C   UNL     1      41.724 -15.262   3.640  1.00  0.00     0.089 A 
HETATM   15  C   UNL     1      41.476 -14.094   4.412  1.00  0.00     0.061 A 
BRANCH  14  16
HETATM   16  C   UNL     1      42.469 -16.471   4.013  1.00  0.00    -0.003 A 
HETATM   17  C   UNL     1      42.948 -17.338   3.015  1.00  0.00     0.053 A 
HETATM   18  C   UNL     1      43.691 -18.480   3.338  1.00  0.00     0.102 A 
HETATM   19  C   UNL     1      43.959 -18.774   4.689  1.00  0.00     0.101 A 
HETATM   20  C   UNL     1      43.484 -17.917   5.686  1.00  0.00     0.040 A 
HETATM   21  C   UNL     1      42.746 -16.777   5.351  1.00  0.00     0.017 A 
BRANCH  18  22
HETATM   22  O   UNL     1      44.197 -19.363   2.418  1.00  0.00    -0.353 OA
HETATM   23  C   UNL     1      43.295 -20.278   1.812  1.00  0.00     0.210 C 
ENDBRANCH  18  22
BRANCH  19  24
HETATM   24  O   UNL     1      44.700 -19.904   4.925  1.00  0.00    -0.353 OA
HETATM   25  C   UNL     1      44.033 -21.026   5.484  1.00  0.00     0.210 C 
ENDBRANCH  19  24
ENDBRANCH  14  16
ENDBRANCH   1  10
BRANCH   4  26
HETATM   26  C   UNL     1      42.851 -11.006   6.708  1.00  0.00     0.155 C 
BRANCH  26  27
HETATM   27  N   UNL     1      42.679 -10.376   8.010  1.00  0.00    -0.365 N 
HETATM   28  H   UNL     1      41.768 -10.428   8.457  1.00  0.00     0.161 HD
BRANCH  27  29
HETATM   29  C   UNL     1      43.691 -10.215   8.926  1.00  0.00     0.172 C 
HETATM   30  S   UNL     1      45.260  -9.777   8.561  1.00  0.00    -0.041 SA
BRANCH  29  31
HETATM   31  N   UNL     1      43.383 -10.502  10.225  1.00  0.00    -0.333 N 
HETATM   32  H   UNL     1      43.683 -11.430  10.515  1.00  0.00     0.168 HD
BRANCH  31  33
HETATM   33  C   UNL     1      42.890  -9.680  11.257  1.00  0.00     0.034 A 
HETATM   34  C   UNL     1      43.670  -8.728  11.921  1.00  0.00     0.031 A 
HETATM   35  C   UNL     1      43.130  -7.981  12.974  1.00  0.00     0.026 A 
HETATM   36  C   UNL     1      41.811  -8.189  13.367  1.00  0.00     0.034 A 
HETATM   37 CL   UNL     1      41.151  -7.269  14.661  1.00  0.00    -0.084 Cl
HETATM   38  C   UNL     1      41.031  -9.149  12.728  1.00  0.00     0.026 A 
HETATM   39  C   UNL     1      41.576  -9.900  11.682  1.00  0.00     0.031 A 
ENDBRANCH  31  33
ENDBRANCH  29  31
ENDBRANCH  27  29
ENDBRANCH  26  27
ENDBRANCH   4  26
TORSDOF 9
ENDMDL
MODEL 5
REMARK VINA RESULT:      -8.2      3.072      4.338
REMARK  9 active torsions:
REMARK  status: ('A' for Active; 'I' for Inactive)
REMARK    1  A    between atoms: C_4  and  C_5 
REMARK    2  A    between atoms: C_7  and  O_8 
REMARK    3  A    between atoms: C_10  and  O_11 
REMARK    4  A    between atoms: C_16  and  C_17 
REMARK    5  A    between atoms: C_20  and  C_21 
REMARK    6  A    between atoms: C_21  and  N_22 
REMARK    7  A    between atoms: N_22  and  C_23 
REMARK    8  A    between atoms: C_23  and  N_24 
REMARK    9  A    between atoms: N_24  and  C_25 
ROOT
HETATM    1  C   UNL     1      39.031 -11.800  -1.272  1.00  0.00     0.067 C 
HETATM    2  C   UNL     1      39.995 -11.425  -2.432  1.00  0.00     0.001 C 
HETATM    3  C   UNL     1      41.304 -10.827  -1.871  1.00  0.00     0.040 C 
HETATM    4  C   UNL     1      41.026  -9.518  -1.111  1.00  0.00     0.206 C 
HETATM    5  N   UNL     1      39.503  -9.358  -1.015  1.00  0.00    -0.065 N 
HETATM    6  H   UNL     1      39.290  -8.527  -0.443  1.00  0.00     0.280 HD
HETATM    7  C   UNL     1      38.826 -10.569  -0.365  1.00  0.00     0.246 C 
HETATM    8  C   UNL     1      39.307 -10.332  -3.277  1.00  0.00     0.033 C 
HETATM    9  C   UNL     1      38.927  -9.133  -2.404  1.00  0.00     0.236 C 
ENDROOT
BRANCH   1  10
HETATM   10  C   UNL     1      39.489 -13.029  -0.538  1.00  0.00     0.038 A 
HETATM   11  N   UNL     1      39.360 -14.304  -1.040  1.00  0.00    -0.277 N 
HETATM   12  C   UNL     1      38.733 -14.719  -2.276  1.00  0.00     0.179 C 
HETATM   13  N   UNL     1      39.922 -15.240  -0.271  1.00  0.00    -0.172 NA
HETATM   14  C   UNL     1      40.423 -14.591   0.788  1.00  0.00     0.089 A 
HETATM   15  C   UNL     1      40.133 -13.203   0.676  1.00  0.00     0.061 A 
BRANCH  14  16
HETATM   16  C   UNL     1      41.179 -15.291   1.834  1.00  0.00    -0.003 A 
HETATM   17  C   UNL     1      40.582 -15.547   3.081  1.00  0.00     0.053 A 
HETATM   18  C   UNL     1      41.265 -16.243   4.086  1.00  0.00     0.102 A 
HETATM   19  C   UNL     1      42.580 -16.689   3.850  1.00  0.00     0.101 A 
HETATM   20  C   UNL     1      43.179 -16.436   2.614  1.00  0.00     0.040 A 
HETATM   21  C   UNL     1      42.486 -15.743   1.615  1.00  0.00     0.017 A 
BRANCH  18  22
HETATM   22  O   UNL     1      40.742 -16.537   5.320  1.00  0.00    -0.353 OA
HETATM   23  C   UNL     1      40.328 -15.452   6.139  1.00  0.00     0.210 C 
ENDBRANCH  18  22
BRANCH  19  24
HETATM   24  O   UNL     1      43.179 -17.371   4.879  1.00  0.00    -0.353 OA
HETATM   25  C   UNL     1      44.006 -18.475   4.545  1.00  0.00     0.210 C 
ENDBRANCH  19  24
ENDBRANCH  14  16
ENDBRANCH   1  10
BRANCH   4  26
HETATM   26  C   UNL     1      41.690  -9.397   0.276  1.00  0.00     0.155 C 
BRANCH  26  27
HETATM   27  N   UNL     1      40.941  -8.607   1.244  1.00  0.00    -0.365 N 
HETATM   28  H   UNL     1      40.235  -7.962   0.901  1.00  0.00     0.161 HD
BRANCH  27  29
HETATM   29  C   UNL     1      40.683  -9.011   2.532  1.00  0.00     0.172 C 
HETATM   30  S   UNL     1      39.164  -9.156   3.209  1.00  0.00    -0.041 SA
BRANCH  29  31
HETATM   31  N   UNL     1      41.771  -9.246   3.322  1.00  0.00    -0.333 N 
HETATM   32  H   UNL     1      42.308  -8.407   3.531  1.00  0.00     0.168 HD
BRANCH  31  33
HETATM   33  C   UNL     1      42.164 -10.402   4.026  1.00  0.00     0.034 A 
HETATM   34  C   UNL     1      42.228 -10.469   5.421  1.00  0.00     0.031 A 
HETATM   35  C   UNL     1      42.677 -11.632   6.055  1.00  0.00     0.026 A 
HETATM   36  C   UNL     1      43.070 -12.730   5.292  1.00  0.00     0.034 A 
HETATM   37 CL   UNL     1      43.621 -14.158   6.074  1.00  0.00    -0.084 Cl
HETATM   38  C   UNL     1      43.032 -12.668   3.902  1.00  0.00     0.026 A 
HETATM   39  C   UNL     1      42.590 -11.500   3.272  1.00  0.00     0.031 A 
ENDBRANCH  31  33
ENDBRANCH  29  31
ENDBRANCH  27  29
ENDBRANCH  26  27
ENDBRANCH   4  26
TORSDOF 9
ENDMDL
MODEL 6
REMARK VINA RESULT:      -8.2      4.656      9.573
REMARK  9 active torsions:
REMARK  status: ('A' for Active; 'I' for Inactive)
REMARK    1  A    between atoms: C_4  and  C_5 
REMARK    2  A    between atoms: C_7  and  O_8 
REMARK    3  A    between atoms: C_10  and  O_11 
REMARK    4  A    between atoms: C_16  and  C_17 
REMARK    5  A    between atoms: C_20  and  C_21 
REMARK    6  A    between atoms: C_21  and  N_22 
REMARK    7  A    between atoms: N_22  and  C_23 
REMARK    8  A    between atoms: C_23  and  N_24 
REMARK    9  A    between atoms: N_24  and  C_25 
ROOT
HETATM    1  C   UNL     1      43.386 -10.821   5.486  1.00  0.00     0.067 C 
HETATM    2  C   UNL     1      42.023 -10.362   4.898  1.00  0.00     0.001 C 
HETATM    3  C   UNL     1      40.882 -11.263   5.418  1.00  0.00     0.040 C 
HETATM    4  C   UNL     1      41.076 -12.716   4.953  1.00  0.00     0.206 C 
HETATM    5  N   UNL     1      42.452 -12.803   4.280  1.00  0.00    -0.065 N 
HETATM    6  H   UNL     1      42.640 -13.784   4.027  1.00  0.00     0.280 HD
HETATM    7  C   UNL     1      43.583 -12.323   5.196  1.00  0.00     0.246 C 
HETATM    8  C   UNL     1      42.093 -10.535   3.367  1.00  0.00     0.033 C 
HETATM    9  C   UNL     1      42.445 -11.980   3.001  1.00  0.00     0.236 C 
ENDROOT
BRANCH   1  10
HETATM   10  C   UNL     1      43.520 -10.458   6.939  1.00  0.00     0.038 A 
HETATM   11  N   UNL     1      44.713 -10.503   7.623  1.00  0.00    -0.277 N 
HETATM   12  C   UNL     1      46.004 -10.947   7.144  1.00  0.00     0.179 C 
HETATM   13  N   UNL     1      44.627 -10.045   8.875  1.00  0.00    -0.172 NA
HETATM   14  C   UNL     1      43.345  -9.703   9.053  1.00  0.00     0.089 A 
HETATM   15  C   UNL     1      42.609  -9.989   7.870  1.00  0.00     0.061 A 
BRANCH  14  16
HETATM   16  C   UNL     1      42.875  -9.094  10.304  1.00  0.00    -0.003 A 
HETATM   17  C   UNL     1      41.514  -8.778  10.464  1.00  0.00     0.053 A 
HETATM   18  C   UNL     1      41.032  -8.228  11.658  1.00  0.00     0.102 A 
HETATM   19  C   UNL     1      41.924  -7.979  12.719  1.00  0.00     0.101 A 
HETATM   20  C   UNL     1      43.278  -8.290  12.565  1.00  0.00     0.040 A 
HETATM   21  C   UNL     1      43.749  -8.842  11.368  1.00  0.00     0.017 A 
BRANCH  18  22
HETATM   22  O   UNL     1      39.718  -7.904  11.888  1.00  0.00    -0.353 OA
HETATM   23  C   UNL     1      38.991  -7.295  10.831  1.00  0.00     0.210 C 
ENDBRANCH  18  22
BRANCH  19  24
HETATM   24  O   UNL     1      41.374  -7.448  13.858  1.00  0.00    -0.353 OA
HETATM   25  C   UNL     1      41.550  -6.059  14.091  1.00  0.00     0.210 C 
ENDBRANCH  19  24
ENDBRANCH  14  16
ENDBRANCH   1  10
BRANCH   4  26
HETATM   26  C   UNL     1      40.919 -13.795   6.045  1.00  0.00     0.155 C 
BRANCH  26  27
HETATM   27  N   UNL     1      41.482 -15.094   5.705  1.00  0.00    -0.365 N 
HETATM   28  H   UNL     1      41.302 -15.473   4.779  1.00  0.00     0.161 HD
BRANCH  27  29
HETATM   29  C   UNL     1      42.640 -15.596   6.247  1.00  0.00     0.172 C 
HETATM   30  S   UNL     1      42.979 -15.687   7.880  1.00  0.00    -0.041 SA
BRANCH  29  31
HETATM   31  N   UNL     1      43.603 -15.988   5.363  1.00  0.00    -0.333 N 
HETATM   32  H   UNL     1      44.499 -15.529   5.511  1.00  0.00     0.168 HD
BRANCH  31  33
HETATM   33  C   UNL     1      43.612 -17.029   4.413  1.00  0.00     0.034 A 
HETATM   34  C   UNL     1      43.055 -16.911   3.136  1.00  0.00     0.031 A 
HETATM   35  C   UNL     1      43.052 -18.002   2.261  1.00  0.00     0.026 A 
HETATM   36  C   UNL     1      43.600 -19.217   2.665  1.00  0.00     0.034 A 
HETATM   37 CL   UNL     1      43.595 -20.556   1.587  1.00  0.00    -0.084 Cl
HETATM   38  C   UNL     1      44.138 -19.354   3.942  1.00  0.00     0.026 A 
HETATM   39  C   UNL     1      44.132 -18.264   4.817  1.00  0.00     0.031 A 
ENDBRANCH  31  33
ENDBRANCH  29  31
ENDBRANCH  27  29
ENDBRANCH  26  27
ENDBRANCH   4  26
TORSDOF 9
ENDMDL
MODEL 7
REMARK VINA RESULT:      -7.9      1.669      2.257
REMARK  9 active torsions:
REMARK  status: ('A' for Active; 'I' for Inactive)
REMARK    1  A    between atoms: C_4  and  C_5 
REMARK    2  A    between atoms: C_7  and  O_8 
REMARK    3  A    between atoms: C_10  and  O_11 
REMARK    4  A    between atoms: C_16  and  C_17 
REMARK    5  A    between atoms: C_20  and  C_21 
REMARK    6  A    between atoms: C_21  and  N_22 
REMARK    7  A    between atoms: N_22  and  C_23 
REMARK    8  A    between atoms: C_23  and  N_24 
REMARK    9  A    between atoms: N_24  and  C_25 
ROOT
HETATM    1  C   UNL     1      38.901 -11.977   0.741  1.00  0.00     0.067 C 
HETATM    2  C   UNL     1      39.813 -10.800   0.296  1.00  0.00     0.001 C 
HETATM    3  C   UNL     1      40.594 -10.238   1.504  1.00  0.00     0.040 C 
HETATM    4  C   UNL     1      39.634  -9.655   2.554  1.00  0.00     0.206 C 
HETATM    5  N   UNL     1      38.205 -10.006   2.115  1.00  0.00    -0.065 N 
HETATM    6  H   UNL     1      37.546  -9.693   2.842  1.00  0.00     0.280 HD
HETATM    7  C   UNL     1      38.009 -11.512   1.911  1.00  0.00     0.246 C 
HETATM    8  C   UNL     1      38.900  -9.675  -0.233  1.00  0.00     0.033 C 
HETATM    9  C   UNL     1      37.874  -9.267   0.828  1.00  0.00     0.236 C 
ENDROOT
BRANCH   1  10
HETATM   10  C   UNL     1      39.693 -13.220   1.035  1.00  0.00     0.038 A 
HETATM   11  N   UNL     1      40.194 -14.048   0.057  1.00  0.00    -0.277 N 
HETATM   12  C   UNL     1      40.019 -13.947  -1.376  1.00  0.00     0.179 C 
HETATM   13  N   UNL     1      40.951 -15.040   0.534  1.00  0.00    -0.172 NA
HETATM   14  C   UNL     1      40.947 -14.896   1.865  1.00  0.00     0.089 A 
HETATM   15  C   UNL     1      40.131 -13.787   2.220  1.00  0.00     0.061 A 
BRANCH  14  16
HETATM   16  C   UNL     1      41.732 -15.778   2.738  1.00  0.00    -0.003 A 
HETATM   17  C   UNL     1      41.506 -15.775   4.126  1.00  0.00     0.053 A 
HETATM   18  C   UNL     1      42.215 -16.629   4.979  1.00  0.00     0.102 A 
HETATM   19  C   UNL     1      43.179 -17.504   4.442  1.00  0.00     0.101 A 
HETATM   20  C   UNL     1      43.409 -17.510   3.064  1.00  0.00     0.040 A 
HETATM   21  C   UNL     1      42.692 -16.655   2.219  1.00  0.00     0.017 A 
BRANCH  18  22
HETATM   22  O   UNL     1      42.040 -16.688   6.339  1.00  0.00    -0.353 OA
HETATM   23  C   UNL     1      42.473 -15.576   7.111  1.00  0.00     0.210 C 
ENDBRANCH  18  22
BRANCH  19  24
HETATM   24  O   UNL     1      43.824 -18.316   5.341  1.00  0.00    -0.353 OA
HETATM   25  C   UNL     1      44.207 -19.611   4.903  1.00  0.00     0.210 C 
ENDBRANCH  19  24
ENDBRANCH  14  16
ENDBRANCH   1  10
BRANCH   4  26
HETATM   26  C   UNL     1      39.893 -10.090   4.011  1.00  0.00     0.155 C 
BRANCH  26  27
HETATM   27  N   UNL     1      41.012 -11.006   4.187  1.00  0.00    -0.365 N 
HETATM   28  H   UNL     1      41.940 -10.694   3.914  1.00  0.00     0.161 HD
BRANCH  27  29
HETATM   29  C   UNL     1      41.062 -11.983   5.151  1.00  0.00     0.172 C 
HETATM   30  S   UNL     1      39.737 -12.772   5.793  1.00  0.00    -0.041 SA
BRANCH  29  31
HETATM   31  N   UNL     1      42.296 -12.272   5.657  1.00  0.00    -0.333 N 
HETATM   32  H   UNL     1      42.711 -13.111   5.257  1.00  0.00     0.168 HD
BRANCH  31  33
HETATM   33  C   UNL     1      43.148 -11.521   6.491  1.00  0.00     0.034 A 
HETATM   34  C   UNL     1      42.729 -10.391   7.201  1.00  0.00     0.031 A 
HETATM   35  C   UNL     1      43.640  -9.661   7.971  1.00  0.00     0.026 A 
HETATM   36  C   UNL     1      44.974 -10.057   8.028  1.00  0.00     0.034 A 
HETATM   37 CL   UNL     1      46.092  -9.158   8.976  1.00  0.00    -0.084 Cl
HETATM   38  C   UNL     1      45.408 -11.167   7.309  1.00  0.00     0.026 A 
HETATM   39  C   UNL     1      44.497 -11.890   6.533  1.00  0.00     0.031 A 
ENDBRANCH  31  33
ENDBRANCH  29  31
ENDBRANCH  27  29
ENDBRANCH  26  27
ENDBRANCH   4  26
TORSDOF 9
ENDMDL
MODEL 8
REMARK VINA RESULT:      -7.9      4.019      7.347
REMARK  9 active torsions:
REMARK  status: ('A' for Active; 'I' for Inactive)
REMARK    1  A    between atoms: C_4  and  C_5 
REMARK    2  A    between atoms: C_7  and  O_8 
REMARK    3  A    between atoms: C_10  and  O_11 
REMARK    4  A    between atoms: C_16  and  C_17 
REMARK    5  A    between atoms: C_20  and  C_21 
REMARK    6  A    between atoms: C_21  and  N_22 
REMARK    7  A    between atoms: N_22  and  C_23 
REMARK    8  A    between atoms: C_23  and  N_24 
REMARK    9  A    between atoms: N_24  and  C_25 
ROOT
HETATM    1  C   UNL     1      41.163 -10.887   2.576  1.00  0.00     0.067 C 
HETATM    2  C   UNL     1      39.683 -10.839   3.044  1.00  0.00     0.001 C 
HETATM    3  C   UNL     1      38.833 -11.854   2.247  1.00  0.00     0.040 C 
HETATM    4  C   UNL     1      38.815 -11.497   0.751  1.00  0.00     0.206 C 
HETATM    5  N   UNL     1      39.813 -10.348   0.541  1.00  0.00    -0.065 N 
HETATM    6  H   UNL     1      39.876 -10.141  -0.466  1.00  0.00     0.280 HD
HETATM    7  C   UNL     1      41.217 -10.694   1.046  1.00  0.00     0.246 C 
HETATM    8  C   UNL     1      39.139  -9.429   2.734  1.00  0.00     0.033 C 
HETATM    9  C   UNL     1      39.306  -9.101   1.248  1.00  0.00     0.236 C 
ENDROOT
BRANCH   1  10
HETATM   10  C   UNL     1      41.864 -12.126   3.059  1.00  0.00     0.038 A 
HETATM   11  N   UNL     1      42.426 -12.240   4.310  1.00  0.00    -0.277 N 
HETATM   12  C   UNL     1      42.518 -11.232   5.344  1.00  0.00     0.179 C 
HETATM   13  N   UNL     1      42.909 -13.458   4.569  1.00  0.00    -0.172 NA
HETATM   14  C   UNL     1      42.693 -14.180   3.463  1.00  0.00     0.089 A 
HETATM   15  C   UNL     1      42.075 -13.364   2.475  1.00  0.00     0.061 A 
BRANCH  14  16
HETATM   16  C   UNL     1      43.039 -15.606   3.393  1.00  0.00    -0.003 A 
HETATM   17  C   UNL     1      43.452 -16.286   4.553  1.00  0.00     0.053 A 
HETATM   18  C   UNL     1      43.755 -17.653   4.524  1.00  0.00     0.102 A 
HETATM   19  C   UNL     1      43.656 -18.361   3.311  1.00  0.00     0.101 A 
HETATM   20  C   UNL     1      43.248 -17.690   2.156  1.00  0.00     0.040 A 
HETATM   21  C   UNL     1      42.943 -16.325   2.196  1.00  0.00     0.017 A 
BRANCH  18  22
HETATM   22  O   UNL     1      44.153 -18.382   5.617  1.00  0.00    -0.353 OA
HETATM   23  C   UNL     1      43.386 -18.265   6.807  1.00  0.00     0.210 C 
ENDBRANCH  18  22
BRANCH  19  24
HETATM   24  O   UNL     1      43.961 -19.698   3.367  1.00  0.00    -0.353 OA
HETATM   25  C   UNL     1      43.670 -20.489   2.224  1.00  0.00     0.210 C 
ENDBRANCH  19  24
ENDBRANCH  14  16
ENDBRANCH   1  10
BRANCH   4  26
HETATM   26  C   UNL     1      39.095 -12.663  -0.218  1.00  0.00     0.155 C 
BRANCH  26  27
HETATM   27  N   UNL     1      37.997 -12.986  -1.119  1.00  0.00    -0.365 N 
HETATM   28  H   UNL     1      37.056 -12.707  -0.856  1.00  0.00     0.161 HD
BRANCH  27  29
HETATM   29  C   UNL     1      38.132 -13.111  -2.481  1.00  0.00     0.172 C 
HETATM   30  S   UNL     1      38.344 -14.552  -3.299  1.00  0.00    -0.041 SA
BRANCH  29  31
HETATM   31  N   UNL     1      38.155 -11.950  -3.197  1.00  0.00    -0.333 N 
HETATM   32  H   UNL     1      37.444 -11.909  -3.924  1.00  0.00     0.168 HD
BRANCH  31  33
HETATM   33  C   UNL     1      38.868 -10.753  -2.986  1.00  0.00     0.034 A 
HETATM   34  C   UNL     1      38.251  -9.528  -2.713  1.00  0.00     0.031 A 
HETATM   35  C   UNL     1      39.017  -8.367  -2.566  1.00  0.00     0.026 A 
HETATM   36  C   UNL     1      40.402  -8.428  -2.697  1.00  0.00     0.034 A 
HETATM   37 CL   UNL     1      41.341  -6.999  -2.515  1.00  0.00    -0.084 Cl
HETATM   38  C   UNL     1      41.026  -9.638  -2.990  1.00  0.00     0.026 A 
HETATM   39  C   UNL     1      40.257 -10.794  -3.146  1.00  0.00     0.031 A 
ENDBRANCH  31  33
ENDBRANCH  29  31
ENDBRANCH  27  29
ENDBRANCH  26  27
ENDBRANCH   4  26
TORSDOF 9
ENDMDL
MODEL 9
REMARK VINA RESULT:      -7.9      2.921      4.187
REMARK  9 active torsions:
REMARK  status: ('A' for Active; 'I' for Inactive)
REMARK    1  A    between atoms: C_4  and  C_5 
REMARK    2  A    between atoms: C_7  and  O_8 
REMARK    3  A    between atoms: C_10  and  O_11 
REMARK    4  A    between atoms: C_16  and  C_17 
REMARK    5  A    between atoms: C_20  and  C_21 
REMARK    6  A    between atoms: C_21  and  N_22 
REMARK    7  A    between atoms: N_22  and  C_23 
REMARK    8  A    between atoms: C_23  and  N_24 
REMARK    9  A    between atoms: N_24  and  C_25 
ROOT
HETATM    1  C   UNL     1      39.381 -13.560  -0.334  1.00  0.00     0.067 C 
HETATM    2  C   UNL     1      40.233 -13.446  -1.628  1.00  0.00     0.001 C 
HETATM    3  C   UNL     1      41.263 -12.303  -1.494  1.00  0.00     0.040 C 
HETATM    4  C   UNL     1      40.557 -10.946  -1.332  1.00  0.00     0.206 C 
HETATM    5  N   UNL     1      39.056 -11.226  -1.171  1.00  0.00    -0.065 N 
HETATM    6  H   UNL     1      38.568 -10.338  -0.984  1.00  0.00     0.280 HD
HETATM    7  C   UNL     1      38.760 -12.184  -0.013  1.00  0.00     0.246 C 
HETATM    8  C   UNL     1      39.280 -13.083  -2.785  1.00  0.00     0.033 C 
HETATM    9  C   UNL     1      38.505 -11.801  -2.466  1.00  0.00     0.236 C 
ENDROOT
BRANCH   1  10
HETATM   10  C   UNL     1      40.163 -14.156   0.803  1.00  0.00     0.038 A 
HETATM   11  N   UNL     1      39.963 -13.815   2.121  1.00  0.00    -0.277 N 
HETATM   12  C   UNL     1      39.061 -12.822   2.661  1.00  0.00     0.179 C 
HETATM   13  N   UNL     1      40.694 -14.536   2.975  1.00  0.00    -0.172 NA
HETATM   14  C   UNL     1      41.423 -15.368   2.221  1.00  0.00     0.089 A 
HETATM   15  C   UNL     1      41.148 -15.129   0.846  1.00  0.00     0.061 A 
BRANCH  14  16
HETATM   16  C   UNL     1      42.315 -16.370   2.820  1.00  0.00    -0.003 A 
HETATM   17  C   UNL     1      42.831 -16.169   4.112  1.00  0.00     0.053 A 
HETATM   18  C   UNL     1      43.655 -17.122   4.723  1.00  0.00     0.102 A 
HETATM   19  C   UNL     1      43.984 -18.302   4.029  1.00  0.00     0.101 A 
HETATM   20  C   UNL     1      43.475 -18.507   2.744  1.00  0.00     0.040 A 
HETATM   21  C   UNL     1      42.649 -17.550   2.144  1.00  0.00     0.017 A 
BRANCH  18  22
HETATM   22  O   UNL     1      44.185 -16.997   5.983  1.00  0.00    -0.353 OA
HETATM   23  C   UNL     1      43.281 -16.916   7.076  1.00  0.00     0.210 C 
ENDBRANCH  18  22
BRANCH  19  24
HETATM   24  O   UNL     1      44.788 -19.191   4.697  1.00  0.00    -0.353 OA
HETATM   25  C   UNL     1      44.200 -20.402   5.148  1.00  0.00     0.210 C 
ENDBRANCH  19  24
ENDBRANCH  14  16
ENDBRANCH   1  10
BRANCH   4  26
HETATM   26  C   UNL     1      41.083 -10.050  -0.192  1.00  0.00     0.155 C 
BRANCH  26  27
HETATM   27  N   UNL     1      40.064  -9.584   0.739  1.00  0.00    -0.365 N 
HETATM   28  H   UNL     1      39.103  -9.882   0.594  1.00  0.00     0.161 HD
BRANCH  27  29
HETATM   29  C   UNL     1      40.310  -9.267   2.053  1.00  0.00     0.172 C 
HETATM   30  S   UNL     1      39.208  -8.577   3.100  1.00  0.00    -0.041 SA
BRANCH  29  31
HETATM   31  N   UNL     1      41.581  -9.484   2.501  1.00  0.00    -0.333 N 
HETATM   32  H   UNL     1      42.245  -8.777   2.192  1.00  0.00     0.168 HD
BRANCH  31  33
HETATM   33  C   UNL     1      42.081 -10.405   3.443  1.00  0.00     0.034 A 
HETATM   34  C   UNL     1      41.997 -10.213   4.825  1.00  0.00     0.031 A 
HETATM   35  C   UNL     1      42.560 -11.144   5.704  1.00  0.00     0.026 A 
HETATM   36  C   UNL     1      43.215 -12.266   5.202  1.00  0.00     0.034 A 
HETATM   37 CL   UNL     1      43.906 -13.408   6.285  1.00  0.00    -0.084 Cl
HETATM   38  C   UNL     1      43.324 -12.456   3.827  1.00  0.00     0.026 A 
HETATM   39  C   UNL     1      42.767 -11.520   2.951  1.00  0.00     0.031 A 
ENDBRANCH  31  33
ENDBRANCH  29  31
ENDBRANCH  27  29
ENDBRANCH  26  27
ENDBRANCH   4  26
TORSDOF 9
ENDMDL
MODEL 10
REMARK VINA RESULT:      -7.7      3.990      7.131
REMARK  9 active torsions:
REMARK  status: ('A' for Active; 'I' for Inactive)
REMARK    1  A    between atoms: C_4  and  C_5 
REMARK    2  A    between atoms: C_7  and  O_8 
REMARK    3  A    between atoms: C_10  and  O_11 
REMARK    4  A    between atoms: C_16  and  C_17 
REMARK    5  A    between atoms: C_20  and  C_21 
REMARK    6  A    between atoms: C_21  and  N_22 
REMARK    7  A    between atoms: N_22  and  C_23 
REMARK    8  A    between atoms: C_23  and  N_24 
REMARK    9  A    between atoms: N_24  and  C_25 
ROOT
HETATM    1  C   UNL     1      41.579 -11.376   4.977  1.00  0.00     0.067 C 
HETATM    2  C   UNL     1      40.103 -11.499   4.509  1.00  0.00     0.001 C 
HETATM    3  C   UNL     1      40.038 -11.685   2.977  1.00  0.00     0.040 C 
HETATM    4  C   UNL     1      40.610 -10.455   2.252  1.00  0.00     0.206 C 
HETATM    5  N   UNL     1      41.225  -9.538   3.319  1.00  0.00    -0.065 N 
HETATM    6  H   UNL     1      41.683  -8.742   2.852  1.00  0.00     0.280 HD
HETATM    7  C   UNL     1      42.274 -10.256   4.174  1.00  0.00     0.246 C 
HETATM    8  C   UNL     1      39.392 -10.173   4.849  1.00  0.00     0.033 C 
HETATM    9  C   UNL     1      40.123  -8.989   4.212  1.00  0.00     0.236 C 
ENDROOT
BRANCH   1  10
HETATM   10  C   UNL     1      42.296 -12.696   4.927  1.00  0.00     0.038 A 
HETATM   11  N   UNL     1      43.146 -13.135   5.916  1.00  0.00    -0.277 N 
HETATM   12  C   UNL     1      43.563 -12.436   7.112  1.00  0.00     0.179 C 
HETATM   13  N   UNL     1      43.598 -14.377   5.719  1.00  0.00    -0.172 NA
HETATM   14  C   UNL     1      43.062 -14.781   4.561  1.00  0.00     0.089 A 
HETATM   15  C   UNL     1      42.271 -13.735   4.012  1.00  0.00     0.061 A 
BRANCH  14  16
HETATM   16  C   UNL     1      43.285 -16.137   4.041  1.00  0.00    -0.003 A 
HETATM   17  C   UNL     1      43.795 -17.138   4.886  1.00  0.00     0.053 A 
HETATM   18  C   UNL     1      43.985 -18.448   4.428  1.00  0.00     0.102 A 
HETATM   19  C   UNL     1      43.669 -18.770   3.094  1.00  0.00     0.101 A 
HETATM   20  C   UNL     1      43.163 -17.778   2.249  1.00  0.00     0.040 A 
HETATM   21  C   UNL     1      42.973 -16.473   2.718  1.00  0.00     0.017 A 
BRANCH  18  22
HETATM   22  O   UNL     1      44.468 -19.477   5.197  1.00  0.00    -0.353 OA
HETATM   23  C   UNL     1      43.550 -20.166   6.034  1.00  0.00     0.210 C 
ENDBRANCH  18  22
BRANCH  19  24
HETATM   24  O   UNL     1      43.875 -20.075   2.723  1.00  0.00    -0.353 OA
HETATM   25  C   UNL     1      43.370 -20.490   1.463  1.00  0.00     0.210 C 
ENDBRANCH  19  24
ENDBRANCH  14  16
ENDBRANCH   1  10
BRANCH   4  26
HETATM   26  C   UNL     1      41.619 -10.753   1.124  1.00  0.00     0.155 C 
BRANCH  26  27
HETATM   27  N   UNL     1      41.743  -9.703   0.122  1.00  0.00    -0.365 N 
HETATM   28  H   UNL     1      42.617  -9.624  -0.391  1.00  0.00     0.161 HD
BRANCH  27  29
HETATM   29  C   UNL     1      40.685  -9.186  -0.585  1.00  0.00     0.172 C 
HETATM   30  S   UNL     1      39.777  -7.860  -0.130  1.00  0.00    -0.041 SA
BRANCH  29  31
HETATM   31  N   UNL     1      40.323  -9.863  -1.714  1.00  0.00    -0.333 N 
HETATM   32  H   UNL     1      40.425  -9.313  -2.565  1.00  0.00     0.168 HD
BRANCH  31  33
HETATM   33  C   UNL     1      40.007 -11.222  -1.911  1.00  0.00     0.034 A 
HETATM   34  C   UNL     1      40.850 -12.120  -2.571  1.00  0.00     0.031 A 
HETATM   35  C   UNL     1      40.451 -13.445  -2.778  1.00  0.00     0.026 A 
HETATM   36  C   UNL     1      39.204 -13.872  -2.329  1.00  0.00     0.034 A 
HETATM   37 CL   UNL     1      38.717 -15.500  -2.584  1.00  0.00    -0.084 Cl
HETATM   38  C   UNL     1      38.346 -12.981  -1.690  1.00  0.00     0.026 A 
HETATM   39  C   UNL     1      38.744 -11.656  -1.492  1.00  0.00     0.031 A 
ENDBRANCH  31  33
ENDBRANCH  29  31
ENDBRANCH  27  29
ENDBRANCH  26  27
ENDBRANCH   4  26
TORSDOF 9
ENDMDL
