MODEL 1
REMARK VINA RESULT:      -9.6      0.000      0.000
REMARK  7 active torsions:
REMARK  status: ('A' for Active; 'I' for Inactive)
REMARK    1  A    between atoms: C_5  and  C_6 
REMARK    2  A    between atoms: C_6  and  N_7 
REMARK       I    between atoms: N_7  and  C_8 
REMARK    3  A    between atoms: C_8  and  C_9 
REMARK    4  A    between atoms: C_14  and  C_15 
REMARK    5  A    between atoms: C_15  and  S_16 
REMARK    6  A    between atoms: S_16  and  C_17 
REMARK    7  A    between atoms: C_17  and  C_18 
ROOT
HETATM    1  C   UNL     1      44.252 -10.777   8.205  1.00  0.00     0.034 A 
HETATM    2  C   UNL     1      43.163 -10.227   7.521  1.00  0.00     0.048 A 
HETATM    3  C   UNL     1      43.053 -10.413   6.145  1.00  0.00     0.057 A 
HETATM    4  C   UNL     1      44.026 -11.135   5.427  1.00  0.00     0.036 A 
HETATM    5  N   UNL     1      43.960 -11.240   4.026  1.00  0.00    -0.277 NA
HETATM    6  C   UNL     1      42.576 -11.188   3.471  1.00  0.00     0.162 C 
HETATM    7  C   UNL     1      41.749 -10.061   4.122  1.00  0.00     0.240 C 
HETATM    8  O   UNL     1      40.874  -9.433   3.529  1.00  0.00    -0.271 OA
HETATM    9  N   UNL     1      41.967  -9.850   5.463  1.00  0.00    -0.324 N 
HETATM   10  C   UNL     1      45.147 -11.612   6.113  1.00  0.00     0.027 A 
HETATM   11  C   UNL     1      45.253 -11.452   7.500  1.00  0.00     0.019 A 
HETATM   12  H   UNL     1      44.524 -11.994   3.644  1.00  0.00     0.128 HD
HETATM   13  H   UNL     1      41.354  -9.188   5.922  1.00  0.00     0.169 HD
ENDROOT
BRANCH   1  14
HETATM   14  C   UNL     1      44.311 -10.592   9.679  1.00  0.00     0.252 C 
HETATM   15  N   UNL     1      43.105 -10.434  10.321  1.00  0.00    -0.353 N 
HETATM   16  H   UNL     1      42.238 -10.414   9.803  1.00  0.00     0.163 HD
HETATM   17  O   UNL     1      45.397 -10.542  10.242  1.00  0.00    -0.268 OA
BRANCH  15  18
HETATM   18  C   UNL     1      43.033 -10.179  11.745  1.00  0.00     0.161 C 
BRANCH  18  19
HETATM   19  C   UNL     1      42.776  -8.723  12.043  1.00  0.00    -0.041 A 
HETATM   20  C   UNL     1      42.884  -8.237  13.352  1.00  0.00     0.009 A 
HETATM   21  C   UNL     1      42.702  -6.879  13.627  1.00  0.00     0.007 A 
HETATM   22  C   UNL     1      42.409  -5.979  12.597  1.00  0.00    -0.062 A 
HETATM   23  C   UNL     1      42.236  -4.515  12.875  1.00  0.00     0.048 C 
HETATM   24  C   UNL     1      42.310  -6.457  11.286  1.00  0.00     0.007 A 
HETATM   25  C   UNL     1      42.499  -7.813  11.011  1.00  0.00     0.009 A 
ENDBRANCH  18  19
ENDBRANCH  15  18
ENDBRANCH   1  14
BRANCH   6  26
HETATM   26  C   UNL     1      41.894 -12.555   3.686  1.00  0.00     0.103 C 
BRANCH  26  27
HETATM   27  S   UNL     1      42.782 -13.963   2.940  1.00  0.00    -0.162 SA
BRANCH  27  28
HETATM   28  C   UNL     1      42.572 -15.156   4.298  1.00  0.00     0.114 C 
BRANCH  28  29
HETATM   29  C   UNL     1      43.091 -16.522   3.930  1.00  0.00    -0.027 A 
HETATM   30  C   UNL     1      44.006 -17.228   4.729  1.00  0.00     0.041 A 
HETATM   31 CL   UNL     1      44.626 -16.577   6.207  1.00  0.00    -0.084 Cl
HETATM   32  C   UNL     1      44.457 -18.495   4.345  1.00  0.00     0.024 A 
HETATM   33  C   UNL     1      43.996 -19.077   3.165  1.00  0.00     0.002 A 
HETATM   34  C   UNL     1      43.080 -18.396   2.369  1.00  0.00     0.001 A 
HETATM   35  C   UNL     1      42.628 -17.131   2.748  1.00  0.00     0.009 A 
ENDBRANCH  28  29
ENDBRANCH  27  28
ENDBRANCH  26  27
ENDBRANCH   6  26
TORSDOF 7
ENDMDL
MODEL 2
REMARK VINA RESULT:      -9.6      5.442      9.292
REMARK  7 active torsions:
REMARK  status: ('A' for Active; 'I' for Inactive)
REMARK    1  A    between atoms: C_5  and  C_6 
REMARK    2  A    between atoms: C_6  and  N_7 
REMARK       I    between atoms: N_7  and  C_8 
REMARK    3  A    between atoms: C_8  and  C_9 
REMARK    4  A    between atoms: C_14  and  C_15 
REMARK    5  A    between atoms: C_15  and  S_16 
REMARK    6  A    between atoms: S_16  and  C_17 
REMARK    7  A    between atoms: C_17  and  C_18 
ROOT
HETATM    1  C   UNL     1      40.245 -14.471   1.105  1.00  0.00     0.034 A 
HETATM    2  C   UNL     1      40.713 -13.454   1.944  1.00  0.00     0.048 A 
HETATM    3  C   UNL     1      40.824 -13.690   3.312  1.00  0.00     0.057 A 
HETATM    4  C   UNL     1      40.461 -14.932   3.869  1.00  0.00     0.036 A 
HETATM    5  N   UNL     1      40.486 -15.135   5.260  1.00  0.00    -0.277 NA
HETATM    6  C   UNL     1      41.502 -14.313   5.982  1.00  0.00     0.162 C 
HETATM    7  C   UNL     1      41.496 -12.851   5.493  1.00  0.00     0.240 C 
HETATM    8  O   UNL     1      41.754 -11.893   6.219  1.00  0.00    -0.271 OA
HETATM    9  N   UNL     1      41.282 -12.665   4.148  1.00  0.00    -0.324 N 
HETATM   10  C   UNL     1      39.923 -15.911   3.028  1.00  0.00     0.027 A 
HETATM   11  C   UNL     1      39.831 -15.692   1.649  1.00  0.00     0.019 A 
HETATM   12  H   UNL     1      40.486 -16.113   5.533  1.00  0.00     0.128 HD
HETATM   13  H   UNL     1      41.384 -11.720   3.801  1.00  0.00     0.169 HD
ENDROOT
BRANCH   1  14
HETATM   14  C   UNL     1      40.181 -14.193  -0.354  1.00  0.00     0.252 C 
HETATM   15  N   UNL     1      40.882 -13.095  -0.796  1.00  0.00    -0.353 N 
HETATM   16  H   UNL     1      41.380 -12.502  -0.149  1.00  0.00     0.163 HD
HETATM   17  O   UNL     1      39.491 -14.901  -1.078  1.00  0.00    -0.268 OA
BRANCH  15  18
HETATM   18  C   UNL     1      40.844 -12.681  -2.183  1.00  0.00     0.161 C 
BRANCH  18  19
HETATM   19  C   UNL     1      41.066 -11.197  -2.332  1.00  0.00    -0.041 A 
HETATM   20  C   UNL     1      41.688 -10.467  -1.312  1.00  0.00     0.009 A 
HETATM   21  C   UNL     1      41.947  -9.102  -1.466  1.00  0.00     0.007 A 
HETATM   22  C   UNL     1      41.590  -8.440  -2.645  1.00  0.00    -0.062 A 
HETATM   23  C   UNL     1      41.885  -6.981  -2.834  1.00  0.00     0.048 C 
HETATM   24  C   UNL     1      40.977  -9.167  -3.672  1.00  0.00     0.007 A 
HETATM   25  C   UNL     1      40.725 -10.532  -3.520  1.00  0.00     0.009 A 
ENDBRANCH  18  19
ENDBRANCH  15  18
ENDBRANCH   1  14
BRANCH   6  26
HETATM   26  C   UNL     1      42.896 -14.946   5.784  1.00  0.00     0.103 C 
BRANCH  26  27
HETATM   27  S   UNL     1      42.976 -16.725   6.179  1.00  0.00    -0.162 SA
BRANCH  27  28
HETATM   28  C   UNL     1      44.383 -17.167   5.112  1.00  0.00     0.114 C 
BRANCH  28  29
HETATM   29  C   UNL     1      44.060 -18.333   4.212  1.00  0.00    -0.027 A 
HETATM   30  C   UNL     1      43.598 -18.170   2.896  1.00  0.00     0.041 A 
HETATM   31 CL   UNL     1      43.349 -16.607   2.198  1.00  0.00    -0.084 Cl
HETATM   32  C   UNL     1      43.314 -19.284   2.099  1.00  0.00     0.024 A 
HETATM   33  C   UNL     1      43.493 -20.571   2.601  1.00  0.00     0.002 A 
HETATM   34  C   UNL     1      43.963 -20.749   3.899  1.00  0.00     0.001 A 
HETATM   35  C   UNL     1      44.246 -19.641   4.698  1.00  0.00     0.009 A 
ENDBRANCH  28  29
ENDBRANCH  27  28
ENDBRANCH  26  27
ENDBRANCH   6  26
TORSDOF 7
ENDMDL
MODEL 3
REMARK VINA RESULT:      -9.6      3.074     10.665
REMARK  7 active torsions:
REMARK  status: ('A' for Active; 'I' for Inactive)
REMARK    1  A    between atoms: C_5  and  C_6 
REMARK    2  A    between atoms: C_6  and  N_7 
REMARK       I    between atoms: N_7  and  C_8 
REMARK    3  A    between atoms: C_8  and  C_9 
REMARK    4  A    between atoms: C_14  and  C_15 
REMARK    5  A    between atoms: C_15  and  S_16 
REMARK    6  A    between atoms: S_16  and  C_17 
REMARK    7  A    between atoms: C_17  and  C_18 
ROOT
HETATM    1  C   UNL     1      42.202 -13.016   4.861  1.00  0.00     0.034 A 
HETATM    2  C   UNL     1      43.515 -12.830   5.307  1.00  0.00     0.048 A 
HETATM    3  C   UNL     1      43.817 -11.734   6.113  1.00  0.00     0.057 A 
HETATM    4  C   UNL     1      42.826 -10.803   6.477  1.00  0.00     0.036 A 
HETATM    5  N   UNL     1      43.154  -9.649   7.212  1.00  0.00    -0.277 NA
HETATM    6  C   UNL     1      44.329  -9.811   8.117  1.00  0.00     0.162 C 
HETATM    7  C   UNL     1      45.490 -10.538   7.410  1.00  0.00     0.240 C 
HETATM    8  O   UNL     1      46.675 -10.313   7.649  1.00  0.00    -0.271 OA
HETATM    9  N   UNL     1      45.135 -11.547   6.546  1.00  0.00    -0.324 N 
HETATM   10  C   UNL     1      41.536 -10.961   5.961  1.00  0.00     0.027 A 
HETATM   11  C   UNL     1      41.217 -12.072   5.171  1.00  0.00     0.019 A 
HETATM   12  H   UNL     1      42.355  -9.205   7.656  1.00  0.00     0.128 HD
HETATM   13  H   UNL     1      45.891 -12.098   6.161  1.00  0.00     0.169 HD
ENDROOT
BRANCH   1  14
HETATM   14  C   UNL     1      41.912 -14.220   4.039  1.00  0.00     0.252 C 
HETATM   15  N   UNL     1      42.985 -14.788   3.392  1.00  0.00    -0.353 N 
HETATM   16  H   UNL     1      43.907 -14.380   3.457  1.00  0.00     0.163 HD
HETATM   17  O   UNL     1      40.760 -14.619   3.932  1.00  0.00    -0.268 OA
BRANCH  15  18
HETATM   18  C   UNL     1      42.822 -15.923   2.508  1.00  0.00     0.161 C 
BRANCH  18  19
HETATM   19  C   UNL     1      43.290 -17.206   3.148  1.00  0.00    -0.041 A 
HETATM   20  C   UNL     1      43.640 -17.236   4.504  1.00  0.00     0.009 A 
HETATM   21  C   UNL     1      44.022 -18.432   5.117  1.00  0.00     0.007 A 
HETATM   22  C   UNL     1      44.060 -19.624   4.386  1.00  0.00    -0.062 A 
HETATM   23  C   UNL     1      44.444 -20.920   5.037  1.00  0.00     0.048 C 
HETATM   24  C   UNL     1      43.702 -19.602   3.033  1.00  0.00     0.007 A 
HETATM   25  C   UNL     1      43.314 -18.407   2.423  1.00  0.00     0.009 A 
ENDBRANCH  18  19
ENDBRANCH  15  18
ENDBRANCH   1  14
BRANCH   6  26
HETATM   26  C   UNL     1      43.892 -10.588   9.377  1.00  0.00     0.103 C 
BRANCH  26  27
HETATM   27  S   UNL     1      44.161  -9.690  10.942  1.00  0.00    -0.162 SA
BRANCH  27  28
HETATM   28  C   UNL     1      42.421  -9.516  11.448  1.00  0.00     0.114 C 
BRANCH  28  29
HETATM   29  C   UNL     1      42.290  -8.817  12.777  1.00  0.00    -0.027 A 
HETATM   30  C   UNL     1      41.275  -9.122  13.699  1.00  0.00     0.041 A 
HETATM   31 CL   UNL     1      40.076 -10.327  13.378  1.00  0.00    -0.084 Cl
HETATM   32  C   UNL     1      41.196  -8.446  14.921  1.00  0.00     0.024 A 
HETATM   33  C   UNL     1      42.132  -7.464  15.242  1.00  0.00     0.002 A 
HETATM   34  C   UNL     1      43.151  -7.159  14.344  1.00  0.00     0.001 A 
HETATM   35  C   UNL     1      43.233  -7.830  13.124  1.00  0.00     0.009 A 
ENDBRANCH  28  29
ENDBRANCH  27  28
ENDBRANCH  26  27
ENDBRANCH   6  26
TORSDOF 7
ENDMDL
MODEL 4
REMARK VINA RESULT:      -9.4      2.253      3.232
REMARK  7 active torsions:
REMARK  status: ('A' for Active; 'I' for Inactive)
REMARK    1  A    between atoms: C_5  and  C_6 
REMARK    2  A    between atoms: C_6  and  N_7 
REMARK       I    between atoms: N_7  and  C_8 
REMARK    3  A    between atoms: C_8  and  C_9 
REMARK    4  A    between atoms: C_14  and  C_15 
REMARK    5  A    between atoms: C_15  and  S_16 
REMARK    6  A    between atoms: S_16  and  C_17 
REMARK    7  A    between atoms: C_17  and  C_18 
ROOT
HETATM    1  C   UNL     1      43.412 -11.620   6.627  1.00  0.00     0.034 A 
HETATM    2  C   UNL     1      42.951 -12.935   6.747  1.00  0.00     0.048 A 
HETATM    3  C   UNL     1      42.065 -13.441   5.798  1.00  0.00     0.057 A 
HETATM    4  C   UNL     1      41.616 -12.648   4.725  1.00  0.00     0.036 A 
HETATM    5  N   UNL     1      40.650 -13.131   3.824  1.00  0.00    -0.277 NA
HETATM    6  C   UNL     1      40.670 -14.612   3.640  1.00  0.00     0.162 C 
HETATM    7  C   UNL     1      40.789 -15.347   4.990  1.00  0.00     0.240 C 
HETATM    8  O   UNL     1      40.279 -16.443   5.212  1.00  0.00    -0.271 OA
HETATM    9  N   UNL     1      41.597 -14.754   5.932  1.00  0.00    -0.324 N 
HETATM   10  C   UNL     1      42.026 -11.313   4.662  1.00  0.00     0.027 A 
HETATM   11  C   UNL     1      42.936 -10.803   5.596  1.00  0.00     0.019 A 
HETATM   12  H   UNL     1      40.608 -12.613   2.951  1.00  0.00     0.128 HD
HETATM   13  H   UNL     1      41.767 -15.281   6.778  1.00  0.00     0.169 HD
ENDROOT
BRANCH   1  14
HETATM   14  C   UNL     1      44.389 -11.131   7.635  1.00  0.00     0.252 C 
HETATM   15  N   UNL     1      43.884 -10.330   8.633  1.00  0.00    -0.353 N 
HETATM   16  H   UNL     1      42.908 -10.071   8.648  1.00  0.00     0.163 HD
HETATM   17  O   UNL     1      45.576 -11.411   7.518  1.00  0.00    -0.268 OA
BRANCH  15  18
HETATM   18  C   UNL     1      44.744  -9.737   9.635  1.00  0.00     0.161 C 
BRANCH  18  19
HETATM   19  C   UNL     1      44.015  -9.505  10.935  1.00  0.00    -0.041 A 
HETATM   20  C   UNL     1      43.780  -8.202  11.393  1.00  0.00     0.009 A 
HETATM   21  C   UNL     1      43.057  -7.978  12.568  1.00  0.00     0.007 A 
HETATM   22  C   UNL     1      42.553  -9.053  13.308  1.00  0.00    -0.062 A 
HETATM   23  C   UNL     1      41.754  -8.826  14.557  1.00  0.00     0.048 C 
HETATM   24  C   UNL     1      42.776 -10.356  12.849  1.00  0.00     0.007 A 
HETATM   25  C   UNL     1      43.493 -10.579  11.671  1.00  0.00     0.009 A 
ENDBRANCH  18  19
ENDBRANCH  15  18
ENDBRANCH   1  14
BRANCH   6  26
HETATM   26  C   UNL     1      41.843 -14.990   2.712  1.00  0.00     0.103 C 
BRANCH  26  27
HETATM   27  S   UNL     1      41.771 -16.695   2.068  1.00  0.00    -0.162 SA
BRANCH  27  28
HETATM   28  C   UNL     1      43.528 -17.126   2.265  1.00  0.00     0.114 C 
BRANCH  28  29
HETATM   29  C   UNL     1      43.709 -18.406   3.040  1.00  0.00    -0.027 A 
HETATM   30  C   UNL     1      44.000 -18.426   4.414  1.00  0.00     0.041 A 
HETATM   31 CL   UNL     1      44.186 -16.974   5.334  1.00  0.00    -0.084 Cl
HETATM   32  C   UNL     1      44.157 -19.641   5.091  1.00  0.00     0.024 A 
HETATM   33  C   UNL     1      44.019 -20.848   4.408  1.00  0.00     0.002 A 
HETATM   34  C   UNL     1      43.718 -20.845   3.049  1.00  0.00     0.001 A 
HETATM   35  C   UNL     1      43.562 -19.635   2.370  1.00  0.00     0.009 A 
ENDBRANCH  28  29
ENDBRANCH  27  28
ENDBRANCH  26  27
ENDBRANCH   6  26
TORSDOF 7
ENDMDL
MODEL 5
REMARK VINA RESULT:      -9.2      5.729      8.547
REMARK  7 active torsions:
REMARK  status: ('A' for Active; 'I' for Inactive)
REMARK    1  A    between atoms: C_5  and  C_6 
REMARK    2  A    between atoms: C_6  and  N_7 
REMARK       I    between atoms: N_7  and  C_8 
REMARK    3  A    between atoms: C_8  and  C_9 
REMARK    4  A    between atoms: C_14  and  C_15 
REMARK    5  A    between atoms: C_15  and  S_16 
REMARK    6  A    between atoms: S_16  and  C_17 
REMARK    7  A    between atoms: C_17  and  C_18 
ROOT
HETATM    1  C   UNL     1      42.061 -12.858   4.849  1.00  0.00     0.034 A 
HETATM    2  C   UNL     1      40.791 -12.273   4.846  1.00  0.00     0.048 A 
HETATM    3  C   UNL     1      40.580 -11.093   4.137  1.00  0.00     0.057 A 
HETATM    4  C   UNL     1      41.628 -10.469   3.432  1.00  0.00     0.036 A 
HETATM    5  N   UNL     1      41.434  -9.230   2.796  1.00  0.00    -0.277 NA
HETATM    6  C   UNL     1      40.038  -8.992   2.329  1.00  0.00     0.162 C 
HETATM    7  C   UNL     1      39.007  -9.389   3.404  1.00  0.00     0.240 C 
HETATM    8  O   UNL     1      37.929  -8.818   3.553  1.00  0.00    -0.271 OA
HETATM    9  N   UNL     1      39.309 -10.506   4.147  1.00  0.00    -0.324 N 
HETATM   10  C   UNL     1      42.909 -11.024   3.508  1.00  0.00     0.027 A 
HETATM   11  C   UNL     1      43.125 -12.224   4.197  1.00  0.00     0.019 A 
HETATM   12  H   UNL     1      42.140  -9.012   2.099  1.00  0.00     0.128 HD
HETATM   13  H   UNL     1      38.591 -10.836   4.779  1.00  0.00     0.169 HD
ENDROOT
BRANCH   1  14
HETATM   14  C   UNL     1      42.235 -14.139   5.582  1.00  0.00     0.252 C 
HETATM   15  N   UNL     1      43.245 -14.961   5.140  1.00  0.00    -0.353 N 
HETATM   16  H   UNL     1      43.807 -14.710   4.340  1.00  0.00     0.163 HD
HETATM   17  O   UNL     1      41.467 -14.427   6.492  1.00  0.00    -0.268 OA
BRANCH  15  18
HETATM   18  C   UNL     1      43.471 -16.265   5.727  1.00  0.00     0.161 C 
BRANCH  18  19
HETATM   19  C   UNL     1      43.564 -17.345   4.678  1.00  0.00    -0.041 A 
HETATM   20  C   UNL     1      44.056 -18.614   5.009  1.00  0.00     0.009 A 
HETATM   21  C   UNL     1      44.094 -19.636   4.057  1.00  0.00     0.007 A 
HETATM   22  C   UNL     1      43.639 -19.409   2.754  1.00  0.00    -0.062 A 
HETATM   23  C   UNL     1      43.650 -20.505   1.728  1.00  0.00     0.048 C 
HETATM   24  C   UNL     1      43.137 -18.147   2.421  1.00  0.00     0.007 A 
HETATM   25  C   UNL     1      43.093 -17.128   3.375  1.00  0.00     0.009 A 
ENDBRANCH  18  19
ENDBRANCH  15  18
ENDBRANCH   1  14
BRANCH   6  26
HETATM   26  C   UNL     1      39.798  -9.788   1.028  1.00  0.00     0.103 C 
BRANCH  26  27
HETATM   27  S   UNL     1      41.312 -10.139   0.074  1.00  0.00    -0.162 SA
BRANCH  27  28
HETATM   28  C   UNL     1      40.661 -11.487  -0.963  1.00  0.00     0.114 C 
BRANCH  28  29
HETATM   29  C   UNL     1      40.657 -12.805  -0.231  1.00  0.00    -0.027 A 
HETATM   30  C   UNL     1      39.779 -13.852  -0.558  1.00  0.00     0.041 A 
HETATM   31 CL   UNL     1      38.614 -13.709  -1.828  1.00  0.00    -0.084 Cl
HETATM   32  C   UNL     1      39.815 -15.058   0.150  1.00  0.00     0.024 A 
HETATM   33  C   UNL     1      40.730 -15.238   1.185  1.00  0.00     0.002 A 
HETATM   34  C   UNL     1      41.616 -14.215   1.513  1.00  0.00     0.001 A 
HETATM   35  C   UNL     1      41.582 -13.010   0.810  1.00  0.00     0.009 A 
ENDBRANCH  28  29
ENDBRANCH  27  28
ENDBRANCH  26  27
ENDBRANCH   6  26
TORSDOF 7
ENDMDL
MODEL 6
REMARK VINA RESULT:      -9.1      2.092      2.674
REMARK  7 active torsions:
REMARK  status: ('A' for Active; 'I' for Inactive)
REMARK    1  A    between atoms: C_5  and  C_6 
REMARK    2  A    between atoms: C_6  and  N_7 
REMARK       I    between atoms: N_7  and  C_8 
REMARK    3  A    between atoms: C_8  and  C_9 
REMARK    4  A    between atoms: C_14  and  C_15 
REMARK    5  A    between atoms: C_15  and  S_16 
REMARK    6  A    between atoms: S_16  and  C_17 
REMARK    7  A    between atoms: C_17  and  C_18 
ROOT
HETATM    1  C   UNL     1      44.216  -9.923   7.596  1.00  0.00     0.034 A 
HETATM    2  C   UNL     1      42.940 -10.478   7.457  1.00  0.00     0.048 A 
HETATM    3  C   UNL     1      42.772 -11.628   6.690  1.00  0.00     0.057 A 
HETATM    4  C   UNL     1      43.863 -12.236   6.039  1.00  0.00     0.036 A 
HETATM    5  N   UNL     1      43.674 -13.341   5.190  1.00  0.00    -0.277 NA
HETATM    6  C   UNL     1      42.507 -14.198   5.549  1.00  0.00     0.162 C 
HETATM    7  C   UNL     1      41.261 -13.350   5.873  1.00  0.00     0.240 C 
HETATM    8  O   UNL     1      40.112 -13.717   5.638  1.00  0.00    -0.271 OA
HETATM    9  N   UNL     1      41.490 -12.172   6.545  1.00  0.00    -0.324 N 
HETATM   10  C   UNL     1      45.118 -11.625   6.125  1.00  0.00     0.027 A 
HETATM   11  C   UNL     1      45.302 -10.484   6.915  1.00  0.00     0.019 A 
HETATM   12  H   UNL     1      44.523 -13.866   5.005  1.00  0.00     0.128 HD
HETATM   13  H   UNL     1      40.672 -11.663   6.855  1.00  0.00     0.169 HD
ENDROOT
BRANCH   1  14
HETATM   14  C   UNL     1      44.361  -8.720   8.458  1.00  0.00     0.252 C 
HETATM   15  N   UNL     1      43.249  -8.350   9.178  1.00  0.00    -0.353 N 
HETATM   16  H   UNL     1      42.380  -8.858   9.091  1.00  0.00     0.163 HD
HETATM   17  O   UNL     1      45.414  -8.096   8.459  1.00  0.00    -0.268 OA
BRANCH  15  18
HETATM   18  C   UNL     1      43.241  -7.160  10.001  1.00  0.00     0.161 C 
BRANCH  18  19
HETATM   19  C   UNL     1      42.762  -7.447  11.402  1.00  0.00    -0.041 A 
HETATM   20  C   UNL     1      42.795  -8.753  11.909  1.00  0.00     0.009 A 
HETATM   21  C   UNL     1      42.404  -9.019  13.224  1.00  0.00     0.007 A 
HETATM   22  C   UNL     1      41.973  -7.983  14.060  1.00  0.00    -0.062 A 
HETATM   23  C   UNL     1      41.575  -8.250  15.481  1.00  0.00     0.048 C 
HETATM   24  C   UNL     1      41.947  -6.676  13.562  1.00  0.00     0.007 A 
HETATM   25  C   UNL     1      42.344  -6.410  12.249  1.00  0.00     0.009 A 
ENDBRANCH  18  19
ENDBRANCH  15  18
ENDBRANCH   1  14
BRANCH   6  26
HETATM   26  C   UNL     1      42.885 -15.087   6.754  1.00  0.00     0.103 C 
BRANCH  26  27
HETATM   27  S   UNL     1      44.375 -16.105   6.496  1.00  0.00    -0.162 SA
BRANCH  27  28
HETATM   28  C   UNL     1      43.559 -17.720   6.296  1.00  0.00     0.114 C 
BRANCH  28  29
HETATM   29  C   UNL     1      43.540 -18.164   4.856  1.00  0.00    -0.027 A 
HETATM   30  C   UNL     1      43.862 -19.473   4.461  1.00  0.00     0.041 A 
HETATM   31 CL   UNL     1      44.321 -20.689   5.603  1.00  0.00    -0.084 Cl
HETATM   32  C   UNL     1      43.829 -19.839   3.111  1.00  0.00     0.024 A 
HETATM   33  C   UNL     1      43.467 -18.907   2.140  1.00  0.00     0.002 A 
HETATM   34  C   UNL     1      43.132 -17.609   2.517  1.00  0.00     0.001 A 
HETATM   35  C   UNL     1      43.166 -17.240   3.862  1.00  0.00     0.009 A 
ENDBRANCH  28  29
ENDBRANCH  27  28
ENDBRANCH  26  27
ENDBRANCH   6  26
TORSDOF 7
ENDMDL
MODEL 7
REMARK VINA RESULT:      -9.0      4.463      9.146
REMARK  7 active torsions:
REMARK  status: ('A' for Active; 'I' for Inactive)
REMARK    1  A    between atoms: C_5  and  C_6 
REMARK    2  A    between atoms: C_6  and  N_7 
REMARK       I    between atoms: N_7  and  C_8 
REMARK    3  A    between atoms: C_8  and  C_9 
REMARK    4  A    between atoms: C_14  and  C_15 
REMARK    5  A    between atoms: C_15  and  S_16 
REMARK    6  A    between atoms: S_16  and  C_17 
REMARK    7  A    between atoms: C_17  and  C_18 
ROOT
HETATM    1  C   UNL     1      41.374 -11.124   2.835  1.00  0.00     0.034 A 
HETATM    2  C   UNL     1      42.667 -11.009   3.357  1.00  0.00     0.048 A 
HETATM    3  C   UNL     1      42.937 -11.498   4.633  1.00  0.00     0.057 A 
HETATM    4  C   UNL     1      41.928 -12.095   5.413  1.00  0.00     0.036 A 
HETATM    5  N   UNL     1      42.183 -12.502   6.736  1.00  0.00    -0.277 NA
HETATM    6  C   UNL     1      43.596 -12.904   6.992  1.00  0.00     0.162 C 
HETATM    7  C   UNL     1      44.590 -11.903   6.370  1.00  0.00     0.240 C 
HETATM    8  O   UNL     1      45.687 -11.643   6.861  1.00  0.00    -0.271 OA
HETATM    9  N   UNL     1      44.230 -11.370   5.154  1.00  0.00    -0.324 N 
HETATM   10  C   UNL     1      40.625 -12.132   4.908  1.00  0.00     0.027 A 
HETATM   11  C   UNL     1      40.349 -11.667   3.617  1.00  0.00     0.019 A 
HETATM   12  H   UNL     1      41.500 -13.159   7.101  1.00  0.00     0.128 HD
HETATM   13  H   UNL     1      44.922 -10.797   4.690  1.00  0.00     0.169 HD
ENDROOT
BRANCH   1  14
HETATM   14  C   UNL     1      41.136 -10.628   1.454  1.00  0.00     0.252 C 
HETATM   15  N   UNL     1      39.858 -10.772   0.967  1.00  0.00    -0.353 N 
HETATM   16  H   UNL     1      39.140 -11.221   1.518  1.00  0.00     0.163 HD
HETATM   17  O   UNL     1      42.067 -10.169   0.804  1.00  0.00    -0.268 OA
BRANCH  15  18
HETATM   18  C   UNL     1      39.516 -10.391  -0.387  1.00  0.00     0.161 C 
BRANCH  18  19
HETATM   19  C   UNL     1      39.165 -11.587  -1.236  1.00  0.00    -0.041 A 
HETATM   20  C   UNL     1      37.830 -11.980  -1.391  1.00  0.00     0.009 A 
HETATM   21  C   UNL     1      37.493 -13.054  -2.220  1.00  0.00     0.007 A 
HETATM   22  C   UNL     1      38.486 -13.755  -2.912  1.00  0.00    -0.062 A 
HETATM   23  C   UNL     1      38.136 -14.893  -3.825  1.00  0.00     0.048 C 
HETATM   24  C   UNL     1      39.821 -13.360  -2.769  1.00  0.00     0.007 A 
HETATM   25  C   UNL     1      40.156 -12.283  -1.945  1.00  0.00     0.009 A 
ENDBRANCH  18  19
ENDBRANCH  15  18
ENDBRANCH   1  14
BRANCH   6  26
HETATM   26  C   UNL     1      43.829 -14.321   6.426  1.00  0.00     0.103 C 
BRANCH  26  27
HETATM   27  S   UNL     1      42.582 -15.549   6.941  1.00  0.00    -0.162 SA
BRANCH  27  28
HETATM   28  C   UNL     1      41.789 -15.811   5.323  1.00  0.00     0.114 C 
BRANCH  28  29
HETATM   29  C   UNL     1      42.548 -16.805   4.481  1.00  0.00    -0.027 A 
HETATM   30  C   UNL     1      42.260 -17.027   3.125  1.00  0.00     0.041 A 
HETATM   31 CL   UNL     1      40.995 -16.179   2.305  1.00  0.00    -0.084 Cl
HETATM   32  C   UNL     1      42.994 -17.959   2.384  1.00  0.00     0.024 A 
HETATM   33  C   UNL     1      44.028 -18.676   2.984  1.00  0.00     0.002 A 
HETATM   34  C   UNL     1      44.334 -18.459   4.325  1.00  0.00     0.001 A 
HETATM   35  C   UNL     1      43.603 -17.530   5.067  1.00  0.00     0.009 A 
ENDBRANCH  28  29
ENDBRANCH  27  28
ENDBRANCH  26  27
ENDBRANCH   6  26
TORSDOF 7
ENDMDL
MODEL 8
REMARK VINA RESULT:      -8.9      1.887      2.498
REMARK  7 active torsions:
REMARK  status: ('A' for Active; 'I' for Inactive)
REMARK    1  A    between atoms: C_5  and  C_6 
REMARK    2  A    between atoms: C_6  and  N_7 
REMARK       I    between atoms: N_7  and  C_8 
REMARK    3  A    between atoms: C_8  and  C_9 
REMARK    4  A    between atoms: C_14  and  C_15 
REMARK    5  A    between atoms: C_15  and  S_16 
REMARK    6  A    between atoms: S_16  and  C_17 
REMARK    7  A    between atoms: C_17  and  C_18 
ROOT
HETATM    1  C   UNL     1      43.617 -11.032   6.205  1.00  0.00     0.034 A 
HETATM    2  C   UNL     1      42.247 -10.972   5.934  1.00  0.00     0.048 A 
HETATM    3  C   UNL     1      41.777 -11.358   4.681  1.00  0.00     0.057 A 
HETATM    4  C   UNL     1      42.661 -11.796   3.675  1.00  0.00     0.036 A 
HETATM    5  N   UNL     1      42.194 -12.095   2.383  1.00  0.00    -0.277 NA
HETATM    6  C   UNL     1      40.784 -12.582   2.337  1.00  0.00     0.162 C 
HETATM    7  C   UNL     1      39.862 -11.726   3.228  1.00  0.00     0.240 C 
HETATM    8  O   UNL     1      38.680 -11.509   2.969  1.00  0.00    -0.271 OA
HETATM    9  N   UNL     1      40.405 -11.284   4.412  1.00  0.00    -0.324 N 
HETATM   10  C   UNL     1      44.034 -11.777   3.936  1.00  0.00     0.027 A 
HETATM   11  C   UNL     1      44.513 -11.416   5.201  1.00  0.00     0.019 A 
HETATM   12  H   UNL     1      42.837 -12.658   1.834  1.00  0.00     0.128 HD
HETATM   13  H   UNL     1      39.776 -10.814   5.050  1.00  0.00     0.169 HD
ENDROOT
BRANCH   1  14
HETATM   14  C   UNL     1      44.073 -10.652   7.568  1.00  0.00     0.252 C 
HETATM   15  N   UNL     1      43.805  -9.362   7.962  1.00  0.00    -0.353 N 
HETATM   16  H   UNL     1      43.351  -8.711   7.337  1.00  0.00     0.163 HD
HETATM   17  O   UNL     1      44.693 -11.460   8.249  1.00  0.00    -0.268 OA
BRANCH  15  18
HETATM   18  C   UNL     1      44.257  -8.851   9.239  1.00  0.00     0.161 C 
BRANCH  18  19
HETATM   19  C   UNL     1      43.233  -9.066  10.325  1.00  0.00    -0.041 A 
HETATM   20  C   UNL     1      41.880  -9.233  10.002  1.00  0.00     0.009 A 
HETATM   21  C   UNL     1      40.934  -9.489  10.998  1.00  0.00     0.007 A 
HETATM   22  C   UNL     1      41.322  -9.584  12.338  1.00  0.00    -0.062 A 
HETATM   23  C   UNL     1      40.320  -9.883  13.414  1.00  0.00     0.048 C 
HETATM   24  C   UNL     1      42.673  -9.428  12.666  1.00  0.00     0.007 A 
HETATM   25  C   UNL     1      43.619  -9.179  11.669  1.00  0.00     0.009 A 
ENDBRANCH  18  19
ENDBRANCH  15  18
ENDBRANCH   1  14
BRANCH   6  26
HETATM   26  C   UNL     1      40.746 -14.060   2.780  1.00  0.00     0.103 C 
BRANCH  26  27
HETATM   27  S   UNL     1      41.894 -15.146   1.870  1.00  0.00    -0.162 SA
BRANCH  27  28
HETATM   28  C   UNL     1      43.011 -15.560   3.246  1.00  0.00     0.114 C 
BRANCH  28  29
HETATM   29  C   UNL     1      43.327 -17.033   3.289  1.00  0.00    -0.027 A 
HETATM   30  C   UNL     1      43.987 -17.637   4.372  1.00  0.00     0.041 A 
HETATM   31 CL   UNL     1      44.505 -16.730   5.751  1.00  0.00    -0.084 Cl
HETATM   32  C   UNL     1      44.257 -19.009   4.366  1.00  0.00     0.024 A 
HETATM   33  C   UNL     1      43.866 -19.797   3.285  1.00  0.00     0.002 A 
HETATM   34  C   UNL     1      43.199 -19.216   2.210  1.00  0.00     0.001 A 
HETATM   35  C   UNL     1      42.929 -17.847   2.212  1.00  0.00     0.009 A 
ENDBRANCH  28  29
ENDBRANCH  27  28
ENDBRANCH  26  27
ENDBRANCH   6  26
TORSDOF 7
ENDMDL
MODEL 9
REMARK VINA RESULT:      -8.9      1.419      1.500
REMARK  7 active torsions:
REMARK  status: ('A' for Active; 'I' for Inactive)
REMARK    1  A    between atoms: C_5  and  C_6 
REMARK    2  A    between atoms: C_6  and  N_7 
REMARK       I    between atoms: N_7  and  C_8 
REMARK    3  A    between atoms: C_8  and  C_9 
REMARK    4  A    between atoms: C_14  and  C_15 
REMARK    5  A    between atoms: C_15  and  S_16 
REMARK    6  A    between atoms: S_16  and  C_17 
REMARK    7  A    between atoms: C_17  and  C_18 
ROOT
HETATM    1  C   UNL     1      44.189 -10.595   8.368  1.00  0.00     0.034 A 
HETATM    2  C   UNL     1      43.135 -10.269   7.508  1.00  0.00     0.048 A 
HETATM    3  C   UNL     1      43.238 -10.570   6.152  1.00  0.00     0.057 A 
HETATM    4  C   UNL     1      44.391 -11.186   5.628  1.00  0.00     0.036 A 
HETATM    5  N   UNL     1      44.529 -11.402   4.245  1.00  0.00    -0.277 NA
HETATM    6  C   UNL     1      43.239 -11.603   3.523  1.00  0.00     0.162 C 
HETATM    7  C   UNL     1      42.180 -10.572   3.962  1.00  0.00     0.240 C 
HETATM    8  O   UNL     1      41.312 -10.130   3.212  1.00  0.00    -0.271 OA
HETATM    9  N   UNL     1      42.184 -10.231   5.295  1.00  0.00    -0.324 N 
HETATM   10  C   UNL     1      45.466 -11.434   6.486  1.00  0.00     0.027 A 
HETATM   11  C   UNL     1      45.362 -11.159   7.855  1.00  0.00     0.019 A 
HETATM   12  H   UNL     1      45.240 -12.087   4.006  1.00  0.00     0.128 HD
HETATM   13  H   UNL     1      41.427  -9.640   5.612  1.00  0.00     0.169 HD
ENDROOT
BRANCH   1  14
HETATM   14  C   UNL     1      44.023 -10.296   9.815  1.00  0.00     0.252 C 
HETATM   15  N   UNL     1      43.691  -9.000  10.134  1.00  0.00    -0.353 N 
HETATM   16  H   UNL     1      43.601  -8.294   9.417  1.00  0.00     0.163 HD
HETATM   17  O   UNL     1      44.228 -11.174  10.644  1.00  0.00    -0.268 OA
BRANCH  15  18
HETATM   18  C   UNL     1      43.568  -8.567  11.510  1.00  0.00     0.161 C 
BRANCH  18  19
HETATM   19  C   UNL     1      42.137  -8.262  11.877  1.00  0.00    -0.041 A 
HETATM   20  C   UNL     1      41.695  -8.417  13.197  1.00  0.00     0.009 A 
HETATM   21  C   UNL     1      40.386  -8.084  13.556  1.00  0.00     0.007 A 
HETATM   22  C   UNL     1      39.493  -7.586  12.601  1.00  0.00    -0.062 A 
HETATM   23  C   UNL     1      38.093  -7.201  12.977  1.00  0.00     0.048 C 
HETATM   24  C   UNL     1      39.933  -7.419  11.283  1.00  0.00     0.007 A 
HETATM   25  C   UNL     1      41.243  -7.747  10.927  1.00  0.00     0.009 A 
ENDBRANCH  18  19
ENDBRANCH  15  18
ENDBRANCH   1  14
BRANCH   6  26
HETATM   26  C   UNL     1      42.735 -13.039   3.779  1.00  0.00     0.103 C 
BRANCH  26  27
HETATM   27  S   UNL     1      43.015 -14.191   2.393  1.00  0.00    -0.162 SA
BRANCH  27  28
HETATM   28  C   UNL     1      41.936 -15.545   2.954  1.00  0.00     0.114 C 
BRANCH  28  29
HETATM   29  C   UNL     1      42.709 -16.817   3.192  1.00  0.00    -0.027 A 
HETATM   30  C   UNL     1      43.435 -17.055   4.371  1.00  0.00     0.041 A 
HETATM   31 CL   UNL     1      43.511 -15.894   5.651  1.00  0.00    -0.084 Cl
HETATM   32  C   UNL     1      44.135 -18.252   4.546  1.00  0.00     0.024 A 
HETATM   33  C   UNL     1      44.115 -19.230   3.553  1.00  0.00     0.002 A 
HETATM   34  C   UNL     1      43.390 -19.015   2.384  1.00  0.00     0.001 A 
HETATM   35  C   UNL     1      42.690 -17.821   2.205  1.00  0.00     0.009 A 
ENDBRANCH  28  29
ENDBRANCH  27  28
ENDBRANCH  26  27
ENDBRANCH   6  26
TORSDOF 7
ENDMDL
MODEL 10
REMARK VINA RESULT:      -8.8      3.372     10.538
REMARK  7 active torsions:
REMARK  status: ('A' for Active; 'I' for Inactive)
REMARK    1  A    between atoms: C_5  and  C_6 
REMARK    2  A    between atoms: C_6  and  N_7 
REMARK       I    between atoms: N_7  and  C_8 
REMARK    3  A    between atoms: C_8  and  C_9 
REMARK    4  A    between atoms: C_14  and  C_15 
REMARK    5  A    between atoms: C_15  and  S_16 
REMARK    6  A    between atoms: S_16  and  C_17 
REMARK    7  A    between atoms: C_17  and  C_18 
ROOT
HETATM    1  C   UNL     1      41.809 -13.089   4.229  1.00  0.00     0.034 A 
HETATM    2  C   UNL     1      42.048 -11.711   4.208  1.00  0.00     0.048 A 
HETATM    3  C   UNL     1      41.422 -10.891   5.144  1.00  0.00     0.057 A 
HETATM    4  C   UNL     1      40.542 -11.423   6.105  1.00  0.00     0.036 A 
HETATM    5  N   UNL     1      39.840 -10.582   6.987  1.00  0.00    -0.277 NA
HETATM    6  C   UNL     1      40.547  -9.309   7.314  1.00  0.00     0.162 C 
HETATM    7  C   UNL     1      41.140  -8.652   6.051  1.00  0.00     0.240 C 
HETATM    8  O   UNL     1      41.242  -7.436   5.904  1.00  0.00    -0.271 OA
HETATM    9  N   UNL     1      41.656  -9.511   5.109  1.00  0.00    -0.324 N 
HETATM   10  C   UNL     1      40.254 -12.791   6.065  1.00  0.00     0.027 A 
HETATM   11  C   UNL     1      40.898 -13.627   5.145  1.00  0.00     0.019 A 
HETATM   12  H   UNL     1      39.467 -11.061   7.802  1.00  0.00     0.128 HD
HETATM   13  H   UNL     1      42.142  -9.087   4.330  1.00  0.00     0.169 HD
ENDROOT
BRANCH   1  14
HETATM   14  C   UNL     1      42.529 -13.935   3.241  1.00  0.00     0.252 C 
HETATM   15  N   UNL     1      42.084 -15.230   3.110  1.00  0.00    -0.353 N 
HETATM   16  H   UNL     1      41.331 -15.581   3.684  1.00  0.00     0.163 HD
HETATM   17  O   UNL     1      43.489 -13.477   2.635  1.00  0.00    -0.268 OA
BRANCH  15  18
HETATM   18  C   UNL     1      42.744 -16.171   2.231  1.00  0.00     0.161 C 
BRANCH  18  19
HETATM   19  C   UNL     1      43.240 -17.385   2.977  1.00  0.00    -0.041 A 
HETATM   20  C   UNL     1      43.609 -17.287   4.325  1.00  0.00     0.009 A 
HETATM   21  C   UNL     1      44.016 -18.418   5.038  1.00  0.00     0.007 A 
HETATM   22  C   UNL     1      44.061 -19.670   4.418  1.00  0.00    -0.062 A 
HETATM   23  C   UNL     1      44.471 -20.897   5.178  1.00  0.00     0.048 C 
HETATM   24  C   UNL     1      43.682 -19.776   3.075  1.00  0.00     0.007 A 
HETATM   25  C   UNL     1      43.269 -18.646   2.364  1.00  0.00     0.009 A 
ENDBRANCH  18  19
ENDBRANCH  15  18
ENDBRANCH   1  14
BRANCH   6  26
HETATM   26  C   UNL     1      41.658  -9.599   8.346  1.00  0.00     0.103 C 
BRANCH  26  27
HETATM   27  S   UNL     1      41.719  -8.417   9.733  1.00  0.00    -0.162 SA
BRANCH  27  28
HETATM   28  C   UNL     1      42.323  -9.554  11.020  1.00  0.00     0.114 C 
BRANCH  28  29
HETATM   29  C   UNL     1      42.275  -8.927  12.390  1.00  0.00    -0.027 A 
HETATM   30  C   UNL     1      41.311  -9.273  13.351  1.00  0.00     0.041 A 
HETATM   31 CL   UNL     1      40.082 -10.448  13.034  1.00  0.00    -0.084 Cl
HETATM   32  C   UNL     1      41.309  -8.664  14.610  1.00  0.00     0.024 A 
HETATM   33  C   UNL     1      42.272  -7.709  14.929  1.00  0.00     0.002 A 
HETATM   34  C   UNL     1      43.243  -7.364  13.993  1.00  0.00     0.001 A 
HETATM   35  C   UNL     1      43.247  -7.969  12.735  1.00  0.00     0.009 A 
ENDBRANCH  28  29
ENDBRANCH  27  28
ENDBRANCH  26  27
ENDBRANCH   6  26
TORSDOF 7
ENDMDL
