MODEL 1
REMARK VINA RESULT:      -7.8      0.000      0.000
REMARK  6 active torsions:
REMARK  status: ('A' for Active; 'I' for Inactive)
REMARK    1  A    between atoms: C_2  and  O_3 
REMARK    2  A    between atoms: O_3  and  C_4 
REMARK    3  A    between atoms: C_7  and  N_8 
REMARK    4  A    between atoms: N_8  and  C_9 
REMARK    5  A    between atoms: C_9  and  C_10 
REMARK    6  A    between atoms: C_17  and  O_18 
ROOT
HETATM    1  C   UNL     1      42.916 -14.216   4.685  1.00  0.00     0.024 A 
HETATM    2  C   UNL     1      43.298 -14.832   5.995  1.00  0.00     0.253 A 
HETATM    3  O   UNL     1      43.351 -14.169   7.026  1.00  0.00    -0.268 OA
HETATM    4  N   UNL     1      43.590 -16.170   5.999  1.00  0.00    -0.322 N 
HETATM    5  C   UNL     1      43.579 -16.972   4.853  1.00  0.00     0.048 A 
HETATM    6  C   UNL     1      43.242 -16.399   3.624  1.00  0.00    -0.009 A 
HETATM    7  C   UNL     1      43.910 -18.323   4.941  1.00  0.00     0.067 A 
HETATM    8  C   UNL     1      43.915 -19.119   3.793  1.00  0.00     0.070 A 
HETATM    9  C   UNL     1      43.580 -18.551   2.561  1.00  0.00     0.038 A 
HETATM   10  C   UNL     1      43.242 -17.194   2.477  1.00  0.00     0.016 A 
HETATM   11  C   UNL     1      42.900 -14.977   3.574  1.00  0.00     0.027 A 
HETATM   12  H   UNL     1      43.844 -16.566   6.895  1.00  0.00     0.169 HD
ENDROOT
BRANCH   1  13
HETATM   13  C   UNL     1      42.603 -12.744   4.756  1.00  0.00     0.136 C 
BRANCH  13  14
HETATM   14  N   UNL     1      43.838 -11.954   4.726  1.00  0.00    -0.289 NA
HETATM   15  H   UNL     1      43.857 -11.343   3.912  1.00  0.00     0.128 HD
BRANCH  14  16
HETATM   16  C   UNL     1      44.213 -11.241   5.875  1.00  0.00     0.008 A 
HETATM   17  C   UNL     1      43.318 -10.521   6.670  1.00  0.00     0.026 A 
HETATM   18  C   UNL     1      43.740  -9.902   7.854  1.00  0.00     0.038 A 
HETATM   19  C   UNL     1      45.060 -10.013   8.289  1.00  0.00     0.068 A 
HETATM   20  C   UNL     1      45.954 -10.760   7.530  1.00  0.00     0.038 A 
HETATM   21  C   UNL     1      45.526 -11.379   6.347  1.00  0.00     0.026 A 
BRANCH  19  22
HETATM   22  O   UNL     1      45.335  -9.366   9.460  1.00  0.00    -0.352 OA
BRANCH  22  23
HETATM   23  C   UNL     1      44.862  -9.970  10.662  1.00  0.00     0.171 C 
HETATM   24  C   UNL     1      43.944  -8.979  11.354  1.00  0.00     0.034 C 
ENDBRANCH  22  23
ENDBRANCH  19  22
ENDBRANCH  14  16
ENDBRANCH  13  14
ENDBRANCH   1  13
BRANCH   8  25
HETATM   25  O   UNL     1      44.263 -20.425   4.007  1.00  0.00    -0.356 OA
HETATM   26  C   UNL     1      44.059 -20.941   5.316  1.00  0.00     0.210 C 
ENDBRANCH   8  25
TORSDOF 6
ENDMDL
MODEL 2
REMARK VINA RESULT:      -7.6      1.600      8.235
REMARK  6 active torsions:
REMARK  status: ('A' for Active; 'I' for Inactive)
REMARK    1  A    between atoms: C_2  and  O_3 
REMARK    2  A    between atoms: O_3  and  C_4 
REMARK    3  A    between atoms: C_7  and  N_8 
REMARK    4  A    between atoms: N_8  and  C_9 
REMARK    5  A    between atoms: C_9  and  C_10 
REMARK    6  A    between atoms: C_17  and  O_18 
ROOT
HETATM    1  C   UNL     1      42.261 -12.556   4.807  1.00  0.00     0.024 A 
HETATM    2  C   UNL     1      41.344 -11.989   5.846  1.00  0.00     0.253 A 
HETATM    3  O   UNL     1      40.125 -12.106   5.761  1.00  0.00    -0.268 OA
HETATM    4  N   UNL     1      41.919 -11.329   6.899  1.00  0.00    -0.322 N 
HETATM    5  C   UNL     1      43.297 -11.136   7.036  1.00  0.00     0.048 A 
HETATM    6  C   UNL     1      44.157 -11.646   6.060  1.00  0.00    -0.009 A 
HETATM    7  C   UNL     1      43.800 -10.433   8.130  1.00  0.00     0.067 A 
HETATM    8  C   UNL     1      45.176 -10.226   8.257  1.00  0.00     0.070 A 
HETATM    9  C   UNL     1      46.040 -10.733   7.283  1.00  0.00     0.038 A 
HETATM   10  C   UNL     1      45.532 -11.443   6.187  1.00  0.00     0.016 A 
HETATM   11  C   UNL     1      43.590 -12.377   4.927  1.00  0.00     0.027 A 
HETATM   12  H   UNL     1      41.282 -10.956   7.590  1.00  0.00     0.169 HD
ENDROOT
BRANCH   1  13
HETATM   13  C   UNL     1      41.560 -13.272   3.681  1.00  0.00     0.136 C 
BRANCH  13  14
HETATM   14  N   UNL     1      41.087 -14.588   4.126  1.00  0.00    -0.289 NA
HETATM   15  H   UNL     1      40.114 -14.729   3.861  1.00  0.00     0.128 HD
BRANCH  14  16
HETATM   16  C   UNL     1      41.847 -15.723   3.807  1.00  0.00     0.008 A 
HETATM   17  C   UNL     1      41.819 -16.353   2.560  1.00  0.00     0.026 A 
HETATM   18  C   UNL     1      42.667 -17.431   2.276  1.00  0.00     0.038 A 
HETATM   19  C   UNL     1      43.585 -17.888   3.221  1.00  0.00     0.068 A 
HETATM   20  C   UNL     1      43.653 -17.246   4.453  1.00  0.00     0.038 A 
HETATM   21  C   UNL     1      42.804 -16.166   4.731  1.00  0.00     0.026 A 
BRANCH  19  22
HETATM   22  O   UNL     1      44.353 -18.942   2.813  1.00  0.00    -0.352 OA
BRANCH  22  23
HETATM   23  C   UNL     1      43.697 -20.196   2.644  1.00  0.00     0.171 C 
HETATM   24  C   UNL     1      43.840 -20.977   3.938  1.00  0.00     0.034 C 
ENDBRANCH  22  23
ENDBRANCH  19  22
ENDBRANCH  14  16
ENDBRANCH  13  14
ENDBRANCH   1  13
BRANCH   8  25
HETATM   25  O   UNL     1      45.545  -9.518   9.368  1.00  0.00    -0.356 OA
HETATM   26  C   UNL     1      44.833  -9.786  10.570  1.00  0.00     0.210 C 
ENDBRANCH   8  25
TORSDOF 6
ENDMDL
MODEL 3
REMARK VINA RESULT:      -7.6      1.784      2.265
REMARK  6 active torsions:
REMARK  status: ('A' for Active; 'I' for Inactive)
REMARK    1  A    between atoms: C_2  and  O_3 
REMARK    2  A    between atoms: O_3  and  C_4 
REMARK    3  A    between atoms: C_7  and  N_8 
REMARK    4  A    between atoms: N_8  and  C_9 
REMARK    5  A    between atoms: C_9  and  C_10 
REMARK    6  A    between atoms: C_17  and  O_18 
ROOT
HETATM    1  C   UNL     1      42.596 -13.808   3.523  1.00  0.00     0.024 A 
HETATM    2  C   UNL     1      42.363 -14.322   2.136  1.00  0.00     0.253 A 
HETATM    3  O   UNL     1      41.932 -13.596   1.245  1.00  0.00    -0.268 OA
HETATM    4  N   UNL     1      42.648 -15.640   1.899  1.00  0.00    -0.322 N 
HETATM    5  C   UNL     1      43.110 -16.524   2.878  1.00  0.00     0.048 A 
HETATM    6  C   UNL     1      43.312 -16.055   4.179  1.00  0.00    -0.009 A 
HETATM    7  C   UNL     1      43.356 -17.858   2.557  1.00  0.00     0.067 A 
HETATM    8  C   UNL     1      43.802 -18.745   3.541  1.00  0.00     0.070 A 
HETATM    9  C   UNL     1      44.005 -18.281   4.843  1.00  0.00     0.038 A 
HETATM   10  C   UNL     1      43.762 -16.938   5.162  1.00  0.00     0.016 A 
HETATM   11  C   UNL     1      43.043 -14.648   4.475  1.00  0.00     0.027 A 
HETATM   12  H   UNL     1      42.484 -15.966   0.955  1.00  0.00     0.169 HD
ENDROOT
BRANCH   1  13
HETATM   13  C   UNL     1      42.268 -12.349   3.711  1.00  0.00     0.136 C 
BRANCH  13  14
HETATM   14  N   UNL     1      43.490 -11.573   3.948  1.00  0.00    -0.289 NA
HETATM   15  H   UNL     1      43.490 -10.720   3.393  1.00  0.00     0.128 HD
BRANCH  14  16
HETATM   16  C   UNL     1      43.866 -11.292   5.270  1.00  0.00     0.008 A 
HETATM   17  C   UNL     1      42.961 -10.989   6.289  1.00  0.00     0.026 A 
HETATM   18  C   UNL     1      43.393 -10.803   7.609  1.00  0.00     0.038 A 
HETATM   19  C   UNL     1      44.737 -10.945   7.948  1.00  0.00     0.068 A 
HETATM   20  C   UNL     1      45.647 -11.287   6.953  1.00  0.00     0.038 A 
HETATM   21  C   UNL     1      45.209 -11.474   5.634  1.00  0.00     0.026 A 
BRANCH  19  22
HETATM   22  O   UNL     1      45.021 -10.741   9.269  1.00  0.00    -0.352 OA
BRANCH  22  23
HETATM   23  C   UNL     1      44.074  -9.994  10.029  1.00  0.00     0.171 C 
HETATM   24  C   UNL     1      43.827 -10.737  11.330  1.00  0.00     0.034 C 
ENDBRANCH  22  23
ENDBRANCH  19  22
ENDBRANCH  14  16
ENDBRANCH  13  14
ENDBRANCH   1  13
BRANCH   8  25
HETATM   25  O   UNL     1      44.001 -20.026   3.105  1.00  0.00    -0.356 OA
HETATM   26  C   UNL     1      43.479 -20.361   1.825  1.00  0.00     0.210 C 
ENDBRANCH   8  25
TORSDOF 6
ENDMDL
MODEL 4
REMARK VINA RESULT:      -7.5      4.457      7.497
REMARK  6 active torsions:
REMARK  status: ('A' for Active; 'I' for Inactive)
REMARK    1  A    between atoms: C_2  and  O_3 
REMARK    2  A    between atoms: O_3  and  C_4 
REMARK    3  A    between atoms: C_7  and  N_8 
REMARK    4  A    between atoms: N_8  and  C_9 
REMARK    5  A    between atoms: C_9  and  C_10 
REMARK    6  A    between atoms: C_17  and  O_18 
ROOT
HETATM    1  C   UNL     1      42.778 -14.124   2.942  1.00  0.00     0.024 A 
HETATM    2  C   UNL     1      42.919 -14.154   4.433  1.00  0.00     0.253 A 
HETATM    3  O   UNL     1      42.777 -13.143   5.113  1.00  0.00    -0.268 OA
HETATM    4  N   UNL     1      43.218 -15.359   5.011  1.00  0.00    -0.322 N 
HETATM    5  C   UNL     1      43.423 -16.538   4.289  1.00  0.00     0.048 A 
HETATM    6  C   UNL     1      43.311 -16.513   2.897  1.00  0.00    -0.009 A 
HETATM    7  C   UNL     1      43.745 -17.720   4.956  1.00  0.00     0.067 A 
HETATM    8  C   UNL     1      43.966 -18.895   4.232  1.00  0.00     0.070 A 
HETATM    9  C   UNL     1      43.856 -18.875   2.839  1.00  0.00     0.038 A 
HETATM   10  C   UNL     1      43.528 -17.687   2.173  1.00  0.00     0.016 A 
HETATM   11  C   UNL     1      42.972 -15.253   2.235  1.00  0.00     0.027 A 
HETATM   12  H   UNL     1      43.307 -15.357   6.019  1.00  0.00     0.169 HD
ENDROOT
BRANCH   1  13
HETATM   13  C   UNL     1      42.443 -12.769   2.375  1.00  0.00     0.136 C 
BRANCH  13  14
HETATM   14  N   UNL     1      41.039 -12.721   1.953  1.00  0.00    -0.289 NA
HETATM   15  H   UNL     1      40.625 -11.819   2.180  1.00  0.00     0.128 HD
BRANCH  14  16
HETATM   16  C   UNL     1      40.715 -13.086   0.638  1.00  0.00     0.008 A 
HETATM   17  C   UNL     1      40.075 -14.280   0.297  1.00  0.00     0.026 A 
HETATM   18  C   UNL     1      39.702 -14.548  -1.027  1.00  0.00     0.038 A 
HETATM   19  C   UNL     1      39.932 -13.616  -2.037  1.00  0.00     0.068 A 
HETATM   20  C   UNL     1      40.533 -12.405  -1.708  1.00  0.00     0.038 A 
HETATM   21  C   UNL     1      40.902 -12.142  -0.382  1.00  0.00     0.026 A 
BRANCH  19  22
HETATM   22  O   UNL     1      39.514 -14.002  -3.280  1.00  0.00    -0.352 OA
BRANCH  22  23
HETATM   23  C   UNL     1      38.189 -14.516  -3.389  1.00  0.00     0.171 C 
HETATM   24  C   UNL     1      37.225 -13.406  -3.011  1.00  0.00     0.034 C 
ENDBRANCH  22  23
ENDBRANCH  19  22
ENDBRANCH  14  16
ENDBRANCH  13  14
ENDBRANCH   1  13
BRANCH   8  25
HETATM   25  O   UNL     1      44.280 -19.985   4.997  1.00  0.00    -0.356 OA
HETATM   26  C   UNL     1      43.572 -20.139   6.221  1.00  0.00     0.210 C 
ENDBRANCH   8  25
TORSDOF 6
ENDMDL
MODEL 5
REMARK VINA RESULT:      -7.3      5.329      7.940
REMARK  6 active torsions:
REMARK  status: ('A' for Active; 'I' for Inactive)
REMARK    1  A    between atoms: C_2  and  O_3 
REMARK    2  A    between atoms: O_3  and  C_4 
REMARK    3  A    between atoms: C_7  and  N_8 
REMARK    4  A    between atoms: N_8  and  C_9 
REMARK    5  A    between atoms: C_9  and  C_10 
REMARK    6  A    between atoms: C_17  and  O_18 
ROOT
HETATM    1  C   UNL     1      42.110 -14.844   2.124  1.00  0.00     0.024 A 
HETATM    2  C   UNL     1      42.587 -14.501   3.502  1.00  0.00     0.253 A 
HETATM    3  O   UNL     1      42.482 -13.365   3.954  1.00  0.00    -0.268 OA
HETATM    4  N   UNL     1      43.149 -15.508   4.241  1.00  0.00    -0.322 N 
HETATM    5  C   UNL     1      43.324 -16.812   3.771  1.00  0.00     0.048 A 
HETATM    6  C   UNL     1      42.899 -17.134   2.479  1.00  0.00    -0.009 A 
HETATM    7  C   UNL     1      43.926 -17.773   4.582  1.00  0.00     0.067 A 
HETATM    8  C   UNL     1      44.117 -19.073   4.105  1.00  0.00     0.070 A 
HETATM    9  C   UNL     1      43.694 -19.400   2.813  1.00  0.00     0.038 A 
HETATM   10  C   UNL     1      43.085 -18.433   2.003  1.00  0.00     0.016 A 
HETATM   11  C   UNL     1      42.273 -16.097   1.660  1.00  0.00     0.027 A 
HETATM   12  H   UNL     1      43.462 -15.254   5.169  1.00  0.00     0.169 HD
ENDROOT
BRANCH   1  13
HETATM   13  C   UNL     1      41.498 -13.691   1.371  1.00  0.00     0.136 C 
BRANCH  13  14
HETATM   14  N   UNL     1      41.280 -14.053  -0.034  1.00  0.00    -0.289 NA
HETATM   15  H   UNL     1      41.386 -15.057  -0.169  1.00  0.00     0.128 HD
BRANCH  14  16
HETATM   16  C   UNL     1      40.119 -13.597  -0.677  1.00  0.00     0.008 A 
HETATM   17  C   UNL     1      39.261 -12.634  -0.142  1.00  0.00     0.026 A 
HETATM   18  C   UNL     1      38.164 -12.158  -0.872  1.00  0.00     0.038 A 
HETATM   19  C   UNL     1      37.916 -12.610  -2.167  1.00  0.00     0.068 A 
HETATM   20  C   UNL     1      38.784 -13.540  -2.730  1.00  0.00     0.038 A 
HETATM   21  C   UNL     1      39.881 -14.011  -1.996  1.00  0.00     0.026 A 
BRANCH  19  22
HETATM   22  O   UNL     1      36.818 -12.060  -2.767  1.00  0.00    -0.352 OA
BRANCH  22  23
HETATM   23  C   UNL     1      36.566 -10.680  -2.519  1.00  0.00     0.171 C 
HETATM   24  C   UNL     1      37.332  -9.871  -3.550  1.00  0.00     0.034 C 
ENDBRANCH  22  23
ENDBRANCH  19  22
ENDBRANCH  14  16
ENDBRANCH  13  14
ENDBRANCH   1  13
BRANCH   8  25
HETATM   25  O   UNL     1      44.722 -19.922   4.990  1.00  0.00    -0.356 OA
HETATM   26  C   UNL     1      43.918 -20.955   5.547  1.00  0.00     0.210 C 
ENDBRANCH   8  25
TORSDOF 6
ENDMDL
MODEL 6
REMARK VINA RESULT:      -7.3      2.047      8.446
REMARK  6 active torsions:
REMARK  status: ('A' for Active; 'I' for Inactive)
REMARK    1  A    between atoms: C_2  and  O_3 
REMARK    2  A    between atoms: O_3  and  C_4 
REMARK    3  A    between atoms: C_7  and  N_8 
REMARK    4  A    between atoms: N_8  and  C_9 
REMARK    5  A    between atoms: C_9  and  C_10 
REMARK    6  A    between atoms: C_17  and  O_18 
ROOT
HETATM    1  C   UNL     1      43.445 -11.370   4.511  1.00  0.00     0.024 A 
HETATM    2  C   UNL     1      42.222 -10.637   4.969  1.00  0.00     0.253 A 
HETATM    3  O   UNL     1      41.255 -10.476   4.231  1.00  0.00    -0.268 OA
HETATM    4  N   UNL     1      42.224 -10.150   6.249  1.00  0.00    -0.322 N 
HETATM    5  C   UNL     1      43.306 -10.274   7.126  1.00  0.00     0.048 A 
HETATM    6  C   UNL     1      44.457 -10.940   6.698  1.00  0.00    -0.009 A 
HETATM    7  C   UNL     1      43.234  -9.728   8.407  1.00  0.00     0.067 A 
HETATM    8  C   UNL     1      44.322  -9.838   9.277  1.00  0.00     0.070 A 
HETATM    9  C   UNL     1      45.476 -10.503   8.854  1.00  0.00     0.038 A 
HETATM   10  C   UNL     1      45.543 -11.054   7.568  1.00  0.00     0.016 A 
HETATM   11  C   UNL     1      44.493 -11.498   5.346  1.00  0.00     0.027 A 
HETATM   12  H   UNL     1      41.388  -9.659   6.538  1.00  0.00     0.169 HD
ENDROOT
BRANCH   1  13
HETATM   13  C   UNL     1      43.370 -11.884   3.096  1.00  0.00     0.136 C 
BRANCH  13  14
HETATM   14  N   UNL     1      42.291 -12.869   2.964  1.00  0.00    -0.289 NA
HETATM   15  H   UNL     1      41.677 -12.629   2.188  1.00  0.00     0.128 HD
BRANCH  14  16
HETATM   16  C   UNL     1      42.623 -14.232   2.916  1.00  0.00     0.008 A 
HETATM   17  C   UNL     1      42.911 -14.922   1.737  1.00  0.00     0.026 A 
HETATM   18  C   UNL     1      43.319 -16.262   1.765  1.00  0.00     0.038 A 
HETATM   19  C   UNL     1      43.479 -16.936   2.974  1.00  0.00     0.068 A 
HETATM   20  C   UNL     1      43.235 -16.252   4.161  1.00  0.00     0.038 A 
HETATM   21  C   UNL     1      42.828 -14.910   4.127  1.00  0.00     0.026 A 
BRANCH  19  22
HETATM   22  O   UNL     1      43.886 -18.236   2.859  1.00  0.00    -0.352 OA
BRANCH  22  23
HETATM   23  C   UNL     1      42.996 -19.139   2.208  1.00  0.00     0.171 C 
HETATM   24  C   UNL     1      43.748 -20.433   1.952  1.00  0.00     0.034 C 
ENDBRANCH  22  23
ENDBRANCH  19  22
ENDBRANCH  14  16
ENDBRANCH  13  14
ENDBRANCH   1  13
BRANCH   8  25
HETATM   25  O   UNL     1      44.133  -9.259  10.502  1.00  0.00    -0.356 OA
HETATM   26  C   UNL     1      43.503 -10.052  11.501  1.00  0.00     0.210 C 
ENDBRANCH   8  25
TORSDOF 6
ENDMDL
MODEL 7
REMARK VINA RESULT:      -7.0      2.074      2.846
REMARK  6 active torsions:
REMARK  status: ('A' for Active; 'I' for Inactive)
REMARK    1  A    between atoms: C_2  and  O_3 
REMARK    2  A    between atoms: O_3  and  C_4 
REMARK    3  A    between atoms: C_7  and  N_8 
REMARK    4  A    between atoms: N_8  and  C_9 
REMARK    5  A    between atoms: C_9  and  C_10 
REMARK    6  A    between atoms: C_17  and  O_18 
ROOT
HETATM    1  C   UNL     1      40.731 -14.729   3.883  1.00  0.00     0.024 A 
HETATM    2  C   UNL     1      40.863 -15.049   5.340  1.00  0.00     0.253 A 
HETATM    3  O   UNL     1      40.279 -14.394   6.198  1.00  0.00    -0.268 OA
HETATM    4  N   UNL     1      41.667 -16.104   5.681  1.00  0.00    -0.322 N 
HETATM    5  C   UNL     1      42.382 -16.868   4.754  1.00  0.00     0.048 A 
HETATM    6  C   UNL     1      42.277 -16.562   3.394  1.00  0.00    -0.009 A 
HETATM    7  C   UNL     1      43.196 -17.913   5.187  1.00  0.00     0.067 A 
HETATM    8  C   UNL     1      43.924 -18.665   4.261  1.00  0.00     0.070 A 
HETATM    9  C   UNL     1      43.823 -18.363   2.901  1.00  0.00     0.038 A 
HETATM   10  C   UNL     1      43.001 -17.315   2.468  1.00  0.00     0.016 A 
HETATM   11  C   UNL     1      41.413 -15.457   2.980  1.00  0.00     0.027 A 
HETATM   12  H   UNL     1      41.741 -16.303   6.670  1.00  0.00     0.169 HD
ENDROOT
BRANCH   1  13
HETATM   13  C   UNL     1      39.827 -13.561   3.581  1.00  0.00     0.136 C 
BRANCH  13  14
HETATM   14  N   UNL     1      40.613 -12.408   3.127  1.00  0.00    -0.289 NA
HETATM   15  H   UNL     1      40.032 -11.574   3.074  1.00  0.00     0.128 HD
BRANCH  14  16
HETATM   16  C   UNL     1      41.822 -12.116   3.777  1.00  0.00     0.008 A 
HETATM   17  C   UNL     1      43.075 -12.213   3.168  1.00  0.00     0.026 A 
HETATM   18  C   UNL     1      44.239 -11.825   3.844  1.00  0.00     0.038 A 
HETATM   19  C   UNL     1      44.176 -11.301   5.134  1.00  0.00     0.068 A 
HETATM   20  C   UNL     1      42.932 -11.160   5.740  1.00  0.00     0.038 A 
HETATM   21  C   UNL     1      41.770 -11.549   5.058  1.00  0.00     0.026 A 
BRANCH  19  22
HETATM   22  O   UNL     1      45.384 -10.958   5.674  1.00  0.00    -0.352 OA
BRANCH  22  23
HETATM   23  C   UNL     1      45.586 -11.256   7.054  1.00  0.00     0.171 C 
HETATM   24  C   UNL     1      46.030  -9.981   7.747  1.00  0.00     0.034 C 
ENDBRANCH  22  23
ENDBRANCH  19  22
ENDBRANCH  14  16
ENDBRANCH  13  14
ENDBRANCH   1  13
BRANCH   8  25
HETATM   25  O   UNL     1      44.689 -19.658   4.809  1.00  0.00    -0.356 OA
HETATM   26  C   UNL     1      44.053 -20.909   5.041  1.00  0.00     0.210 C 
ENDBRANCH   8  25
TORSDOF 6
ENDMDL
MODEL 8
REMARK VINA RESULT:      -6.8      5.703      9.022
REMARK  6 active torsions:
REMARK  status: ('A' for Active; 'I' for Inactive)
REMARK    1  A    between atoms: C_2  and  O_3 
REMARK    2  A    between atoms: O_3  and  C_4 
REMARK    3  A    between atoms: C_7  and  N_8 
REMARK    4  A    between atoms: N_8  and  C_9 
REMARK    5  A    between atoms: C_9  and  C_10 
REMARK    6  A    between atoms: C_17  and  O_18 
ROOT
HETATM    1  C   UNL     1      40.889 -13.542   0.696  1.00  0.00     0.024 A 
HETATM    2  C   UNL     1      40.078 -12.411   1.250  1.00  0.00     0.253 A 
HETATM    3  O   UNL     1      40.350 -11.892   2.328  1.00  0.00    -0.268 OA
HETATM    4  N   UNL     1      39.014 -11.978   0.504  1.00  0.00    -0.322 N 
HETATM    5  C   UNL     1      38.634 -12.549  -0.714  1.00  0.00     0.048 A 
HETATM    6  C   UNL     1      39.376 -13.616  -1.227  1.00  0.00    -0.009 A 
HETATM    7  C   UNL     1      37.523 -12.061  -1.399  1.00  0.00     0.067 A 
HETATM    8  C   UNL     1      37.134 -12.643  -2.609  1.00  0.00     0.070 A 
HETATM    9  C   UNL     1      37.872 -13.711  -3.126  1.00  0.00     0.038 A 
HETATM   10  C   UNL     1      38.991 -14.196  -2.437  1.00  0.00     0.016 A 
HETATM   11  C   UNL     1      40.535 -14.099  -0.477  1.00  0.00     0.027 A 
HETATM   12  H   UNL     1      38.481 -11.213   0.897  1.00  0.00     0.169 HD
ENDROOT
BRANCH   1  13
HETATM   13  C   UNL     1      42.047 -13.962   1.564  1.00  0.00     0.136 C 
BRANCH  13  14
HETATM   14  N   UNL     1      41.579 -14.802   2.673  1.00  0.00    -0.289 NA
HETATM   15  H   UNL     1      40.635 -15.138   2.497  1.00  0.00     0.128 HD
BRANCH  14  16
HETATM   16  C   UNL     1      42.395 -15.854   3.114  1.00  0.00     0.008 A 
HETATM   17  C   UNL     1      42.984 -15.905   4.380  1.00  0.00     0.026 A 
HETATM   18  C   UNL     1      43.718 -17.026   4.791  1.00  0.00     0.038 A 
HETATM   19  C   UNL     1      43.857 -18.135   3.959  1.00  0.00     0.068 A 
HETATM   20  C   UNL     1      43.243 -18.117   2.711  1.00  0.00     0.038 A 
HETATM   21  C   UNL     1      42.508 -16.994   2.305  1.00  0.00     0.026 A 
BRANCH  19  22
HETATM   22  O   UNL     1      44.592 -19.159   4.485  1.00  0.00    -0.352 OA
BRANCH  22  23
HETATM   23  C   UNL     1      44.004 -19.899   5.553  1.00  0.00     0.171 C 
HETATM   24  C   UNL     1      43.753 -21.313   5.059  1.00  0.00     0.034 C 
ENDBRANCH  22  23
ENDBRANCH  19  22
ENDBRANCH  14  16
ENDBRANCH  13  14
ENDBRANCH   1  13
BRANCH   8  25
HETATM   25  O   UNL     1      36.026 -12.080  -3.182  1.00  0.00    -0.356 OA
HETATM   26  C   UNL     1      36.025 -10.666  -3.331  1.00  0.00     0.210 C 
ENDBRANCH   8  25
TORSDOF 6
ENDMDL
MODEL 9
REMARK VINA RESULT:      -6.7      4.532      5.677
REMARK  6 active torsions:
REMARK  status: ('A' for Active; 'I' for Inactive)
REMARK    1  A    between atoms: C_2  and  O_3 
REMARK    2  A    between atoms: O_3  and  C_4 
REMARK    3  A    between atoms: C_7  and  N_8 
REMARK    4  A    between atoms: N_8  and  C_9 
REMARK    5  A    between atoms: C_9  and  C_10 
REMARK    6  A    between atoms: C_17  and  O_18 
ROOT
HETATM    1  C   UNL     1      40.913 -14.043   2.729  1.00  0.00     0.024 A 
HETATM    2  C   UNL     1      40.160 -15.271   2.320  1.00  0.00     0.253 A 
HETATM    3  O   UNL     1      39.923 -16.175   3.115  1.00  0.00    -0.268 OA
HETATM    4  N   UNL     1      39.745 -15.349   1.017  1.00  0.00    -0.322 N 
HETATM    5  C   UNL     1      40.011 -14.368   0.057  1.00  0.00     0.048 A 
HETATM    6  C   UNL     1      40.730 -13.228   0.427  1.00  0.00    -0.009 A 
HETATM    7  C   UNL     1      39.571 -14.536  -1.255  1.00  0.00     0.067 A 
HETATM    8  C   UNL     1      39.851 -13.563  -2.219  1.00  0.00     0.070 A 
HETATM    9  C   UNL     1      40.570 -12.422  -1.853  1.00  0.00     0.038 A 
HETATM   10  C   UNL     1      41.007 -12.254  -0.533  1.00  0.00     0.016 A 
HETATM   11  C   UNL     1      41.174 -13.090   1.814  1.00  0.00     0.027 A 
HETATM   12  H   UNL     1      39.238 -16.186   0.763  1.00  0.00     0.169 HD
ENDROOT
BRANCH   1  13
HETATM   13  C   UNL     1      41.332 -14.022   4.176  1.00  0.00     0.136 C 
BRANCH  13  14
HETATM   14  N   UNL     1      42.733 -13.602   4.299  1.00  0.00    -0.289 NA
HETATM   15  H   UNL     1      43.094 -13.284   3.402  1.00  0.00     0.128 HD
BRANCH  14  16
HETATM   16  C   UNL     1      43.080 -12.695   5.312  1.00  0.00     0.008 A 
HETATM   17  C   UNL     1      44.105 -12.915   6.234  1.00  0.00     0.026 A 
HETATM   18  C   UNL     1      44.460 -11.932   7.168  1.00  0.00     0.038 A 
HETATM   19  C   UNL     1      43.819 -10.694   7.182  1.00  0.00     0.068 A 
HETATM   20  C   UNL     1      42.823 -10.444   6.244  1.00  0.00     0.038 A 
HETATM   21  C   UNL     1      42.473 -11.431   5.311  1.00  0.00     0.026 A 
BRANCH  19  22
HETATM   22  O   UNL     1      44.265  -9.827   8.139  1.00  0.00    -0.352 OA
BRANCH  22  23
HETATM   23  C   UNL     1      45.393 -10.235   8.910  1.00  0.00     0.171 C 
HETATM   24  C   UNL     1      45.070  -9.997  10.374  1.00  0.00     0.034 C 
ENDBRANCH  22  23
ENDBRANCH  19  22
ENDBRANCH  14  16
ENDBRANCH  13  14
ENDBRANCH   1  13
BRANCH   8  25
HETATM   25  O   UNL     1      39.372 -13.843  -3.469  1.00  0.00    -0.356 OA
HETATM   26  C   UNL     1      38.248 -14.711  -3.549  1.00  0.00     0.210 C 
ENDBRANCH   8  25
TORSDOF 6
ENDMDL
MODEL 10
REMARK VINA RESULT:      -6.7      2.677      9.552
REMARK  6 active torsions:
REMARK  status: ('A' for Active; 'I' for Inactive)
REMARK    1  A    between atoms: C_2  and  O_3 
REMARK    2  A    between atoms: O_3  and  C_4 
REMARK    3  A    between atoms: C_7  and  N_8 
REMARK    4  A    between atoms: N_8  and  C_9 
REMARK    5  A    between atoms: C_9  and  C_10 
REMARK    6  A    between atoms: C_17  and  O_18 
ROOT
HETATM    1  C   UNL     1      44.722  -9.994   9.330  1.00  0.00     0.024 A 
HETATM    2  C   UNL     1      44.630  -8.512   9.140  1.00  0.00     0.253 A 
HETATM    3  O   UNL     1      45.164  -7.951   8.188  1.00  0.00    -0.268 OA
HETATM    4  N   UNL     1      43.926  -7.801  10.075  1.00  0.00    -0.322 N 
HETATM    5  C   UNL     1      43.323  -8.376  11.197  1.00  0.00     0.048 A 
HETATM    6  C   UNL     1      43.421  -9.757  11.390  1.00  0.00    -0.009 A 
HETATM    7  C   UNL     1      42.642  -7.576  12.113  1.00  0.00     0.067 A 
HETATM    8  C   UNL     1      42.054  -8.150  13.244  1.00  0.00     0.070 A 
HETATM    9  C   UNL     1      42.150  -9.530  13.442  1.00  0.00     0.038 A 
HETATM   10  C   UNL     1      42.831 -10.332  12.517  1.00  0.00     0.016 A 
HETATM   11  C   UNL     1      44.144 -10.561  10.406  1.00  0.00     0.027 A 
HETATM   12  H   UNL     1      43.876  -6.801   9.926  1.00  0.00     0.169 HD
ENDROOT
BRANCH   1  13
HETATM   13  C   UNL     1      45.505 -10.713   8.262  1.00  0.00     0.136 C 
BRANCH  13  14
HETATM   14  N   UNL     1      44.893 -10.499   6.945  1.00  0.00    -0.289 NA
HETATM   15  H   UNL     1      45.570 -10.111   6.292  1.00  0.00     0.128 HD
BRANCH  14  16
HETATM   16  C   UNL     1      44.192 -11.556   6.346  1.00  0.00     0.008 A 
HETATM   17  C   UNL     1      43.833 -11.586   4.997  1.00  0.00     0.026 A 
HETATM   18  C   UNL     1      43.209 -12.710   4.440  1.00  0.00     0.038 A 
HETATM   19  C   UNL     1      42.956 -13.843   5.210  1.00  0.00     0.068 A 
HETATM   20  C   UNL     1      43.343 -13.846   6.546  1.00  0.00     0.038 A 
HETATM   21  C   UNL     1      43.969 -12.719   7.098  1.00  0.00     0.026 A 
BRANCH  19  22
HETATM   22  O   UNL     1      42.348 -14.869   4.542  1.00  0.00    -0.352 OA
BRANCH  22  23
HETATM   23  C   UNL     1      42.945 -15.289   3.318  1.00  0.00     0.171 C 
HETATM   24  C   UNL     1      43.249 -16.773   3.432  1.00  0.00     0.034 C 
ENDBRANCH  22  23
ENDBRANCH  19  22
ENDBRANCH  14  16
ENDBRANCH  13  14
ENDBRANCH   1  13
BRANCH   8  25
HETATM   25  O   UNL     1      41.421  -7.262  14.070  1.00  0.00    -0.356 OA
HETATM   26  C   UNL     1      40.971  -7.757  15.325  1.00  0.00     0.210 C 
ENDBRANCH   8  25
TORSDOF 6
ENDMDL
