MODEL 1
REMARK VINA RESULT:      -7.7      0.000      0.000
REMARK  4 active torsions:
REMARK  status: ('A' for Active; 'I' for Inactive)
REMARK    1  A    between atoms: O_2  and  C_3 
REMARK    2  A    between atoms: C_6  and  C_7 
REMARK    3  A    between atoms: C_12  and  N_13 
REMARK    4  A    between atoms: C_15  and  C_16 
ROOT
HETATM    1  C   UNL     1      41.916 -15.005   6.664  1.00  0.00     0.135 C 
HETATM    2  N   UNL     1      42.966 -14.321   7.412  1.00  0.00    -0.214 N 
HETATM    3  C   UNL     1      43.552 -13.225   6.887  1.00  0.00     0.736 A 
HETATM    4  N   UNL     1      42.964 -12.518   5.874  1.00  0.00    -0.074 N 
HETATM    5  N   UNL     1      43.700 -11.445   5.535  1.00  0.00     0.037 NA
HETATM    6  C   UNL     1      44.733 -11.582   6.363  1.00  0.00     0.753 A 
HETATM    7  N   UNL     1      44.691 -12.662   7.195  1.00  0.00     0.131 NA
HETATM    8  C   UNL     1      41.671 -12.837   5.284  1.00  0.00     0.164 C 
HETATM    9  C   UNL     1      40.951 -13.938   6.095  1.00  0.00     0.063 C 
HETATM   10  H   UNL     1      43.526 -14.895   8.034  1.00  0.00     0.178 HD
ENDROOT
BRANCH   1  11
HETATM   11  C   UNL     1      42.459 -16.014   5.658  1.00  0.00    -0.035 A 
HETATM   12  C   UNL     1      41.715 -16.462   4.551  1.00  0.00     0.012 A 
HETATM   13  C   UNL     1      42.249 -17.370   3.627  1.00  0.00     0.037 A 
HETATM   14  C   UNL     1      43.548 -17.844   3.779  1.00  0.00     0.068 A 
HETATM   15  C   UNL     1      44.304 -17.402   4.863  1.00  0.00     0.037 A 
HETATM   16  C   UNL     1      43.774 -16.492   5.785  1.00  0.00     0.012 A 
BRANCH  14  17
HETATM   17  O   UNL     1      44.188 -18.723   2.949  1.00  0.00    -0.356 OA
HETATM   18  C   UNL     1      43.367 -19.624   2.218  1.00  0.00     0.210 C 
ENDBRANCH  14  17
ENDBRANCH   1  11
BRANCH   8  19
HETATM   19  C   UNL     1      41.723 -13.158   3.795  1.00  0.00    -0.031 A 
HETATM   20  C   UNL     1      40.666 -12.894   2.912  1.00  0.00     0.028 A 
HETATM   21  C   UNL     1      40.796 -13.165   1.548  1.00  0.00     0.011 A 
HETATM   22 BR   UNL     1      39.365 -12.774   0.376  1.00  0.00    -0.051 Br
HETATM   23  C   UNL     1      41.972 -13.713   1.042  1.00  0.00     0.019 A 
HETATM   24  C   UNL     1      43.027 -13.990   1.906  1.00  0.00     0.002 A 
HETATM   25  C   UNL     1      42.907 -13.713   3.268  1.00  0.00     0.009 A 
ENDBRANCH   8  19
BRANCH   6  26
HETATM   26  N   UNL     1      45.796 -10.785   6.410  1.00  0.00    -0.229 N 
HETATM   27  H   UNL     1      46.421 -10.911   7.195  1.00  0.00     0.174 HD
HETATM   28  H   UNL     1      45.654  -9.825   6.128  1.00  0.00     0.174 HD
ENDBRANCH   6  26
TORSDOF 4
ENDMDL
MODEL 2
REMARK VINA RESULT:      -7.3      4.032      6.245
REMARK  4 active torsions:
REMARK  status: ('A' for Active; 'I' for Inactive)
REMARK    1  A    between atoms: O_2  and  C_3 
REMARK    2  A    between atoms: C_6  and  C_7 
REMARK    3  A    between atoms: C_12  and  N_13 
REMARK    4  A    between atoms: C_15  and  C_16 
ROOT
HETATM    1  C   UNL     1      39.824 -12.220   3.122  1.00  0.00     0.135 C 
HETATM    2  N   UNL     1      39.643 -11.771   1.744  1.00  0.00    -0.214 N 
HETATM    3  C   UNL     1      39.954 -12.600   0.727  1.00  0.00     0.736 A 
HETATM    4  N   UNL     1      40.077 -13.950   0.919  1.00  0.00    -0.074 N 
HETATM    5  N   UNL     1      40.350 -14.585  -0.234  1.00  0.00     0.037 NA
HETATM    6  C   UNL     1      40.410 -13.556  -1.076  1.00  0.00     0.753 A 
HETATM    7  N   UNL     1      40.188 -12.325  -0.530  1.00  0.00     0.131 NA
HETATM    8  C   UNL     1      39.864 -14.627   2.191  1.00  0.00     0.164 C 
HETATM    9  C   UNL     1      39.271 -13.659   3.239  1.00  0.00     0.063 C 
HETATM   10  H   UNL     1      39.737 -10.774   1.577  1.00  0.00     0.178 HD
ENDROOT
BRANCH   1  11
HETATM   11  C   UNL     1      41.243 -12.008   3.638  1.00  0.00    -0.035 A 
HETATM   12  C   UNL     1      42.350 -11.865   2.782  1.00  0.00     0.012 A 
HETATM   13  C   UNL     1      43.641 -11.645   3.283  1.00  0.00     0.037 A 
HETATM   14  C   UNL     1      43.854 -11.549   4.654  1.00  0.00     0.068 A 
HETATM   15  C   UNL     1      42.766 -11.676   5.516  1.00  0.00     0.037 A 
HETATM   16  C   UNL     1      41.476 -11.892   5.018  1.00  0.00     0.012 A 
BRANCH  14  17
HETATM   17  O   UNL     1      45.056 -11.330   5.269  1.00  0.00    -0.356 OA
HETATM   18  C   UNL     1      45.119 -11.602   6.663  1.00  0.00     0.210 C 
ENDBRANCH  14  17
ENDBRANCH   1  11
BRANCH   8  19
HETATM   19  C   UNL     1      41.087 -15.369   2.717  1.00  0.00    -0.031 A 
HETATM   20  C   UNL     1      41.265 -15.701   4.069  1.00  0.00     0.028 A 
HETATM   21  C   UNL     1      42.385 -16.427   4.479  1.00  0.00     0.011 A 
HETATM   22 BR   UNL     1      42.586 -16.885   6.302  1.00  0.00    -0.051 Br
HETATM   23  C   UNL     1      43.351 -16.824   3.558  1.00  0.00     0.019 A 
HETATM   24  C   UNL     1      43.195 -16.494   2.215  1.00  0.00     0.002 A 
HETATM   25  C   UNL     1      42.073 -15.777   1.797  1.00  0.00     0.009 A 
ENDBRANCH   8  19
BRANCH   6  26
HETATM   26  N   UNL     1      40.700 -13.633  -2.371  1.00  0.00    -0.229 N 
HETATM   27  H   UNL     1      41.583 -14.062  -2.612  1.00  0.00     0.174 HD
HETATM   28  H   UNL     1      40.443 -12.837  -2.940  1.00  0.00     0.174 HD
ENDBRANCH   6  26
TORSDOF 4
ENDMDL
MODEL 3
REMARK VINA RESULT:      -7.2     15.713     17.417
REMARK  4 active torsions:
REMARK  status: ('A' for Active; 'I' for Inactive)
REMARK    1  A    between atoms: O_2  and  C_3 
REMARK    2  A    between atoms: C_6  and  C_7 
REMARK    3  A    between atoms: C_12  and  N_13 
REMARK    4  A    between atoms: C_15  and  C_16 
ROOT
HETATM    1  C   UNL     1      46.618 -28.026  -1.483  1.00  0.00     0.135 C 
HETATM    2  N   UNL     1      46.921 -28.804  -2.681  1.00  0.00    -0.214 N 
HETATM    3  C   UNL     1      46.178 -29.890  -2.976  1.00  0.00     0.736 A 
HETATM    4  N   UNL     1      44.942 -30.080  -2.421  1.00  0.00    -0.074 N 
HETATM    5  N   UNL     1      44.365 -31.202  -2.885  1.00  0.00     0.037 NA
HETATM    6  C   UNL     1      45.320 -31.656  -3.694  1.00  0.00     0.753 A 
HETATM    7  N   UNL     1      46.449 -30.894  -3.769  1.00  0.00     0.131 NA
HETATM    8  C   UNL     1      44.295 -29.153  -1.503  1.00  0.00     0.164 C 
HETATM    9  C   UNL     1      45.086 -27.828  -1.409  1.00  0.00     0.063 C 
HETATM   10  H   UNL     1      47.890 -28.806  -2.986  1.00  0.00     0.178 HD
ENDROOT
BRANCH   1  11
HETATM   11  C   UNL     1      47.279 -28.582  -0.226  1.00  0.00    -0.035 A 
HETATM   12  C   UNL     1      48.289 -29.560  -0.267  1.00  0.00     0.012 A 
HETATM   13  C   UNL     1      48.898 -30.034   0.903  1.00  0.00     0.037 A 
HETATM   14  C   UNL     1      48.521 -29.533   2.144  1.00  0.00     0.068 A 
HETATM   15  C   UNL     1      47.529 -28.555   2.202  1.00  0.00     0.037 A 
HETATM   16  C   UNL     1      46.922 -28.077   1.035  1.00  0.00     0.012 A 
BRANCH  14  17
HETATM   17  O   UNL     1      49.038 -29.903   3.354  1.00  0.00    -0.356 OA
HETATM   18  C   UNL     1      48.108 -30.331   4.342  1.00  0.00     0.210 C 
ENDBRANCH  14  17
ENDBRANCH   1  11
BRANCH   8  19
HETATM   19  C   UNL     1      43.990 -29.741  -0.130  1.00  0.00    -0.031 A 
HETATM   20  C   UNL     1      44.737 -30.779   0.448  1.00  0.00     0.028 A 
HETATM   21  C   UNL     1      44.437 -31.240   1.731  1.00  0.00     0.011 A 
HETATM   22 BR   UNL     1      45.477 -32.621   2.496  1.00  0.00    -0.051 Br
HETATM   23  C   UNL     1      43.384 -30.687   2.456  1.00  0.00     0.019 A 
HETATM   24  C   UNL     1      42.627 -29.664   1.894  1.00  0.00     0.002 A 
HETATM   25  C   UNL     1      42.928 -29.192   0.615  1.00  0.00     0.009 A 
ENDBRANCH   8  19
BRANCH   6  26
HETATM   26  N   UNL     1      45.272 -32.789  -4.387  1.00  0.00    -0.229 N 
HETATM   27  H   UNL     1      44.963 -33.612  -3.887  1.00  0.00     0.174 HD
HETATM   28  H   UNL     1      46.021 -32.948  -5.047  1.00  0.00     0.174 HD
ENDBRANCH   6  26
TORSDOF 4
ENDMDL
MODEL 4
REMARK VINA RESULT:      -7.0      6.135      8.920
REMARK  4 active torsions:
REMARK  status: ('A' for Active; 'I' for Inactive)
REMARK    1  A    between atoms: O_2  and  C_3 
REMARK    2  A    between atoms: C_6  and  C_7 
REMARK    3  A    between atoms: C_12  and  N_13 
REMARK    4  A    between atoms: C_15  and  C_16 
ROOT
HETATM    1  C   UNL     1      45.243  -9.485   9.742  1.00  0.00     0.135 C 
HETATM    2  N   UNL     1      45.337 -10.769   9.053  1.00  0.00    -0.214 N 
HETATM    3  C   UNL     1      44.460 -11.066   8.073  1.00  0.00     0.736 A 
HETATM    4  N   UNL     1      43.731 -10.090   7.449  1.00  0.00    -0.074 N 
HETATM    5  N   UNL     1      42.953 -10.605   6.481  1.00  0.00     0.037 NA
HETATM    6  C   UNL     1      43.239 -11.901   6.595  1.00  0.00     0.753 A 
HETATM    7  N   UNL     1      44.143 -12.228   7.564  1.00  0.00     0.131 NA
HETATM    8  C   UNL     1      43.835  -8.667   7.739  1.00  0.00     0.164 C 
HETATM    9  C   UNL     1      45.026  -8.381   8.681  1.00  0.00     0.063 C 
HETATM   10  H   UNL     1      45.715 -11.544   9.590  1.00  0.00     0.178 HD
ENDROOT
BRANCH   1  11
HETATM   11  C   UNL     1      44.250  -9.499  10.899  1.00  0.00    -0.035 A 
HETATM   12  C   UNL     1      43.724 -10.688  11.436  1.00  0.00     0.012 A 
HETATM   13  C   UNL     1      42.833 -10.674  12.518  1.00  0.00     0.037 A 
HETATM   14  C   UNL     1      42.455  -9.468  13.099  1.00  0.00     0.068 A 
HETATM   15  C   UNL     1      42.975  -8.281  12.587  1.00  0.00     0.037 A 
HETATM   16  C   UNL     1      43.868  -8.294  11.509  1.00  0.00     0.012 A 
BRANCH  14  17
HETATM   17  O   UNL     1      41.603  -9.317  14.158  1.00  0.00    -0.356 OA
HETATM   18  C   UNL     1      41.787  -8.161  14.965  1.00  0.00     0.210 C 
ENDBRANCH  14  17
ENDBRANCH   1  11
BRANCH   8  19
HETATM   19  C   UNL     1      42.541  -8.033   8.235  1.00  0.00    -0.031 A 
HETATM   20  C   UNL     1      41.496  -8.767   8.816  1.00  0.00     0.028 A 
HETATM   21  C   UNL     1      40.357  -8.119   9.297  1.00  0.00     0.011 A 
HETATM   22 BR   UNL     1      38.976  -9.130  10.101  1.00  0.00    -0.051 Br
HETATM   23  C   UNL     1      40.231  -6.736   9.199  1.00  0.00     0.019 A 
HETATM   24  C   UNL     1      41.253  -5.993   8.616  1.00  0.00     0.002 A 
HETATM   25  C   UNL     1      42.399  -6.634   8.142  1.00  0.00     0.009 A 
ENDBRANCH   8  19
BRANCH   6  26
HETATM   26  N   UNL     1      42.694 -12.879   5.879  1.00  0.00    -0.229 N 
HETATM   27  H   UNL     1      42.398 -13.701   6.388  1.00  0.00     0.174 HD
HETATM   28  H   UNL     1      43.108 -13.062   4.975  1.00  0.00     0.174 HD
ENDBRANCH   6  26
TORSDOF 4
ENDMDL
MODEL 5
REMARK VINA RESULT:      -7.0     15.556     17.386
REMARK  4 active torsions:
REMARK  status: ('A' for Active; 'I' for Inactive)
REMARK    1  A    between atoms: O_2  and  C_3 
REMARK    2  A    between atoms: C_6  and  C_7 
REMARK    3  A    between atoms: C_12  and  N_13 
REMARK    4  A    between atoms: C_15  and  C_16 
ROOT
HETATM    1  C   UNL     1      46.466 -27.929  -1.471  1.00  0.00     0.135 C 
HETATM    2  N   UNL     1      46.632 -28.516  -2.797  1.00  0.00    -0.214 N 
HETATM    3  C   UNL     1      45.896 -29.590  -3.148  1.00  0.00     0.736 A 
HETATM    4  N   UNL     1      44.755 -29.924  -2.470  1.00  0.00    -0.074 N 
HETATM    5  N   UNL     1      44.161 -31.001  -3.013  1.00  0.00     0.037 NA
HETATM    6  C   UNL     1      45.014 -31.285  -3.996  1.00  0.00     0.753 A 
HETATM    7  N   UNL     1      46.093 -30.458  -4.105  1.00  0.00     0.131 NA
HETATM    8  C   UNL     1      44.206 -29.170  -1.351  1.00  0.00     0.164 C 
HETATM    9  C   UNL     1      44.952 -27.829  -1.171  1.00  0.00     0.063 C 
HETATM   10  H   UNL     1      47.549 -28.421  -3.222  1.00  0.00     0.178 HD
ENDROOT
BRANCH   1  11
HETATM   11  C   UNL     1      47.312 -28.615  -0.404  1.00  0.00    -0.035 A 
HETATM   12  C   UNL     1      48.340 -29.523  -0.716  1.00  0.00     0.012 A 
HETATM   13  C   UNL     1      49.120 -30.120   0.284  1.00  0.00     0.037 A 
HETATM   14  C   UNL     1      48.900 -29.814   1.623  1.00  0.00     0.068 A 
HETATM   15  C   UNL     1      47.892 -28.908   1.950  1.00  0.00     0.037 A 
HETATM   16  C   UNL     1      47.115 -28.307   0.952  1.00  0.00     0.012 A 
BRANCH  14  17
HETATM   17  O   UNL     1      49.591 -30.319   2.689  1.00  0.00    -0.356 OA
HETATM   18  C   UNL     1      49.526 -29.577   3.901  1.00  0.00     0.210 C 
ENDBRANCH  14  17
ENDBRANCH   1  11
BRANCH   8  19
HETATM   19  C   UNL     1      44.112 -29.959  -0.050  1.00  0.00    -0.031 A 
HETATM   20  C   UNL     1      43.152 -29.701   0.940  1.00  0.00     0.028 A 
HETATM   21  C   UNL     1      43.088 -30.493   2.088  1.00  0.00     0.011 A 
HETATM   22 BR   UNL     1      41.767 -30.141   3.394  1.00  0.00    -0.051 Br
HETATM   23  C   UNL     1      43.980 -31.546   2.276  1.00  0.00     0.019 A 
HETATM   24  C   UNL     1      44.944 -31.809   1.308  1.00  0.00     0.002 A 
HETATM   25  C   UNL     1      45.009 -31.027   0.154  1.00  0.00     0.009 A 
ENDBRANCH   8  19
BRANCH   6  26
HETATM   26  N   UNL     1      44.913 -32.312  -4.833  1.00  0.00    -0.229 N 
HETATM   27  H   UNL     1      43.979 -32.648  -5.026  1.00  0.00     0.174 HD
HETATM   28  H   UNL     1      45.617 -33.033  -4.751  1.00  0.00     0.174 HD
ENDBRANCH   6  26
TORSDOF 4
ENDMDL
MODEL 6
REMARK VINA RESULT:      -6.9     15.697     17.313
REMARK  4 active torsions:
REMARK  status: ('A' for Active; 'I' for Inactive)
REMARK    1  A    between atoms: O_2  and  C_3 
REMARK    2  A    between atoms: C_6  and  C_7 
REMARK    3  A    between atoms: C_12  and  N_13 
REMARK    4  A    between atoms: C_15  and  C_16 
ROOT
HETATM    1  C   UNL     1      47.167 -28.588   0.991  1.00  0.00     0.135 C 
HETATM    2  N   UNL     1      48.481 -29.207   1.145  1.00  0.00    -0.214 N 
HETATM    3  C   UNL     1      49.108 -29.718   0.066  1.00  0.00     0.736 A 
HETATM    4  N   UNL     1      48.747 -29.360  -1.204  1.00  0.00    -0.074 N 
HETATM    5  N   UNL     1      49.529 -29.957  -2.121  1.00  0.00     0.037 NA
HETATM    6  C   UNL     1      50.321 -30.684  -1.336  1.00  0.00     0.753 A 
HETATM    7  N   UNL     1      50.090 -30.579   0.005  1.00  0.00     0.131 NA
HETATM    8  C   UNL     1      47.702 -28.399  -1.528  1.00  0.00     0.164 C 
HETATM    9  C   UNL     1      47.206 -27.674  -0.256  1.00  0.00     0.063 C 
HETATM   10  H   UNL     1      48.675 -29.637   2.044  1.00  0.00     0.178 HD
ENDROOT
BRANCH   1  11
HETATM   11  C   UNL     1      46.023 -29.595   1.043  1.00  0.00    -0.035 A 
HETATM   12  C   UNL     1      46.190 -30.914   1.504  1.00  0.00     0.012 A 
HETATM   13  C   UNL     1      45.116 -31.811   1.566  1.00  0.00     0.037 A 
HETATM   14  C   UNL     1      43.842 -31.408   1.180  1.00  0.00     0.068 A 
HETATM   15  C   UNL     1      43.655 -30.101   0.731  1.00  0.00     0.037 A 
HETATM   16  C   UNL     1      44.727 -29.203   0.672  1.00  0.00     0.012 A 
BRANCH  14  17
HETATM   17  O   UNL     1      42.712 -32.179   1.198  1.00  0.00    -0.356 OA
HETATM   18  C   UNL     1      41.495 -31.520   1.524  1.00  0.00     0.210 C 
ENDBRANCH  14  17
ENDBRANCH   1  11
BRANCH   8  19
HETATM   19  C   UNL     1      46.554 -28.975  -2.349  1.00  0.00    -0.031 A 
HETATM   20  C   UNL     1      46.304 -30.351  -2.465  1.00  0.00     0.028 A 
HETATM   21  C   UNL     1      45.205 -30.813  -3.192  1.00  0.00     0.011 A 
HETATM   22 BR   UNL     1      44.876 -32.671  -3.310  1.00  0.00    -0.051 Br
HETATM   23  C   UNL     1      44.345 -29.918  -3.824  1.00  0.00     0.019 A 
HETATM   24  C   UNL     1      44.583 -28.551  -3.727  1.00  0.00     0.002 A 
HETATM   25  C   UNL     1      45.675 -28.082  -2.994  1.00  0.00     0.009 A 
ENDBRANCH   8  19
BRANCH   6  26
HETATM   26  N   UNL     1      51.271 -31.514  -1.754  1.00  0.00    -0.229 N 
HETATM   27  H   UNL     1      51.086 -32.503  -1.648  1.00  0.00     0.174 HD
HETATM   28  H   UNL     1      52.226 -31.237  -1.570  1.00  0.00     0.174 HD
ENDBRANCH   6  26
TORSDOF 4
ENDMDL
MODEL 7
REMARK VINA RESULT:      -6.9      9.397     12.034
REMARK  4 active torsions:
REMARK  status: ('A' for Active; 'I' for Inactive)
REMARK    1  A    between atoms: O_2  and  C_3 
REMARK    2  A    between atoms: C_6  and  C_7 
REMARK    3  A    between atoms: C_12  and  N_13 
REMARK    4  A    between atoms: C_15  and  C_16 
ROOT
HETATM    1  C   UNL     1      39.742  -9.479  11.307  1.00  0.00     0.135 C 
HETATM    2  N   UNL     1      40.589  -9.674  10.134  1.00  0.00    -0.214 N 
HETATM    3  C   UNL     1      41.929  -9.578  10.255  1.00  0.00     0.736 A 
HETATM    4  N   UNL     1      42.543  -9.672  11.475  1.00  0.00    -0.074 N 
HETATM    5  N   UNL     1      43.880  -9.589  11.357  1.00  0.00     0.037 NA
HETATM    6  C   UNL     1      44.002  -9.414  10.042  1.00  0.00     0.753 A 
HETATM    7  N   UNL     1      42.836  -9.387   9.334  1.00  0.00     0.131 NA
HETATM    8  C   UNL     1      41.850  -9.909  12.734  1.00  0.00     0.164 C 
HETATM    9  C   UNL     1      40.365 -10.257  12.489  1.00  0.00     0.063 C 
HETATM   10  H   UNL     1      40.184  -9.425   9.237  1.00  0.00     0.178 HD
ENDROOT
BRANCH   1  11
HETATM   11  C   UNL     1      39.419  -8.012  11.573  1.00  0.00    -0.035 A 
HETATM   12  C   UNL     1      39.777  -6.981  10.686  1.00  0.00     0.012 A 
HETATM   13  C   UNL     1      39.444  -5.644  10.941  1.00  0.00     0.037 A 
HETATM   14  C   UNL     1      38.732  -5.305  12.088  1.00  0.00     0.068 A 
HETATM   15  C   UNL     1      38.360  -6.316  12.973  1.00  0.00     0.037 A 
HETATM   16  C   UNL     1      38.688  -7.652  12.717  1.00  0.00     0.012 A 
BRANCH  14  17
HETATM   17  O   UNL     1      38.341  -4.047  12.450  1.00  0.00    -0.356 OA
HETATM   18  C   UNL     1      37.050  -3.922  13.034  1.00  0.00     0.210 C 
ENDBRANCH  14  17
ENDBRANCH   1  11
BRANCH   8  19
HETATM   19  C   UNL     1      42.021  -8.795  13.761  1.00  0.00    -0.031 A 
HETATM   20  C   UNL     1      41.304  -8.742  14.966  1.00  0.00     0.028 A 
HETATM   21  C   UNL     1      41.543  -7.722  15.889  1.00  0.00     0.011 A 
HETATM   22 BR   UNL     1      40.583  -7.689  17.517  1.00  0.00    -0.051 Br
HETATM   23  C   UNL     1      42.488  -6.733  15.625  1.00  0.00     0.019 A 
HETATM   24  C   UNL     1      43.201  -6.765  14.431  1.00  0.00     0.002 A 
HETATM   25  C   UNL     1      42.973  -7.788  13.508  1.00  0.00     0.009 A 
ENDBRANCH   8  19
BRANCH   6  26
HETATM   26  N   UNL     1      45.146  -9.230   9.391  1.00  0.00    -0.229 N 
HETATM   27  H   UNL     1      45.836  -9.965   9.473  1.00  0.00     0.174 HD
HETATM   28  H   UNL     1      45.520  -8.291   9.390  1.00  0.00     0.174 HD
ENDBRANCH   6  26
TORSDOF 4
ENDMDL
MODEL 8
REMARK VINA RESULT:      -6.9      3.376      5.593
REMARK  4 active torsions:
REMARK  status: ('A' for Active; 'I' for Inactive)
REMARK    1  A    between atoms: O_2  and  C_3 
REMARK    2  A    between atoms: C_6  and  C_7 
REMARK    3  A    between atoms: C_12  and  N_13 
REMARK    4  A    between atoms: C_15  and  C_16 
ROOT
HETATM    1  C   UNL     1      42.022 -10.818   2.282  1.00  0.00     0.135 C 
HETATM    2  N   UNL     1      41.398 -10.033   3.343  1.00  0.00    -0.214 N 
HETATM    3  C   UNL     1      40.997 -10.643   4.477  1.00  0.00     0.736 A 
HETATM    4  N   UNL     1      41.474 -11.876   4.829  1.00  0.00    -0.074 N 
HETATM    5  N   UNL     1      40.973 -12.275   6.012  1.00  0.00     0.037 NA
HETATM    6  C   UNL     1      40.178 -11.248   6.302  1.00  0.00     0.753 A 
HETATM    7  N   UNL     1      40.151 -10.237   5.387  1.00  0.00     0.131 NA
HETATM    8  C   UNL     1      42.457 -12.633   4.065  1.00  0.00     0.164 C 
HETATM    9  C   UNL     1      43.052 -11.773   2.928  1.00  0.00     0.063 C 
HETATM   10  H   UNL     1      40.884  -9.207   3.053  1.00  0.00     0.178 HD
ENDROOT
BRANCH   1  11
HETATM   11  C   UNL     1      41.009 -11.467   1.346  1.00  0.00    -0.035 A 
HETATM   12  C   UNL     1      39.643 -11.129   1.350  1.00  0.00     0.012 A 
HETATM   13  C   UNL     1      38.738 -11.723   0.460  1.00  0.00     0.037 A 
HETATM   14  C   UNL     1      39.178 -12.661  -0.468  1.00  0.00     0.068 A 
HETATM   15  C   UNL     1      40.530 -13.000  -0.494  1.00  0.00     0.037 A 
HETATM   16  C   UNL     1      41.437 -12.405   0.392  1.00  0.00     0.012 A 
BRANCH  14  17
HETATM   17  O   UNL     1      38.404 -13.306  -1.392  1.00  0.00    -0.356 OA
HETATM   18  C   UNL     1      39.007 -14.392  -2.084  1.00  0.00     0.210 C 
ENDBRANCH  14  17
ENDBRANCH   1  11
BRANCH   8  19
HETATM   19  C   UNL     1      41.957 -13.984   3.567  1.00  0.00    -0.031 A 
HETATM   20  C   UNL     1      42.799 -15.084   3.347  1.00  0.00     0.028 A 
HETATM   21  C   UNL     1      42.272 -16.310   2.938  1.00  0.00     0.011 A 
HETATM   22 BR   UNL     1      43.427 -17.784   2.675  1.00  0.00    -0.051 Br
HETATM   23  C   UNL     1      40.903 -16.461   2.730  1.00  0.00     0.019 A 
HETATM   24  C   UNL     1      40.054 -15.378   2.934  1.00  0.00     0.002 A 
HETATM   25  C   UNL     1      40.574 -14.151   3.352  1.00  0.00     0.009 A 
ENDBRANCH   8  19
BRANCH   6  26
HETATM   26  N   UNL     1      39.397 -11.155   7.374  1.00  0.00    -0.229 N 
HETATM   27  H   UNL     1      39.635 -10.438   8.046  1.00  0.00     0.174 HD
HETATM   28  H   UNL     1      39.074 -12.025   7.775  1.00  0.00     0.174 HD
ENDBRANCH   6  26
TORSDOF 4
ENDMDL
MODEL 9
REMARK VINA RESULT:      -6.8     15.731     17.779
REMARK  4 active torsions:
REMARK  status: ('A' for Active; 'I' for Inactive)
REMARK    1  A    between atoms: O_2  and  C_3 
REMARK    2  A    between atoms: C_6  and  C_7 
REMARK    3  A    between atoms: C_12  and  N_13 
REMARK    4  A    between atoms: C_15  and  C_16 
ROOT
HETATM    1  C   UNL     1      45.799 -28.093  -1.318  1.00  0.00     0.135 C 
HETATM    2  N   UNL     1      45.235 -28.084   0.028  1.00  0.00    -0.214 N 
HETATM    3  C   UNL     1      45.858 -28.756   1.017  1.00  0.00     0.736 A 
HETATM    4  N   UNL     1      47.170 -29.131   0.907  1.00  0.00    -0.074 N 
HETATM    5  N   UNL     1      47.596 -29.750   2.022  1.00  0.00     0.037 NA
HETATM    6  C   UNL     1      46.483 -29.742   2.751  1.00  0.00     0.753 A 
HETATM    7  N   UNL     1      45.395 -29.158   2.172  1.00  0.00     0.131 NA
HETATM    8  C   UNL     1      48.022 -28.834  -0.236  1.00  0.00     0.164 C 
HETATM    9  C   UNL     1      47.323 -27.856  -1.206  1.00  0.00     0.063 C 
HETATM   10  H   UNL     1      44.226 -27.987   0.095  1.00  0.00     0.178 HD
ENDROOT
BRANCH   1  11
HETATM   11  C   UNL     1      45.373 -29.307  -2.136  1.00  0.00    -0.035 A 
HETATM   12  C   UNL     1      44.457 -30.263  -1.659  1.00  0.00     0.012 A 
HETATM   13  C   UNL     1      44.062 -31.356  -2.443  1.00  0.00     0.037 A 
HETATM   14  C   UNL     1      44.565 -31.515  -3.730  1.00  0.00     0.068 A 
HETATM   15  C   UNL     1      45.465 -30.571  -4.223  1.00  0.00     0.037 A 
HETATM   16  C   UNL     1      45.857 -29.477  -3.443  1.00  0.00     0.012 A 
BRANCH  14  17
HETATM   17  O   UNL     1      44.258 -32.527  -4.596  1.00  0.00    -0.356 OA
HETATM   18  C   UNL     1      45.336 -33.083  -5.337  1.00  0.00     0.210 C 
ENDBRANCH  14  17
ENDBRANCH   1  11
BRANCH   8  19
HETATM   19  C   UNL     1      48.564 -30.067  -0.950  1.00  0.00    -0.031 A 
HETATM   20  C   UNL     1      47.865 -31.282  -1.029  1.00  0.00     0.028 A 
HETATM   21  C   UNL     1      48.395 -32.359  -1.741  1.00  0.00     0.011 A 
HETATM   22 BR   UNL     1      47.419 -33.975  -1.855  1.00  0.00    -0.051 Br
HETATM   23  C   UNL     1      49.630 -32.253  -2.376  1.00  0.00     0.019 A 
HETATM   24  C   UNL     1      50.341 -31.059  -2.299  1.00  0.00     0.002 A 
HETATM   25  C   UNL     1      49.813 -29.975  -1.596  1.00  0.00     0.009 A 
ENDBRANCH   8  19
BRANCH   6  26
HETATM   26  N   UNL     1      46.346 -30.282   3.959  1.00  0.00    -0.229 N 
HETATM   27  H   UNL     1      46.128 -29.648   4.715  1.00  0.00     0.174 HD
HETATM   28  H   UNL     1      46.989 -31.025   4.197  1.00  0.00     0.174 HD
ENDBRANCH   6  26
TORSDOF 4
ENDMDL
MODEL 10
REMARK VINA RESULT:      -6.7      3.968      6.403
REMARK  4 active torsions:
REMARK  status: ('A' for Active; 'I' for Inactive)
REMARK    1  A    between atoms: O_2  and  C_3 
REMARK    2  A    between atoms: C_6  and  C_7 
REMARK    3  A    between atoms: C_12  and  N_13 
REMARK    4  A    between atoms: C_15  and  C_16 
ROOT
HETATM    1  C   UNL     1      39.368 -13.295   3.246  1.00  0.00     0.135 C 
HETATM    2  N   UNL     1      39.408 -14.612   2.618  1.00  0.00    -0.214 N 
HETATM    3  C   UNL     1      40.479 -15.410   2.808  1.00  0.00     0.736 A 
HETATM    4  N   UNL     1      41.348 -15.200   3.844  1.00  0.00    -0.074 N 
HETATM    5  N   UNL     1      42.316 -16.134   3.867  1.00  0.00     0.037 NA
HETATM    6  C   UNL     1      41.987 -16.858   2.799  1.00  0.00     0.753 A 
HETATM    7  N   UNL     1      40.882 -16.443   2.116  1.00  0.00     0.131 NA
HETATM    8  C   UNL     1      41.208 -14.149   4.843  1.00  0.00     0.164 C 
HETATM    9  C   UNL     1      39.840 -13.443   4.711  1.00  0.00     0.063 C 
HETATM   10  H   UNL     1      38.905 -14.712   1.742  1.00  0.00     0.178 HD
ENDROOT
BRANCH   1  11
HETATM   11  C   UNL     1      40.073 -12.220   2.425  1.00  0.00    -0.035 A 
HETATM   12  C   UNL     1      40.323 -10.928   2.919  1.00  0.00     0.012 A 
HETATM   13  C   UNL     1      40.997  -9.967   2.153  1.00  0.00     0.037 A 
HETATM   14  C   UNL     1      41.449 -10.279   0.875  1.00  0.00     0.068 A 
HETATM   15  C   UNL     1      41.219 -11.559   0.373  1.00  0.00     0.037 A 
HETATM   16  C   UNL     1      40.550 -12.521   1.139  1.00  0.00     0.012 A 
BRANCH  14  17
HETATM   17  O   UNL     1      42.121  -9.440   0.030  1.00  0.00    -0.356 OA
HETATM   18  C   UNL     1      41.405  -8.310  -0.451  1.00  0.00     0.210 C 
ENDBRANCH  14  17
ENDBRANCH   1  11
BRANCH   8  19
HETATM   19  C   UNL     1      42.368 -13.161   4.878  1.00  0.00    -0.031 A 
HETATM   20  C   UNL     1      42.841 -12.570   6.060  1.00  0.00     0.028 A 
HETATM   21  C   UNL     1      43.941 -11.710   6.031  1.00  0.00     0.011 A 
HETATM   22 BR   UNL     1      44.575 -10.949   7.642  1.00  0.00    -0.051 Br
HETATM   23  C   UNL     1      44.580 -11.414   4.830  1.00  0.00     0.019 A 
HETATM   24  C   UNL     1      44.118 -11.984   3.647  1.00  0.00     0.002 A 
HETATM   25  C   UNL     1      43.025 -12.852   3.670  1.00  0.00     0.009 A 
ENDBRANCH   8  19
BRANCH   6  26
HETATM   26  N   UNL     1      42.662 -17.906   2.339  1.00  0.00    -0.229 N 
HETATM   27  H   UNL     1      42.559 -18.771   2.852  1.00  0.00     0.174 HD
HETATM   28  H   UNL     1      43.594 -17.726   1.990  1.00  0.00     0.174 HD
ENDBRANCH   6  26
TORSDOF 4
ENDMDL
