MODEL 1
REMARK VINA RESULT:      -8.4      0.000      0.000
REMARK  9 active torsions:
REMARK  status: ('A' for Active; 'I' for Inactive)
REMARK    1  A    between atoms: N_5  and  C_6 
REMARK    2  A    between atoms: C_6  and  C_7 
REMARK    3  A    between atoms: C_7  and  O_8 
REMARK    4  A    between atoms: C_7  and  C_9 
REMARK    5  A    between atoms: C_9  and  O_10 
REMARK    6  A    between atoms: O_10  and  C_11 
REMARK    7  A    between atoms: N_23  and  C_24 
REMARK    8  A    between atoms: C_24  and  C_25 
REMARK    9  A    between atoms: C_25  and  N_26 
ROOT
HETATM    1  C   UNL     1      43.400 -18.403   2.278  1.00  0.00     0.002 A 
HETATM    2  C   UNL     1      42.506 -17.413   1.874  1.00  0.00     0.032 A 
HETATM    3  C   UNL     1      42.050 -16.535   2.842  1.00  0.00     0.079 A 
HETATM    4  C   UNL     1      42.451 -16.601   4.203  1.00  0.00     0.079 A 
HETATM    5  N   UNL     1      41.824 -15.562   4.907  1.00  0.00    -0.179 N 
HETATM    6  C   UNL     1      40.925 -14.945   3.971  1.00  0.00     0.681 A 
HETATM    7  N   UNL     1      40.007 -13.999   4.282  1.00  0.00    -0.234 N 
HETATM    8  H   UNL     1      39.329 -13.638   3.626  1.00  0.00     0.174 HD
HETATM    9  H   UNL     1      39.926 -13.652   5.233  1.00  0.00     0.174 HD
HETATM   10  N   UNL     1      41.094 -15.469   2.686  1.00  0.00    -0.180 N 
HETATM   11  C   UNL     1      43.324 -17.595   4.586  1.00  0.00     0.032 A 
HETATM   12  C   UNL     1      43.800 -18.492   3.619  1.00  0.00     0.002 A 
ENDROOT
BRANCH   5  13
HETATM   13  C   UNL     1      41.563 -15.570   6.357  1.00  0.00     0.181 C 
BRANCH  13  14
HETATM   14  C   UNL     1      42.591 -14.973   7.332  1.00  0.00     0.161 C 
BRANCH  14  15
HETATM   15  O   UNL     1      43.053 -16.001   8.213  1.00  0.00    -0.392 OA
HETATM   16  H   UNL     1      42.734 -16.855   7.851  1.00  0.00     0.210 HD
ENDBRANCH  14  15
BRANCH  14  17
HETATM   17  C   UNL     1      43.767 -14.217   6.705  1.00  0.00     0.209 C 
BRANCH  17  18
HETATM   18  O   UNL     1      43.221 -13.020   6.122  1.00  0.00    -0.347 OA
BRANCH  18  19
HETATM   19  C   UNL     1      43.614 -11.884   6.781  1.00  0.00     0.090 A 
HETATM   20  C   UNL     1      42.730 -10.803   6.895  1.00  0.00     0.069 A 
HETATM   21 CL   UNL     1      41.116 -10.906   6.294  1.00  0.00    -0.081 Cl
HETATM   22  C   UNL     1      43.137  -9.625   7.522  1.00  0.00     0.050 A 
HETATM   23  C   UNL     1      44.436  -9.529   8.013  1.00  0.00     0.035 A 
HETATM   24 CL   UNL     1      44.948  -8.083   8.791  1.00  0.00    -0.084 Cl
HETATM   25  C   UNL     1      45.330 -10.594   7.880  1.00  0.00     0.026 A 
HETATM   26  C   UNL     1      44.921 -11.774   7.256  1.00  0.00     0.040 A 
ENDBRANCH  18  19
ENDBRANCH  17  18
ENDBRANCH  14  17
ENDBRANCH  13  14
ENDBRANCH   5  13
BRANCH  10  27
HETATM   27  C   UNL     1      40.319 -15.202   1.463  1.00  0.00     0.175 C 
BRANCH  27  28
HETATM   28  C   UNL     1      40.711 -13.871   0.789  1.00  0.00     0.256 C 
BRANCH  28  29
HETATM   29  N   UNL     1      40.599 -13.865  -0.722  1.00  0.00    -0.066 N 
HETATM   30  H   UNL     1      41.357 -14.478  -1.062  1.00  0.00     0.280 HD
HETATM   31  C   UNL     1      39.315 -14.512  -1.262  1.00  0.00     0.261 C 
HETATM   32  C   UNL     1      39.378 -14.575  -2.793  1.00  0.00     0.195 C 
HETATM   33  O   UNL     1      39.567 -13.266  -3.338  1.00  0.00    -0.388 OA
HETATM   34  C   UNL     1      40.809 -12.687  -2.926  1.00  0.00     0.195 C 
HETATM   35  C   UNL     1      40.837 -12.514  -1.403  1.00  0.00     0.261 C 
ENDBRANCH  28  29
ENDBRANCH  27  28
ENDBRANCH  10  27
TORSDOF 9
ENDMDL
MODEL 2
REMARK VINA RESULT:      -8.4      4.323      9.831
REMARK  9 active torsions:
REMARK  status: ('A' for Active; 'I' for Inactive)
REMARK    1  A    between atoms: N_5  and  C_6 
REMARK    2  A    between atoms: C_6  and  C_7 
REMARK    3  A    between atoms: C_7  and  O_8 
REMARK    4  A    between atoms: C_7  and  C_9 
REMARK    5  A    between atoms: C_9  and  O_10 
REMARK    6  A    between atoms: O_10  and  C_11 
REMARK    7  A    between atoms: N_23  and  C_24 
REMARK    8  A    between atoms: C_24  and  C_25 
REMARK    9  A    between atoms: C_25  and  N_26 
ROOT
HETATM    1  C   UNL     1      46.232  -9.339   8.238  1.00  0.00     0.002 A 
HETATM    2  C   UNL     1      44.964  -8.781   8.395  1.00  0.00     0.032 A 
HETATM    3  C   UNL     1      43.892  -9.484   7.876  1.00  0.00     0.079 A 
HETATM    4  C   UNL     1      44.028 -10.728   7.205  1.00  0.00     0.079 A 
HETATM    5  N   UNL     1      42.755 -11.177   6.825  1.00  0.00    -0.179 N 
HETATM    6  C   UNL     1      41.851 -10.110   7.159  1.00  0.00     0.681 A 
HETATM    7  N   UNL     1      40.542 -10.063   6.815  1.00  0.00    -0.234 N 
HETATM    8  H   UNL     1      39.945  -9.267   6.988  1.00  0.00     0.174 HD
HETATM    9  H   UNL     1      40.117 -10.828   6.300  1.00  0.00     0.174 HD
HETATM   10  N   UNL     1      42.505  -9.097   7.867  1.00  0.00    -0.180 N 
HETATM   11  C   UNL     1      45.291 -11.257   7.047  1.00  0.00     0.032 A 
HETATM   12  C   UNL     1      46.390 -10.561   7.570  1.00  0.00     0.002 A 
ENDROOT
BRANCH   5  13
HETATM   13  C   UNL     1      42.491 -12.109   5.715  1.00  0.00     0.181 C 
BRANCH  13  14
HETATM   14  C   UNL     1      41.844 -13.477   5.991  1.00  0.00     0.161 C 
BRANCH  14  15
HETATM   15  O   UNL     1      40.563 -13.276   6.594  1.00  0.00    -0.392 OA
HETATM   16  H   UNL     1      40.698 -12.686   7.365  1.00  0.00     0.210 HD
ENDBRANCH  14  15
BRANCH  14  17
HETATM   17  C   UNL     1      41.748 -14.439   4.802  1.00  0.00     0.209 C 
BRANCH  17  18
HETATM   18  O   UNL     1      43.098 -14.750   4.416  1.00  0.00    -0.347 OA
BRANCH  18  19
HETATM   19  C   UNL     1      43.236 -16.037   3.964  1.00  0.00     0.090 A 
HETATM   20  C   UNL     1      43.956 -16.969   4.722  1.00  0.00     0.069 A 
HETATM   21 CL   UNL     1      44.605 -16.550   6.265  1.00  0.00    -0.081 Cl
HETATM   22  C   UNL     1      44.142 -18.268   4.249  1.00  0.00     0.050 A 
HETATM   23  C   UNL     1      43.622 -18.620   3.006  1.00  0.00     0.035 A 
HETATM   24 CL   UNL     1      43.842 -20.219   2.413  1.00  0.00    -0.084 Cl
HETATM   25  C   UNL     1      42.925 -17.689   2.234  1.00  0.00     0.026 A 
HETATM   26  C   UNL     1      42.736 -16.390   2.710  1.00  0.00     0.040 A 
ENDBRANCH  18  19
ENDBRANCH  17  18
ENDBRANCH  14  17
ENDBRANCH  13  14
ENDBRANCH   5  13
BRANCH  10  27
HETATM   27  C   UNL     1      41.989  -7.790   8.309  1.00  0.00     0.175 C 
BRANCH  27  28
HETATM   28  C   UNL     1      41.207  -7.876   9.636  1.00  0.00     0.256 C 
BRANCH  28  29
HETATM   29  N   UNL     1      42.017  -8.354  10.823  1.00  0.00    -0.066 N 
HETATM   30  H   UNL     1      42.987  -8.443  10.484  1.00  0.00     0.280 HD
HETATM   31  C   UNL     1      42.108  -7.339  11.973  1.00  0.00     0.261 C 
HETATM   32  C   UNL     1      43.061  -7.871  13.051  1.00  0.00     0.195 C 
HETATM   33  O   UNL     1      42.619  -9.148  13.520  1.00  0.00    -0.388 OA
HETATM   34  C   UNL     1      42.626 -10.133  12.482  1.00  0.00     0.195 C 
HETATM   35  C   UNL     1      41.651  -9.738  11.367  1.00  0.00     0.261 C 
ENDBRANCH  28  29
ENDBRANCH  27  28
ENDBRANCH  10  27
TORSDOF 9
ENDMDL
MODEL 3
REMARK VINA RESULT:      -8.3      1.729      2.523
REMARK  9 active torsions:
REMARK  status: ('A' for Active; 'I' for Inactive)
REMARK    1  A    between atoms: N_5  and  C_6 
REMARK    2  A    between atoms: C_6  and  C_7 
REMARK    3  A    between atoms: C_7  and  O_8 
REMARK    4  A    between atoms: C_7  and  C_9 
REMARK    5  A    between atoms: C_9  and  O_10 
REMARK    6  A    between atoms: O_10  and  C_11 
REMARK    7  A    between atoms: N_23  and  C_24 
REMARK    8  A    between atoms: C_24  and  C_25 
REMARK    9  A    between atoms: C_25  and  N_26 
ROOT
HETATM    1  C   UNL     1      43.382 -18.427   2.508  1.00  0.00     0.002 A 
HETATM    2  C   UNL     1      42.389 -17.496   2.209  1.00  0.00     0.032 A 
HETATM    3  C   UNL     1      41.980 -16.654   3.227  1.00  0.00     0.079 A 
HETATM    4  C   UNL     1      42.522 -16.699   4.540  1.00  0.00     0.079 A 
HETATM    5  N   UNL     1      41.905 -15.706   5.316  1.00  0.00    -0.179 N 
HETATM    6  C   UNL     1      40.877 -15.145   4.483  1.00  0.00     0.681 A 
HETATM    7  N   UNL     1      39.936 -14.262   4.897  1.00  0.00    -0.234 N 
HETATM    8  H   UNL     1      39.173 -13.944   4.318  1.00  0.00     0.174 HD
HETATM    9  H   UNL     1      39.931 -13.926   5.855  1.00  0.00     0.174 HD
HETATM   10  N   UNL     1      40.946 -15.652   3.182  1.00  0.00    -0.180 N 
HETATM   11  C   UNL     1      43.491 -17.637   4.820  1.00  0.00     0.032 A 
HETATM   12  C   UNL     1      43.922 -18.496   3.799  1.00  0.00     0.002 A 
ENDROOT
BRANCH   5  13
HETATM   13  C   UNL     1      41.795 -15.739   6.784  1.00  0.00     0.181 C 
BRANCH  13  14
HETATM   14  C   UNL     1      42.734 -14.881   7.649  1.00  0.00     0.161 C 
BRANCH  14  15
HETATM   15  O   UNL     1      43.344 -15.711   8.642  1.00  0.00    -0.392 OA
HETATM   16  H   UNL     1      43.036 -15.387   9.516  1.00  0.00     0.210 HD
ENDBRANCH  14  15
BRANCH  14  17
HETATM   17  C   UNL     1      43.785 -14.055   6.902  1.00  0.00     0.209 C 
BRANCH  17  18
HETATM   18  O   UNL     1      43.327 -12.691   6.924  1.00  0.00    -0.347 OA
BRANCH  18  19
HETATM   19  C   UNL     1      43.027 -12.214   5.675  1.00  0.00     0.090 A 
HETATM   20  C   UNL     1      42.086 -11.186   5.528  1.00  0.00     0.069 A 
HETATM   21 CL   UNL     1      41.355 -10.445   6.905  1.00  0.00    -0.081 Cl
HETATM   22  C   UNL     1      41.738 -10.726   4.258  1.00  0.00     0.050 A 
HETATM   23  C   UNL     1      42.321 -11.314   3.139  1.00  0.00     0.035 A 
HETATM   24 CL   UNL     1      41.904 -10.753   1.567  1.00  0.00    -0.084 Cl
HETATM   25  C   UNL     1      43.241 -12.355   3.277  1.00  0.00     0.026 A 
HETATM   26  C   UNL     1      43.591 -12.813   4.549  1.00  0.00     0.040 A 
ENDBRANCH  18  19
ENDBRANCH  17  18
ENDBRANCH  14  17
ENDBRANCH  13  14
ENDBRANCH   5  13
BRANCH  10  27
HETATM   27  C   UNL     1      40.034 -15.429   2.047  1.00  0.00     0.175 C 
BRANCH  27  28
HETATM   28  C   UNL     1      40.220 -14.044   1.396  1.00  0.00     0.256 C 
BRANCH  28  29
HETATM   29  N   UNL     1      39.304 -13.763   0.223  1.00  0.00    -0.066 N 
HETATM   30  H   UNL     1      38.392 -14.177   0.473  1.00  0.00     0.280 HD
HETATM   31  C   UNL     1      38.998 -12.274   0.003  1.00  0.00     0.261 C 
HETATM   32  C   UNL     1      37.958 -12.124  -1.114  1.00  0.00     0.195 C 
HETATM   33  O   UNL     1      38.428 -12.740  -2.317  1.00  0.00    -0.388 OA
HETATM   34  C   UNL     1      38.621 -14.149  -2.160  1.00  0.00     0.195 C 
HETATM   35  C   UNL     1      39.697 -14.424  -1.103  1.00  0.00     0.261 C 
ENDBRANCH  28  29
ENDBRANCH  27  28
ENDBRANCH  10  27
TORSDOF 9
ENDMDL
MODEL 4
REMARK VINA RESULT:      -8.1      2.844      5.490
REMARK  9 active torsions:
REMARK  status: ('A' for Active; 'I' for Inactive)
REMARK    1  A    between atoms: N_5  and  C_6 
REMARK    2  A    between atoms: C_6  and  C_7 
REMARK    3  A    between atoms: C_7  and  O_8 
REMARK    4  A    between atoms: C_7  and  C_9 
REMARK    5  A    between atoms: C_9  and  O_10 
REMARK    6  A    between atoms: O_10  and  C_11 
REMARK    7  A    between atoms: N_23  and  C_24 
REMARK    8  A    between atoms: C_24  and  C_25 
REMARK    9  A    between atoms: C_25  and  N_26 
ROOT
HETATM    1  C   UNL     1      40.168 -15.898   1.513  1.00  0.00     0.002 A 
HETATM    2  C   UNL     1      40.817 -16.204   2.708  1.00  0.00     0.032 A 
HETATM    3  C   UNL     1      41.443 -15.165   3.374  1.00  0.00     0.079 A 
HETATM    4  C   UNL     1      41.450 -13.827   2.898  1.00  0.00     0.079 A 
HETATM    5  N   UNL     1      42.151 -13.027   3.813  1.00  0.00    -0.179 N 
HETATM    6  C   UNL     1      42.689 -13.934   4.790  1.00  0.00     0.681 A 
HETATM    7  N   UNL     1      43.566 -13.596   5.765  1.00  0.00    -0.234 N 
HETATM    8  H   UNL     1      43.996 -14.265   6.389  1.00  0.00     0.174 HD
HETATM    9  H   UNL     1      43.879 -12.636   5.866  1.00  0.00     0.174 HD
HETATM   10  N   UNL     1      42.214 -15.234   4.589  1.00  0.00    -0.180 N 
HETATM   11  C   UNL     1      40.816 -13.548   1.707  1.00  0.00     0.032 A 
HETATM   12  C   UNL     1      40.172 -14.586   1.020  1.00  0.00     0.002 A 
ENDROOT
BRANCH   5  13
HETATM   13  C   UNL     1      42.810 -11.752   3.480  1.00  0.00     0.181 C 
BRANCH  13  14
HETATM   14  C   UNL     1      42.220 -10.423   3.980  1.00  0.00     0.161 C 
BRANCH  14  15
HETATM   15  O   UNL     1      40.975 -10.184   3.319  1.00  0.00    -0.392 OA
HETATM   16  H   UNL     1      40.941  -9.227   3.107  1.00  0.00     0.210 HD
ENDBRANCH  14  15
BRANCH  14  17
HETATM   17  C   UNL     1      42.076 -10.269   5.498  1.00  0.00     0.209 C 
BRANCH  17  18
HETATM   18  O   UNL     1      43.361 -10.573   6.066  1.00  0.00    -0.347 OA
BRANCH  18  19
HETATM   19  C   UNL     1      43.487 -10.133   7.358  1.00  0.00     0.090 A 
HETATM   20  C   UNL     1      44.692 -10.323   8.046  1.00  0.00     0.069 A 
HETATM   21 CL   UNL     1      46.060 -11.028   7.266  1.00  0.00    -0.081 Cl
HETATM   22  C   UNL     1      44.814  -9.921   9.377  1.00  0.00     0.050 A 
HETATM   23  C   UNL     1      43.718  -9.349  10.017  1.00  0.00     0.035 A 
HETATM   24 CL   UNL     1      43.856  -8.847  11.656  1.00  0.00    -0.084 Cl
HETATM   25  C   UNL     1      42.506  -9.180   9.345  1.00  0.00     0.026 A 
HETATM   26  C   UNL     1      42.386  -9.579   8.012  1.00  0.00     0.040 A 
ENDBRANCH  18  19
ENDBRANCH  17  18
ENDBRANCH  14  17
ENDBRANCH  13  14
ENDBRANCH   5  13
BRANCH  10  27
HETATM   27  C   UNL     1      42.585 -16.477   5.285  1.00  0.00     0.175 C 
BRANCH  27  28
HETATM   28  C   UNL     1      43.806 -17.174   4.651  1.00  0.00     0.256 C 
BRANCH  28  29
HETATM   29  N   UNL     1      43.534 -18.557   4.096  1.00  0.00    -0.066 N 
HETATM   30  H   UNL     1      42.546 -18.759   4.317  1.00  0.00     0.280 HD
HETATM   31  C   UNL     1      43.606 -18.646   2.564  1.00  0.00     0.261 C 
HETATM   32  C   UNL     1      43.177 -20.048   2.112  1.00  0.00     0.195 C 
HETATM   33  O   UNL     1      44.000 -21.043   2.729  1.00  0.00    -0.388 OA
HETATM   34  C   UNL     1      43.867 -21.042   4.154  1.00  0.00     0.195 C 
HETATM   35  C   UNL     1      44.332 -19.699   4.731  1.00  0.00     0.261 C 
ENDBRANCH  28  29
ENDBRANCH  27  28
ENDBRANCH  10  27
TORSDOF 9
ENDMDL
MODEL 5
REMARK VINA RESULT:      -8.0      3.030      6.001
REMARK  9 active torsions:
REMARK  status: ('A' for Active; 'I' for Inactive)
REMARK    1  A    between atoms: N_5  and  C_6 
REMARK    2  A    between atoms: C_6  and  C_7 
REMARK    3  A    between atoms: C_7  and  O_8 
REMARK    4  A    between atoms: C_7  and  C_9 
REMARK    5  A    between atoms: C_9  and  O_10 
REMARK    6  A    between atoms: O_10  and  C_11 
REMARK    7  A    between atoms: N_23  and  C_24 
REMARK    8  A    between atoms: C_24  and  C_25 
REMARK    9  A    between atoms: C_25  and  N_26 
ROOT
HETATM    1  C   UNL     1      40.712  -8.521   3.772  1.00  0.00     0.002 A 
HETATM    2  C   UNL     1      40.349  -9.597   2.965  1.00  0.00     0.032 A 
HETATM    3  C   UNL     1      40.336 -10.852   3.548  1.00  0.00     0.079 A 
HETATM    4  C   UNL     1      40.669 -11.081   4.909  1.00  0.00     0.079 A 
HETATM    5  N   UNL     1      40.536 -12.451   5.180  1.00  0.00    -0.179 N 
HETATM    6  C   UNL     1      40.247 -13.071   3.917  1.00  0.00     0.681 A 
HETATM    7  N   UNL     1      40.199 -14.407   3.698  1.00  0.00    -0.234 N 
HETATM    8  H   UNL     1      40.076 -14.822   2.785  1.00  0.00     0.174 HD
HETATM    9  H   UNL     1      40.353 -15.060   4.460  1.00  0.00     0.174 HD
HETATM   10  N   UNL     1      40.046 -12.114   2.917  1.00  0.00    -0.180 N 
HETATM   11  C   UNL     1      41.040 -10.007   5.687  1.00  0.00     0.032 A 
HETATM   12  C   UNL     1      41.055  -8.726   5.116  1.00  0.00     0.002 A 
ENDROOT
BRANCH   5  13
HETATM   13  C   UNL     1      41.240 -13.164   6.261  1.00  0.00     0.181 C 
BRANCH  13  14
HETATM   14  C   UNL     1      42.765 -13.351   6.199  1.00  0.00     0.161 C 
BRANCH  14  15
HETATM   15  O   UNL     1      43.350 -12.826   7.394  1.00  0.00    -0.392 OA
HETATM   16  H   UNL     1      42.660 -12.859   8.090  1.00  0.00     0.210 HD
ENDBRANCH  14  15
BRANCH  14  17
HETATM   17  C   UNL     1      43.268 -14.770   5.917  1.00  0.00     0.209 C 
BRANCH  17  18
HETATM   18  O   UNL     1      43.164 -14.968   4.496  1.00  0.00    -0.347 OA
BRANCH  18  19
HETATM   19  C   UNL     1      43.384 -16.269   4.126  1.00  0.00     0.090 A 
HETATM   20  C   UNL     1      43.205 -16.655   2.791  1.00  0.00     0.069 A 
HETATM   21 CL   UNL     1      42.793 -15.498   1.578  1.00  0.00    -0.081 Cl
HETATM   22  C   UNL     1      43.381 -17.986   2.413  1.00  0.00     0.050 A 
HETATM   23  C   UNL     1      43.715 -18.930   3.381  1.00  0.00     0.035 A 
HETATM   24 CL   UNL     1      43.937 -20.574   2.928  1.00  0.00    -0.084 Cl
HETATM   25  C   UNL     1      43.870 -18.557   4.718  1.00  0.00     0.026 A 
HETATM   26  C   UNL     1      43.698 -17.223   5.095  1.00  0.00     0.040 A 
ENDBRANCH  18  19
ENDBRANCH  17  18
ENDBRANCH  14  17
ENDBRANCH  13  14
ENDBRANCH   5  13
BRANCH  10  27
HETATM   27  C   UNL     1      39.832 -12.308   1.473  1.00  0.00     0.175 C 
BRANCH  27  28
HETATM   28  C   UNL     1      41.147 -12.531   0.700  1.00  0.00     0.256 C 
BRANCH  28  29
HETATM   29  N   UNL     1      40.973 -12.955  -0.744  1.00  0.00    -0.066 N 
HETATM   30  H   UNL     1      41.750 -13.604  -0.942  1.00  0.00     0.280 HD
HETATM   31  C   UNL     1      39.707 -13.783  -1.010  1.00  0.00     0.261 C 
HETATM   32  C   UNL     1      39.710 -14.270  -2.464  1.00  0.00     0.195 C 
HETATM   33  O   UNL     1      39.800 -13.159  -3.361  1.00  0.00    -0.388 OA
HETATM   34  C   UNL     1      41.023 -12.434  -3.197  1.00  0.00     0.195 C 
HETATM   35  C   UNL     1      41.104 -11.839  -1.787  1.00  0.00     0.261 C 
ENDBRANCH  28  29
ENDBRANCH  27  28
ENDBRANCH  10  27
TORSDOF 9
ENDMDL
MODEL 6
REMARK VINA RESULT:      -7.7      4.006      8.379
REMARK  9 active torsions:
REMARK  status: ('A' for Active; 'I' for Inactive)
REMARK    1  A    between atoms: N_5  and  C_6 
REMARK    2  A    between atoms: C_6  and  C_7 
REMARK    3  A    between atoms: C_7  and  O_8 
REMARK    4  A    between atoms: C_7  and  C_9 
REMARK    5  A    between atoms: C_9  and  O_10 
REMARK    6  A    between atoms: O_10  and  C_11 
REMARK    7  A    between atoms: N_23  and  C_24 
REMARK    8  A    between atoms: C_24  and  C_25 
REMARK    9  A    between atoms: C_25  and  N_26 
ROOT
HETATM    1  C   UNL     1      43.996 -12.500   6.895  1.00  0.00     0.002 A 
HETATM    2  C   UNL     1      43.864 -13.864   6.643  1.00  0.00     0.032 A 
HETATM    3  C   UNL     1      43.030 -14.241   5.605  1.00  0.00     0.079 A 
HETATM    4  C   UNL     1      42.319 -13.310   4.802  1.00  0.00     0.079 A 
HETATM    5  N   UNL     1      41.587 -14.017   3.836  1.00  0.00    -0.179 N 
HETATM    6  C   UNL     1      41.762 -15.407   4.156  1.00  0.00     0.681 A 
HETATM    7  N   UNL     1      41.096 -16.431   3.569  1.00  0.00    -0.234 N 
HETATM    8  H   UNL     1      41.173 -17.393   3.865  1.00  0.00     0.174 HD
HETATM    9  H   UNL     1      40.428 -16.252   2.825  1.00  0.00     0.174 HD
HETATM   10  N   UNL     1      42.695 -15.577   5.184  1.00  0.00    -0.180 N 
HETATM   11  C   UNL     1      42.450 -11.967   5.076  1.00  0.00     0.032 A 
HETATM   12  C   UNL     1      43.294 -11.565   6.121  1.00  0.00     0.002 A 
ENDROOT
BRANCH   5  13
HETATM   13  C   UNL     1      40.375 -13.513   3.167  1.00  0.00     0.181 C 
BRANCH  13  14
HETATM   14  C   UNL     1      40.427 -13.085   1.691  1.00  0.00     0.161 C 
BRANCH  14  15
HETATM   15  O   UNL     1      41.724 -12.557   1.402  1.00  0.00    -0.392 OA
HETATM   16  H   UNL     1      42.037 -12.102   2.213  1.00  0.00     0.210 HD
ENDBRANCH  14  15
BRANCH  14  17
HETATM   17  C   UNL     1      40.021 -14.143   0.659  1.00  0.00     0.209 C 
BRANCH  17  18
HETATM   18  O   UNL     1      40.306 -13.584  -0.635  1.00  0.00    -0.347 OA
BRANCH  18  19
HETATM   19  C   UNL     1      39.201 -13.032  -1.228  1.00  0.00     0.090 A 
HETATM   20  C   UNL     1      38.440 -13.789  -2.129  1.00  0.00     0.069 A 
HETATM   21 CL   UNL     1      38.820 -15.443  -2.443  1.00  0.00    -0.081 Cl
HETATM   22  C   UNL     1      37.341 -13.221  -2.774  1.00  0.00     0.050 A 
HETATM   23  C   UNL     1      37.022 -11.888  -2.528  1.00  0.00     0.035 A 
HETATM   24 CL   UNL     1      35.668 -11.177  -3.314  1.00  0.00    -0.084 Cl
HETATM   25  C   UNL     1      37.791 -11.120  -1.651  1.00  0.00     0.026 A 
HETATM   26  C   UNL     1      38.889 -11.690  -1.003  1.00  0.00     0.040 A 
ENDBRANCH  18  19
ENDBRANCH  17  18
ENDBRANCH  14  17
ENDBRANCH  13  14
ENDBRANCH   5  13
BRANCH  10  27
HETATM   27  C   UNL     1      43.093 -16.809   5.884  1.00  0.00     0.175 C 
BRANCH  27  28
HETATM   28  C   UNL     1      44.235 -17.558   5.169  1.00  0.00     0.256 C 
BRANCH  28  29
HETATM   29  N   UNL     1      43.802 -18.777   4.380  1.00  0.00    -0.066 N 
HETATM   30  H   UNL     1      42.789 -18.873   4.547  1.00  0.00     0.280 HD
HETATM   31  C   UNL     1      43.925 -18.618   2.858  1.00  0.00     0.261 C 
HETATM   32  C   UNL     1      43.330 -19.850   2.165  1.00  0.00     0.195 C 
HETATM   33  O   UNL     1      43.986 -21.040   2.616  1.00  0.00    -0.388 OA
HETATM   34  C   UNL     1      43.796 -21.258   4.017  1.00  0.00     0.195 C 
HETATM   35  C   UNL     1      44.413 -20.110   4.824  1.00  0.00     0.261 C 
ENDBRANCH  28  29
ENDBRANCH  27  28
ENDBRANCH  10  27
TORSDOF 9
ENDMDL
MODEL 7
REMARK VINA RESULT:      -7.7      3.452      6.452
REMARK  9 active torsions:
REMARK  status: ('A' for Active; 'I' for Inactive)
REMARK    1  A    between atoms: N_5  and  C_6 
REMARK    2  A    between atoms: C_6  and  C_7 
REMARK    3  A    between atoms: C_7  and  O_8 
REMARK    4  A    between atoms: C_7  and  C_9 
REMARK    5  A    between atoms: C_9  and  O_10 
REMARK    6  A    between atoms: O_10  and  C_11 
REMARK    7  A    between atoms: N_23  and  C_24 
REMARK    8  A    between atoms: C_24  and  C_25 
REMARK    9  A    between atoms: C_25  and  N_26 
ROOT
HETATM    1  C   UNL     1      40.352  -8.025   3.618  1.00  0.00     0.002 A 
HETATM    2  C   UNL     1      39.964  -8.896   2.601  1.00  0.00     0.032 A 
HETATM    3  C   UNL     1      39.676 -10.201   2.959  1.00  0.00     0.079 A 
HETATM    4  C   UNL     1      39.755 -10.678   4.295  1.00  0.00     0.079 A 
HETATM    5  N   UNL     1      39.382 -12.030   4.313  1.00  0.00    -0.179 N 
HETATM    6  C   UNL     1      39.205 -12.403   2.937  1.00  0.00     0.681 A 
HETATM    7  N   UNL     1      38.996 -13.665   2.493  1.00  0.00    -0.234 N 
HETATM    8  H   UNL     1      38.957 -13.917   1.516  1.00  0.00     0.174 HD
HETATM    9  H   UNL     1      38.931 -14.438   3.149  1.00  0.00     0.174 HD
HETATM   10  N   UNL     1      39.306 -11.291   2.094  1.00  0.00    -0.180 N 
HETATM   11  C   UNL     1      40.154  -9.805   5.283  1.00  0.00     0.032 A 
HETATM   12  C   UNL     1      40.447  -8.477   4.941  1.00  0.00     0.002 A 
ENDROOT
BRANCH   5  13
HETATM   13  C   UNL     1      39.796 -13.000   5.341  1.00  0.00     0.181 C 
BRANCH  13  14
HETATM   14  C   UNL     1      41.263 -13.450   5.434  1.00  0.00     0.161 C 
BRANCH  14  15
HETATM   15  O   UNL     1      41.818 -12.988   6.669  1.00  0.00    -0.392 OA
HETATM   16  H   UNL     1      42.558 -13.591   6.895  1.00  0.00     0.210 HD
ENDBRANCH  14  15
BRANCH  14  17
HETATM   17  C   UNL     1      41.533 -14.945   5.236  1.00  0.00     0.209 C 
BRANCH  17  18
HETATM   18  O   UNL     1      42.828 -15.051   4.618  1.00  0.00    -0.347 OA
BRANCH  18  19
HETATM   19  C   UNL     1      43.051 -16.285   4.065  1.00  0.00     0.090 A 
HETATM   20  C   UNL     1      43.932 -17.179   4.688  1.00  0.00     0.069 A 
HETATM   21 CL   UNL     1      44.680 -16.788   6.193  1.00  0.00    -0.081 Cl
HETATM   22  C   UNL     1      44.203 -18.419   4.108  1.00  0.00     0.050 A 
HETATM   23  C   UNL     1      43.604 -18.748   2.895  1.00  0.00     0.035 A 
HETATM   24 CL   UNL     1      43.927 -20.274   2.172  1.00  0.00    -0.084 Cl
HETATM   25  C   UNL     1      42.745 -17.851   2.257  1.00  0.00     0.026 A 
HETATM   26  C   UNL     1      42.472 -16.612   2.839  1.00  0.00     0.040 A 
ENDBRANCH  18  19
ENDBRANCH  17  18
ENDBRANCH  14  17
ENDBRANCH  13  14
ENDBRANCH   5  13
BRANCH  10  27
HETATM   27  C   UNL     1      39.293 -11.235   0.623  1.00  0.00     0.175 C 
BRANCH  27  28
HETATM   28  C   UNL     1      37.949 -11.693   0.021  1.00  0.00     0.256 C 
BRANCH  28  29
HETATM   29  N   UNL     1      38.049 -12.839  -0.965  1.00  0.00    -0.066 N 
HETATM   30  H   UNL     1      37.456 -13.591  -0.583  1.00  0.00     0.280 HD
HETATM   31  C   UNL     1      37.443 -12.539  -2.344  1.00  0.00     0.261 C 
HETATM   32  C   UNL     1      37.476 -13.808  -3.205  1.00  0.00     0.195 C 
HETATM   33  O   UNL     1      38.816 -14.296  -3.323  1.00  0.00    -0.388 OA
HETATM   34  C   UNL     1      39.362 -14.677  -2.056  1.00  0.00     0.195 C 
HETATM   35  C   UNL     1      39.440 -13.463  -1.123  1.00  0.00     0.261 C 
ENDBRANCH  28  29
ENDBRANCH  27  28
ENDBRANCH  10  27
TORSDOF 9
ENDMDL
MODEL 8
REMARK VINA RESULT:      -7.5      4.350      9.397
REMARK  9 active torsions:
REMARK  status: ('A' for Active; 'I' for Inactive)
REMARK    1  A    between atoms: N_5  and  C_6 
REMARK    2  A    between atoms: C_6  and  C_7 
REMARK    3  A    between atoms: C_7  and  O_8 
REMARK    4  A    between atoms: C_7  and  C_9 
REMARK    5  A    between atoms: C_9  and  O_10 
REMARK    6  A    between atoms: O_10  and  C_11 
REMARK    7  A    between atoms: N_23  and  C_24 
REMARK    8  A    between atoms: C_24  and  C_25 
REMARK    9  A    between atoms: C_25  and  N_26 
ROOT
HETATM    1  C   UNL     1      39.105  -9.030   6.270  1.00  0.00     0.002 A 
HETATM    2  C   UNL     1      40.374  -9.040   6.847  1.00  0.00     0.032 A 
HETATM    3  C   UNL     1      41.219 -10.080   6.503  1.00  0.00     0.079 A 
HETATM    4  C   UNL     1      40.853 -11.116   5.603  1.00  0.00     0.079 A 
HETATM    5  N   UNL     1      41.939 -11.992   5.460  1.00  0.00    -0.179 N 
HETATM    6  C   UNL     1      42.928 -11.542   6.400  1.00  0.00     0.681 A 
HETATM    7  N   UNL     1      44.072 -12.202   6.702  1.00  0.00    -0.234 N 
HETATM    8  H   UNL     1      44.713 -11.911   7.426  1.00  0.00     0.174 HD
HETATM    9  H   UNL     1      44.300 -13.076   6.238  1.00  0.00     0.174 HD
HETATM   10  N   UNL     1      42.548 -10.336   6.997  1.00  0.00    -0.180 N 
HETATM   11  C   UNL     1      39.590 -11.097   5.055  1.00  0.00     0.032 A 
HETATM   12  C   UNL     1      38.720 -10.048   5.388  1.00  0.00     0.002 A 
ENDROOT
BRANCH   5  13
HETATM   13  C   UNL     1      41.829 -13.404   5.053  1.00  0.00     0.181 C 
BRANCH  13  14
HETATM   14  C   UNL     1      41.403 -14.472   6.074  1.00  0.00     0.161 C 
BRANCH  14  15
HETATM   15  O   UNL     1      39.992 -14.682   5.973  1.00  0.00    -0.392 OA
HETATM   16  H   UNL     1      39.645 -14.005   5.354  1.00  0.00     0.210 HD
ENDBRANCH  14  15
BRANCH  14  17
HETATM   17  C   UNL     1      42.162 -15.803   6.027  1.00  0.00     0.209 C 
BRANCH  17  18
HETATM   18  O   UNL     1      43.205 -15.645   5.049  1.00  0.00    -0.347 OA
BRANCH  18  19
HETATM   19  C   UNL     1      43.395 -16.772   4.293  1.00  0.00     0.090 A 
HETATM   20  C   UNL     1      42.713 -16.921   3.078  1.00  0.00     0.069 A 
HETATM   21 CL   UNL     1      41.696 -15.666   2.470  1.00  0.00    -0.081 Cl
HETATM   22  C   UNL     1      42.863 -18.085   2.324  1.00  0.00     0.050 A 
HETATM   23  C   UNL     1      43.682 -19.104   2.802  1.00  0.00     0.035 A 
HETATM   24 CL   UNL     1      43.878 -20.543   1.881  1.00  0.00    -0.084 Cl
HETATM   25  C   UNL     1      44.345 -18.973   4.024  1.00  0.00     0.026 A 
HETATM   26  C   UNL     1      44.197 -17.807   4.777  1.00  0.00     0.040 A 
ENDBRANCH  18  19
ENDBRANCH  17  18
ENDBRANCH  14  17
ENDBRANCH  13  14
ENDBRANCH   5  13
BRANCH  10  27
HETATM   27  C   UNL     1      43.206  -9.586   8.079  1.00  0.00     0.175 C 
BRANCH  27  28
HETATM   28  C   UNL     1      43.566 -10.473   9.288  1.00  0.00     0.256 C 
BRANCH  28  29
HETATM   29  N   UNL     1      42.652 -10.319  10.486  1.00  0.00    -0.066 N 
HETATM   30  H   UNL     1      42.201 -11.238  10.615  1.00  0.00     0.280 HD
HETATM   31  C   UNL     1      43.386 -10.066  11.810  1.00  0.00     0.261 C 
HETATM   32  C   UNL     1      42.376 -10.068  12.965  1.00  0.00     0.195 C 
HETATM   33  O   UNL     1      41.361  -9.085  12.739  1.00  0.00    -0.388 OA
HETATM   34  C   UNL     1      40.598  -9.362  11.561  1.00  0.00     0.195 C 
HETATM   35  C   UNL     1      41.499  -9.323  10.321  1.00  0.00     0.261 C 
ENDBRANCH  28  29
ENDBRANCH  27  28
ENDBRANCH  10  27
TORSDOF 9
ENDMDL
MODEL 9
REMARK VINA RESULT:      -7.5     16.616     18.290
REMARK  9 active torsions:
REMARK  status: ('A' for Active; 'I' for Inactive)
REMARK    1  A    between atoms: N_5  and  C_6 
REMARK    2  A    between atoms: C_6  and  C_7 
REMARK    3  A    between atoms: C_7  and  O_8 
REMARK    4  A    between atoms: C_7  and  C_9 
REMARK    5  A    between atoms: C_9  and  O_10 
REMARK    6  A    between atoms: O_10  and  C_11 
REMARK    7  A    between atoms: N_23  and  C_24 
REMARK    8  A    between atoms: C_24  and  C_25 
REMARK    9  A    between atoms: C_25  and  N_26 
ROOT
HETATM    1  C   UNL     1      46.033 -28.150  -2.158  1.00  0.00     0.002 A 
HETATM    2  C   UNL     1      45.100 -28.718  -1.292  1.00  0.00     0.032 A 
HETATM    3  C   UNL     1      45.460 -28.838   0.039  1.00  0.00     0.079 A 
HETATM    4  C   UNL     1      46.717 -28.412   0.547  1.00  0.00     0.079 A 
HETATM    5  N   UNL     1      46.750 -28.659   1.928  1.00  0.00    -0.179 N 
HETATM    6  C   UNL     1      45.538 -29.371   2.225  1.00  0.00     0.681 A 
HETATM    7  N   UNL     1      45.243 -29.941   3.418  1.00  0.00    -0.234 N 
HETATM    8  H   UNL     1      44.423 -30.507   3.582  1.00  0.00     0.174 HD
HETATM    9  H   UNL     1      45.890 -29.867   4.198  1.00  0.00     0.174 HD
HETATM   10  N   UNL     1      44.699 -29.431   1.108  1.00  0.00    -0.180 N 
HETATM   11  C   UNL     1      47.630 -27.867  -0.328  1.00  0.00     0.032 A 
HETATM   12  C   UNL     1      47.282 -27.733  -1.679  1.00  0.00     0.002 A 
ENDROOT
BRANCH   5  13
HETATM   13  C   UNL     1      47.981 -28.841   2.716  1.00  0.00     0.181 C 
BRANCH  13  14
HETATM   14  C   UNL     1      49.141 -29.682   2.157  1.00  0.00     0.161 C 
BRANCH  14  15
HETATM   15  O   UNL     1      50.319 -29.425   2.926  1.00  0.00    -0.392 OA
HETATM   16  H   UNL     1      50.925 -30.183   2.784  1.00  0.00     0.210 HD
ENDBRANCH  14  15
BRANCH  14  17
HETATM   17  C   UNL     1      48.890 -31.187   2.021  1.00  0.00     0.209 C 
BRANCH  17  18
HETATM   18  O   UNL     1      49.337 -31.561   0.706  1.00  0.00    -0.347 OA
BRANCH  18  19
HETATM   19  C   UNL     1      48.300 -31.758  -0.169  1.00  0.00     0.090 A 
HETATM   20  C   UNL     1      48.427 -31.353  -1.504  1.00  0.00     0.069 A 
HETATM   21 CL   UNL     1      49.905 -30.684  -2.095  1.00  0.00    -0.081 Cl
HETATM   22  C   UNL     1      47.361 -31.505  -2.391  1.00  0.00     0.050 A 
HETATM   23  C   UNL     1      46.164 -32.045  -1.928  1.00  0.00     0.035 A 
HETATM   24 CL   UNL     1      44.843 -32.241  -3.011  1.00  0.00    -0.084 Cl
HETATM   25  C   UNL     1      46.022 -32.427  -0.592  1.00  0.00     0.026 A 
HETATM   26  C   UNL     1      47.091 -32.277   0.293  1.00  0.00     0.040 A 
ENDBRANCH  18  19
ENDBRANCH  17  18
ENDBRANCH  14  17
ENDBRANCH  13  14
ENDBRANCH   5  13
BRANCH  10  27
HETATM   27  C   UNL     1      43.422 -30.144   0.942  1.00  0.00     0.175 C 
BRANCH  27  28
HETATM   28  C   UNL     1      42.224 -29.365   1.521  1.00  0.00     0.256 C 
BRANCH  28  29
HETATM   29  N   UNL     1      41.289 -30.184   2.388  1.00  0.00    -0.066 N 
HETATM   30  H   UNL     1      40.382 -29.693   2.364  1.00  0.00     0.280 HD
HETATM   31  C   UNL     1      40.980 -31.582   1.834  1.00  0.00     0.261 C 
HETATM   32  C   UNL     1      39.923 -32.259   2.716  1.00  0.00     0.195 C 
HETATM   33  O   UNL     1      40.374 -32.327   4.072  1.00  0.00    -0.388 OA
HETATM   34  C   UNL     1      40.570 -31.027   4.638  1.00  0.00     0.195 C 
HETATM   35  C   UNL     1      41.662 -30.272   3.871  1.00  0.00     0.261 C 
ENDBRANCH  28  29
ENDBRANCH  27  28
ENDBRANCH  10  27
TORSDOF 9
ENDMDL
MODEL 10
REMARK VINA RESULT:      -7.4      3.922      6.293
REMARK  9 active torsions:
REMARK  status: ('A' for Active; 'I' for Inactive)
REMARK    1  A    between atoms: N_5  and  C_6 
REMARK    2  A    between atoms: C_6  and  C_7 
REMARK    3  A    between atoms: C_7  and  O_8 
REMARK    4  A    between atoms: C_7  and  C_9 
REMARK    5  A    between atoms: C_9  and  O_10 
REMARK    6  A    between atoms: O_10  and  C_11 
REMARK    7  A    between atoms: N_23  and  C_24 
REMARK    8  A    between atoms: C_24  and  C_25 
REMARK    9  A    between atoms: C_25  and  N_26 
ROOT
HETATM    1  C   UNL     1      44.623 -11.826   7.226  1.00  0.00     0.002 A 
HETATM    2  C   UNL     1      43.871 -12.789   6.556  1.00  0.00     0.032 A 
HETATM    3  C   UNL     1      42.628 -12.408   6.084  1.00  0.00     0.079 A 
HETATM    4  C   UNL     1      42.099 -11.100   6.251  1.00  0.00     0.079 A 
HETATM    5  N   UNL     1      40.836 -11.045   5.642  1.00  0.00    -0.179 N 
HETATM    6  C   UNL     1      40.548 -12.388   5.220  1.00  0.00     0.681 A 
HETATM    7  N   UNL     1      39.359 -12.811   4.728  1.00  0.00    -0.234 N 
HETATM    8  H   UNL     1      39.152 -13.776   4.516  1.00  0.00     0.174 HD
HETATM    9  H   UNL     1      38.589 -12.160   4.610  1.00  0.00     0.174 HD
HETATM   10  N   UNL     1      41.652 -13.225   5.411  1.00  0.00    -0.180 N 
HETATM   11  C   UNL     1      42.851 -10.167   6.929  1.00  0.00     0.032 A 
HETATM   12  C   UNL     1      44.116 -10.532   7.411  1.00  0.00     0.002 A 
ENDROOT
BRANCH   5  13
HETATM   13  C   UNL     1      39.772 -10.091   6.004  1.00  0.00     0.181 C 
BRANCH  13  14
HETATM   14  C   UNL     1      39.105 -10.166   7.388  1.00  0.00     0.161 C 
BRANCH  14  15
HETATM   15  O   UNL     1      39.152 -11.516   7.859  1.00  0.00    -0.392 OA
HETATM   16  H   UNL     1      38.233 -11.776   8.078  1.00  0.00     0.210 HD
ENDBRANCH  14  15
BRANCH  14  17
HETATM   17  C   UNL     1      39.627  -9.194   8.451  1.00  0.00     0.209 C 
BRANCH  17  18
HETATM   18  O   UNL     1      39.613  -9.906   9.701  1.00  0.00    -0.347 OA
BRANCH  18  19
HETATM   19  C   UNL     1      40.521  -9.412  10.601  1.00  0.00     0.090 A 
HETATM   20  C   UNL     1      40.411  -9.745  11.957  1.00  0.00     0.069 A 
HETATM   21 CL   UNL     1      39.198 -10.842  12.508  1.00  0.00    -0.081 Cl
HETATM   22  C   UNL     1      41.301  -9.210  12.888  1.00  0.00     0.050 A 
HETATM   23  C   UNL     1      42.286  -8.325  12.457  1.00  0.00     0.035 A 
HETATM   24 CL   UNL     1      43.391  -7.661  13.594  1.00  0.00    -0.084 Cl
HETATM   25  C   UNL     1      42.386  -7.969  11.111  1.00  0.00     0.026 A 
HETATM   26  C   UNL     1      41.496  -8.508  10.179  1.00  0.00     0.040 A 
ENDBRANCH  18  19
ENDBRANCH  17  18
ENDBRANCH  14  17
ENDBRANCH  13  14
ENDBRANCH   5  13
BRANCH  10  27
HETATM   27  C   UNL     1      41.759 -14.681   5.214  1.00  0.00     0.175 C 
BRANCH  27  28
HETATM   28  C   UNL     1      42.172 -15.059   3.777  1.00  0.00     0.256 C 
BRANCH  28  29
HETATM   29  N   UNL     1      43.030 -16.302   3.667  1.00  0.00    -0.066 N 
HETATM   30  H   UNL     1      43.927 -15.989   3.264  1.00  0.00     0.280 HD
HETATM   31  C   UNL     1      43.415 -16.924   5.017  1.00  0.00     0.261 C 
HETATM   32  C   UNL     1      44.393 -18.083   4.787  1.00  0.00     0.195 C 
HETATM   33  O   UNL     1      43.813 -19.058   3.914  1.00  0.00    -0.388 OA
HETATM   34  C   UNL     1      43.541 -18.522   2.616  1.00  0.00     0.195 C 
HETATM   35  C   UNL     1      42.516 -17.385   2.713  1.00  0.00     0.261 C 
ENDBRANCH  28  29
ENDBRANCH  27  28
ENDBRANCH  10  27
TORSDOF 9
ENDMDL
