MODEL 1
REMARK VINA RESULT:      -8.3      0.000      0.000
REMARK  11 active torsions:
REMARK  status: ('A' for Active; 'I' for Inactive)
REMARK    1  A    between atoms: C_1  and  C_7 
REMARK    2  A    between atoms: C_1  and  C_11 
REMARK    3  A    between atoms: C_8  and  C_13 
REMARK    4  A    between atoms: C_8  and  O_14 
REMARK       I    between atoms: C_11  and  N_12 
REMARK    5  A    between atoms: N_12  and  C_13 
REMARK    6  A    between atoms: C_18  and  N_19 
REMARK    7  A    between atoms: N_19  and  C_20 
REMARK    8  A    between atoms: C_20  and  C_21 
REMARK    9  A    between atoms: C_28  and  C_29 
REMARK   10  A    between atoms: C_29  and  O_30 
REMARK   11  A    between atoms: C_31  and  O_32 
ROOT
HETATM    1  C           1      43.474 -12.479   5.198  0.00  0.00     0.012 A 
HETATM    2  C           1      40.464 -14.441   5.823  0.00  0.00     0.016 C 
HETATM    3  C           1      41.597 -14.655   4.784  0.00  0.00    -0.030 C 
HETATM    4  C           1      42.933 -14.861   5.570  0.00  0.00     0.056 C 
HETATM    5  C           1      42.083 -14.144   1.352  0.00  0.00     0.020 C 
HETATM    6  C           1      43.416 -13.517   6.028  0.00  0.00     0.056 A 
HETATM    7  S           1      43.972 -11.297   5.904  0.00  0.00    -0.055 SA
HETATM    8  C           1      44.139 -11.997   7.186  0.00  0.00     0.167 A 
HETATM    9  N           1      43.797 -13.218   7.189  0.00  0.00    -0.228 NA
HETATM   10  C           1      43.002 -12.651   3.788  0.00  0.00     0.055 C 
HETATM   11  C           1      41.653 -13.417   3.808  0.00  0.00     0.012 C 
HETATM   12  C           1      41.057 -13.597   2.375  0.00  0.00     0.008 C 
HETATM   13  C           1      39.837 -14.536   2.398  0.00  0.00     0.128 C 
HETATM   14  C           1      40.019 -15.859   3.140  0.00  0.00     0.033 C 
HETATM   15  C           1      41.284 -15.944   3.998  0.00  0.00     0.013 C 
ENDROOT
BRANCH   4  16
HETATM   16  C           1      42.951 -15.884   6.725  0.00  0.00     0.114 C 
BRANCH  16  17
HETATM   17  C           1      43.488 -17.252   6.319  0.00  0.00     0.218 C 
HETATM   18  N           1      44.206 -17.246   5.154  0.00  0.00    -0.359 N 
HETATM   19  H           1      44.363 -16.352   4.689  0.00  0.00     0.162 HD
HETATM   20  O           1      43.284 -18.250   6.966  0.00  0.00    -0.274 OA
BRANCH  18  21
HETATM   21  C           1      44.755 -18.459   4.535  0.00  0.00     0.148 C 
BRANCH  21  22
HETATM   22  C           1      44.057 -18.695   3.196  0.00  0.00     0.186 C 
BRANCH  22  23
HETATM   23  O           1      43.686 -20.049   3.106  0.00  0.00    -0.394 OA
HETATM   24  C           1      43.640 -20.503   1.770  0.00  0.00     0.201 C 
ENDBRANCH  22  23
ENDBRANCH  21  22
ENDBRANCH  18  21
ENDBRANCH  16  17
ENDBRANCH   4  16
BRANCH  12  25
HETATM   25  C           1      40.615 -12.210   1.839  0.00  0.00     0.176 C 
BRANCH  25  26
HETATM   26  O           1      39.826 -12.343   0.675  0.00  0.00    -0.400 OA
HETATM   27  H           1      39.722 -13.273   0.460  0.00  0.00     0.209 HD
ENDBRANCH  25  26
ENDBRANCH  12  25
BRANCH   8  28
HETATM   28  N           1      44.579 -11.343   8.178  0.00  0.00    -0.365 N 
HETATM   29  H           1      44.652 -11.839   9.101  0.00  0.00     0.162 HD
BRANCH  28  30
HETATM   30  C           1      44.999  -9.927   8.116  0.00  0.00     0.160 C 
BRANCH  30  31
HETATM   31  C           1      44.354  -9.142   9.236  0.00  0.00    -0.041 A 
HETATM   32  C           1      44.409  -9.588  10.504  0.00  0.00     0.009 A 
HETATM   33  C           1      43.819  -8.916  11.503  0.00  0.00     0.001 A 
HETATM   34  C           1      43.162  -7.776  11.247  0.00  0.00     0.000 A 
HETATM   35  C           1      43.102  -7.314   9.989  0.00  0.00     0.001 A 
HETATM   36  C           1      43.693  -7.995   8.994  0.00  0.00     0.009 A 
ENDBRANCH  30  31
ENDBRANCH  28  30
ENDBRANCH   8  28
BRANCH  13  37
HETATM   37  O           1      38.730 -13.840   2.924  0.00  0.00    -0.395 OA
HETATM   38  H           1      38.007 -13.920   2.294  0.00  0.00     0.210 HD
ENDBRANCH  13  37
TORSDOF 11
ENDMDL
MODEL 2
REMARK VINA RESULT:      -8.3      2.655      7.901
REMARK  11 active torsions:
REMARK  status: ('A' for Active; 'I' for Inactive)
REMARK    1  A    between atoms: C_1  and  C_7 
REMARK    2  A    between atoms: C_1  and  C_11 
REMARK    3  A    between atoms: C_8  and  C_13 
REMARK    4  A    between atoms: C_8  and  O_14 
REMARK       I    between atoms: C_11  and  N_12 
REMARK    5  A    between atoms: N_12  and  C_13 
REMARK    6  A    between atoms: C_18  and  N_19 
REMARK    7  A    between atoms: N_19  and  C_20 
REMARK    8  A    between atoms: C_20  and  C_21 
REMARK    9  A    between atoms: C_28  and  C_29 
REMARK   10  A    between atoms: C_29  and  O_30 
REMARK   11  A    between atoms: C_31  and  O_32 
ROOT
HETATM    1  C           1      41.137 -14.585   5.418  0.00  0.00     0.012 A 
HETATM    2  C           1      43.112 -12.716   2.988  0.00  0.00     0.016 C 
HETATM    3  C           1      42.216 -12.208   4.148  0.00  0.00    -0.030 C 
HETATM    4  C           1      42.806 -12.763   5.485  0.00  0.00     0.056 C 
HETATM    5  C           1      39.024 -10.812   4.525  0.00  0.00     0.020 C 
HETATM    6  C           1      42.396 -14.200   5.613  0.00  0.00     0.056 A 
HETATM    7  S           1      41.020 -16.034   5.599  0.00  0.00    -0.055 SA
HETATM    8  C           1      42.442 -16.219   5.922  0.00  0.00     0.167 A 
HETATM    9  N           1      43.150 -15.168   5.896  0.00  0.00    -0.228 NA
HETATM   10  C           1      40.121 -13.562   5.018  0.00  0.00     0.055 C 
HETATM   11  C           1      40.729 -12.672   3.903  0.00  0.00     0.012 C 
HETATM   12  C           1      39.713 -11.603   3.385  0.00  0.00     0.008 C 
HETATM   13  C           1      40.399 -10.601   2.437  0.00  0.00     0.128 C 
HETATM   14  C           1      41.708  -9.990   2.937  0.00  0.00     0.033 C 
HETATM   15  C           1      42.301 -10.669   4.175  0.00  0.00     0.013 C 
ENDROOT
BRANCH   4  16
HETATM   16  C           1      44.316 -12.588   5.747  0.00  0.00     0.114 C 
BRANCH  16  17
HETATM   17  C           1      44.629 -11.897   7.071  0.00  0.00     0.218 C 
HETATM   18  N           1      45.718 -11.070   7.024  0.00  0.00    -0.359 N 
HETATM   19  H           1      46.190 -10.945   6.129  0.00  0.00     0.162 HD
HETATM   20  O           1      43.976 -12.078   8.069  0.00  0.00    -0.274 OA
BRANCH  18  21
HETATM   21  C           1      46.244 -10.358   8.195  0.00  0.00     0.148 C 
BRANCH  21  22
HETATM   22  C           1      45.653  -8.948   8.227  0.00  0.00     0.186 C 
BRANCH  22  23
HETATM   23  O           1      44.722  -8.866   9.278  0.00  0.00    -0.394 OA
HETATM   24  C           1      45.074  -9.688  10.370  0.00  0.00     0.201 C 
ENDBRANCH  22  23
ENDBRANCH  21  22
ENDBRANCH  18  21
ENDBRANCH  16  17
ENDBRANCH   4  16
BRANCH  12  25
HETATM   25  C           1      38.575 -12.325   2.616  0.00  0.00     0.176 C 
BRANCH  25  26
HETATM   26  O           1      39.079 -13.416   1.871  0.00  0.00    -0.400 OA
HETATM   27  H           1      38.997 -13.230   0.933  0.00  0.00     0.209 HD
ENDBRANCH  25  26
ENDBRANCH  12  25
BRANCH   8  28
HETATM   28  N           1      42.855 -17.390   6.176  0.00  0.00    -0.365 N 
HETATM   29  H           1      42.234 -18.019   6.744  0.00  0.00     0.162 HD
BRANCH  28  30
HETATM   30  C           1      44.155 -17.927   5.720  0.00  0.00     0.160 C 
BRANCH  30  31
HETATM   31  C           1      43.959 -18.814   4.511  0.00  0.00    -0.041 A 
HETATM   32  C           1      43.568 -18.289   3.335  0.00  0.00     0.009 A 
HETATM   33  C           1      43.365 -19.067   2.261  0.00  0.00     0.001 A 
HETATM   34  C           1      43.553 -20.391   2.348  0.00  0.00     0.000 A 
HETATM   35  C           1      43.947 -20.929   3.512  0.00  0.00     0.001 A 
HETATM   36  C           1      44.146 -20.145   4.583  0.00  0.00     0.009 A 
ENDBRANCH  30  31
ENDBRANCH  28  30
ENDBRANCH   8  28
BRANCH  13  37
HETATM   37  O           1      40.605 -11.218   1.186  0.00  0.00    -0.395 OA
HETATM   38  H           1      40.676 -12.166   1.336  0.00  0.00     0.210 HD
ENDBRANCH  13  37
TORSDOF 11
ENDMDL
MODEL 3
REMARK VINA RESULT:      -8.1      2.865      5.734
REMARK  11 active torsions:
REMARK  status: ('A' for Active; 'I' for Inactive)
REMARK    1  A    between atoms: C_1  and  C_7 
REMARK    2  A    between atoms: C_1  and  C_11 
REMARK    3  A    between atoms: C_8  and  C_13 
REMARK    4  A    between atoms: C_8  and  O_14 
REMARK       I    between atoms: C_11  and  N_12 
REMARK    5  A    between atoms: N_12  and  C_13 
REMARK    6  A    between atoms: C_18  and  N_19 
REMARK    7  A    between atoms: N_19  and  C_20 
REMARK    8  A    between atoms: C_20  and  C_21 
REMARK    9  A    between atoms: C_28  and  C_29 
REMARK   10  A    between atoms: C_29  and  O_30 
REMARK   11  A    between atoms: C_31  and  O_32 
ROOT
HETATM    1  C           1      43.309 -12.761   6.133  0.00  0.00     0.012 A 
HETATM    2  C           1      41.625 -11.507   3.151  0.00  0.00     0.016 C 
HETATM    3  C           1      41.213 -12.640   4.128  0.00  0.00    -0.030 C 
HETATM    4  C           1      41.030 -12.007   5.545  0.00  0.00     0.056 C 
HETATM    5  C           1      41.250 -16.144   4.179  0.00  0.00     0.020 C 
HETATM    6  C           1      42.391 -11.798   6.140  0.00  0.00     0.056 A 
HETATM    7  S           1      44.541 -12.288   6.769  0.00  0.00    -0.055 SA
HETATM    8  C           1      44.001 -10.955   7.073  0.00  0.00     0.167 A 
HETATM    9  N           1      42.813 -10.744   6.683  0.00  0.00    -0.228 NA
HETATM   10  C           1      42.986 -14.065   5.473  0.00  0.00     0.055 C 
HETATM   11  C           1      42.310 -13.773   4.107  0.00  0.00     0.012 C 
HETATM   12  C           1      41.983 -15.084   3.321  0.00  0.00     0.008 C 
HETATM   13  C           1      41.129 -14.783   2.075  0.00  0.00     0.128 C 
HETATM   14  C           1      39.903 -13.898   2.298  0.00  0.00     0.033 C 
HETATM   15  C           1      39.855 -13.200   3.660  0.00  0.00     0.013 C 
ENDROOT
BRANCH   4  16
HETATM   16  C           1      40.165 -10.736   5.672  0.00  0.00     0.114 C 
BRANCH  16  17
HETATM   17  C           1      39.229 -10.754   6.876  0.00  0.00     0.218 C 
HETATM   18  N           1      39.736 -10.135   7.986  0.00  0.00    -0.359 N 
HETATM   19  H           1      40.647  -9.683   7.911  0.00  0.00     0.162 HD
HETATM   20  O           1      38.143 -11.280   6.848  0.00  0.00    -0.274 OA
BRANCH  18  21
HETATM   21  C           1      39.040 -10.093   9.278  0.00  0.00     0.148 C 
BRANCH  21  22
HETATM   22  C           1      39.853  -9.241  10.254  0.00  0.00     0.186 C 
BRANCH  22  23
HETATM   23  O           1      40.309 -10.058  11.304  0.00  0.00    -0.394 OA
HETATM   24  C           1      39.773  -9.673  12.551  0.00  0.00     0.201 C 
ENDBRANCH  22  23
ENDBRANCH  21  22
ENDBRANCH  18  21
ENDBRANCH  16  17
ENDBRANCH   4  16
BRANCH  12  25
HETATM   25  C           1      43.314 -15.742   2.871  0.00  0.00     0.176 C 
BRANCH  25  26
HETATM   26  O           1      43.075 -16.823   1.992  0.00  0.00    -0.400 OA
HETATM   27  H           1      43.191 -17.652   2.461  0.00  0.00     0.209 HD
ENDBRANCH  25  26
ENDBRANCH  12  25
BRANCH   8  28
HETATM   28  N           1      44.750 -10.123   7.667  0.00  0.00    -0.365 N 
HETATM   29  H           1      45.104  -9.300   7.119  0.00  0.00     0.162 HD
BRANCH  28  30
HETATM   30  C           1      45.153 -10.236   9.085  0.00  0.00     0.160 C 
BRANCH  30  31
HETATM   31  C           1      44.369  -9.258   9.931  0.00  0.00    -0.041 A 
HETATM   32  C           1      44.143  -9.508  11.233  0.00  0.00     0.009 A 
HETATM   33  C           1      43.428  -8.661  11.989  0.00  0.00     0.001 A 
HETATM   34  C           1      42.926  -7.542  11.449  0.00  0.00     0.000 A 
HETATM   35  C           1      43.147  -7.275  10.153  0.00  0.00     0.001 A 
HETATM   36  C           1      43.862  -8.129   9.403  0.00  0.00     0.009 A 
ENDBRANCH  30  31
ENDBRANCH  28  30
ENDBRANCH   8  28
BRANCH  13  37
HETATM   37  O           1      41.951 -14.221   1.077  0.00  0.00    -0.395 OA
HETATM   38  H           1      42.602 -13.662   1.515  0.00  0.00     0.210 HD
ENDBRANCH  13  37
TORSDOF 11
ENDMDL
MODEL 4
REMARK VINA RESULT:      -7.8      2.530      5.714
REMARK  11 active torsions:
REMARK  status: ('A' for Active; 'I' for Inactive)
REMARK    1  A    between atoms: C_1  and  C_7 
REMARK    2  A    between atoms: C_1  and  C_11 
REMARK    3  A    between atoms: C_8  and  C_13 
REMARK    4  A    between atoms: C_8  and  O_14 
REMARK       I    between atoms: C_11  and  N_12 
REMARK    5  A    between atoms: N_12  and  C_13 
REMARK    6  A    between atoms: C_18  and  N_19 
REMARK    7  A    between atoms: N_19  and  C_20 
REMARK    8  A    between atoms: C_20  and  C_21 
REMARK    9  A    between atoms: C_28  and  C_29 
REMARK   10  A    between atoms: C_29  and  O_30 
REMARK   11  A    between atoms: C_31  and  O_32 
ROOT
HETATM    1  C           1      43.502 -13.076   5.936  0.00  0.00     0.012 A 
HETATM    2  C           1      43.545 -13.786   2.359  0.00  0.00     0.016 C 
HETATM    3  C           1      42.373 -13.846   3.374  0.00  0.00    -0.030 C 
HETATM    4  C           1      42.174 -12.411   3.960  0.00  0.00     0.056 C 
HETATM    5  C           1      40.603 -16.308   5.131  0.00  0.00     0.020 C 
HETATM    6  C           1      43.239 -12.177   4.990  0.00  0.00     0.056 A 
HETATM    7  S           1      44.585 -12.597   6.798  0.00  0.00    -0.055 SA
HETATM    8  C           1      44.744 -11.325   6.079  0.00  0.00     0.167 A 
HETATM    9  N           1      43.981 -11.164   5.079  0.00  0.00    -0.228 NA
HETATM   10  C           1      42.746 -14.367   5.937  0.00  0.00     0.055 C 
HETATM   11  C           1      42.700 -14.915   4.488  0.00  0.00     0.012 C 
HETATM   12  C           1      41.970 -16.295   4.402  0.00  0.00     0.008 C 
HETATM   13  C           1      41.750 -16.715   2.937  0.00  0.00     0.128 C 
HETATM   14  C           1      41.139 -15.658   2.018  0.00  0.00     0.033 C 
HETATM   15  C           1      41.098 -14.244   2.605  0.00  0.00     0.013 C 
ENDROOT
BRANCH   4  16
HETATM   16  C           1      42.081 -11.225   2.976  0.00  0.00     0.114 C 
BRANCH  16  17
HETATM   17  C           1      41.142 -10.118   3.444  0.00  0.00     0.218 C 
HETATM   18  N           1      41.783  -9.029   3.970  0.00  0.00    -0.359 N 
HETATM   19  H           1      42.802  -9.021   3.964  0.00  0.00     0.162 HD
HETATM   20  O           1      39.941 -10.207   3.366  0.00  0.00    -0.274 OA
BRANCH  18  21
HETATM   21  C           1      41.079  -7.877   4.546  0.00  0.00     0.148 C 
BRANCH  21  22
HETATM   22  C           1      41.490  -7.725   6.011  0.00  0.00     0.186 C 
BRANCH  22  23
HETATM   23  O           1      40.968  -8.804   6.748  0.00  0.00    -0.394 OA
HETATM   24  C           1      39.558  -8.773   6.814  0.00  0.00     0.201 C 
ENDBRANCH  22  23
ENDBRANCH  21  22
ENDBRANCH  18  21
ENDBRANCH  16  17
ENDBRANCH   4  16
BRANCH  12  25
HETATM   25  C           1      42.842 -17.366   5.109  0.00  0.00     0.176 C 
BRANCH  25  26
HETATM   26  O           1      44.213 -17.168   4.830  0.00  0.00    -0.400 OA
HETATM   27  H           1      44.353 -17.174   3.880  0.00  0.00     0.209 HD
ENDBRANCH  25  26
ENDBRANCH  12  25
BRANCH   8  28
HETATM   28  N           1      45.625 -10.510   6.484  0.00  0.00    -0.365 N 
HETATM   29  H           1      45.981  -9.792   5.804  0.00  0.00     0.162 HD
BRANCH  28  30
HETATM   30  C           1      46.182 -10.504   7.853  0.00  0.00     0.160 C 
BRANCH  30  31
HETATM   31  C           1      45.302  -9.686   8.771  0.00  0.00    -0.041 A 
HETATM   32  C           1      45.102 -10.068  10.046  0.00  0.00     0.009 A 
HETATM   33  C           1      44.302  -9.367  10.864  0.00  0.00     0.001 A 
HETATM   34  C           1      43.689  -8.262  10.416  0.00  0.00     0.000 A 
HETATM   35  C           1      43.883  -7.865   9.150  0.00  0.00     0.001 A 
HETATM   36  C           1      44.681  -8.574   8.336  0.00  0.00     0.009 A 
ENDBRANCH  30  31
ENDBRANCH  28  30
ENDBRANCH   8  28
BRANCH  13  37
HETATM   37  O           1      42.972 -17.169   2.400  0.00  0.00    -0.395 OA
HETATM   38  H           1      42.784 -17.940   1.857  0.00  0.00     0.210 HD
ENDBRANCH  13  37
TORSDOF 11
ENDMDL
MODEL 5
REMARK VINA RESULT:      -7.8      3.746      8.063
REMARK  11 active torsions:
REMARK  status: ('A' for Active; 'I' for Inactive)
REMARK    1  A    between atoms: C_1  and  C_7 
REMARK    2  A    between atoms: C_1  and  C_11 
REMARK    3  A    between atoms: C_8  and  C_13 
REMARK    4  A    between atoms: C_8  and  O_14 
REMARK       I    between atoms: C_11  and  N_12 
REMARK    5  A    between atoms: N_12  and  C_13 
REMARK    6  A    between atoms: C_18  and  N_19 
REMARK    7  A    between atoms: N_19  and  C_20 
REMARK    8  A    between atoms: C_20  and  C_21 
REMARK    9  A    between atoms: C_28  and  C_29 
REMARK   10  A    between atoms: C_29  and  O_30 
REMARK   11  A    between atoms: C_31  and  O_32 
ROOT
HETATM    1  C           1      42.303 -12.060   3.190  0.00  0.00     0.012 A 
HETATM    2  C           1      39.252 -12.393   5.161  0.00  0.00     0.016 C 
HETATM    3  C           1      39.818 -11.166   4.397  0.00  0.00    -0.030 C 
HETATM    4  C           1      39.906 -11.545   2.883  0.00  0.00     0.056 C 
HETATM    5  C           1      41.507  -8.196   5.173  0.00  0.00     0.020 C 
HETATM    6  C           1      41.120 -12.404   2.687  0.00  0.00     0.056 A 
HETATM    7  S           1      43.306 -13.075   2.857  0.00  0.00    -0.055 SA
HETATM    8  C           1      42.363 -13.917   2.106  0.00  0.00     0.167 A 
HETATM    9  N           1      41.168 -13.497   2.065  0.00  0.00    -0.228 NA
HETATM   10  C           1      42.407 -10.812   4.008  0.00  0.00     0.055 C 
HETATM   11  C           1      41.220 -10.772   5.004  0.00  0.00     0.012 C 
HETATM   12  C           1      41.277  -9.521   5.940  0.00  0.00     0.008 C 
HETATM   13  C           1      39.986  -9.392   6.770  0.00  0.00     0.128 C 
HETATM   14  C           1      38.674  -9.498   5.994  0.00  0.00     0.033 C 
HETATM   15  C           1      38.818 -10.004   4.556  0.00  0.00     0.013 C 
ENDROOT
BRANCH   4  16
HETATM   16  C           1      38.665 -12.173   2.213  0.00  0.00     0.114 C 
BRANCH  16  17
HETATM   17  C           1      38.530 -11.825   0.734  0.00  0.00     0.218 C 
HETATM   18  N           1      38.734 -12.884  -0.109  0.00  0.00    -0.359 N 
HETATM   19  H           1      38.907 -13.801   0.302  0.00  0.00     0.162 HD
HETATM   20  O           1      38.277 -10.710   0.348  0.00  0.00    -0.274 OA
BRANCH  18  21
HETATM   21  C           1      38.724 -12.766  -1.572  0.00  0.00     0.148 C 
BRANCH  21  22
HETATM   22  C           1      40.046 -13.301  -2.124  0.00  0.00     0.186 C 
BRANCH  22  23
HETATM   23  O           1      39.784 -14.079  -3.266  0.00  0.00    -0.394 OA
HETATM   24  C           1      38.422 -14.434  -3.370  0.00  0.00     0.201 C 
ENDBRANCH  22  23
ENDBRANCH  21  22
ENDBRANCH  18  21
ENDBRANCH  16  17
ENDBRANCH   4  16
BRANCH  12  25
HETATM   25  C           1      42.483  -9.674   6.904  0.00  0.00     0.176 C 
BRANCH  25  26
HETATM   26  O           1      42.597 -11.003   7.369  0.00  0.00    -0.400 OA
HETATM   27  H           1      43.076 -11.530   6.725  0.00  0.00     0.209 HD
ENDBRANCH  25  26
ENDBRANCH  12  25
BRANCH   8  28
HETATM   28  N           1      42.795 -14.988   1.585  0.00  0.00    -0.365 N 
HETATM   29  H           1      43.693 -14.944   1.040  0.00  0.00     0.162 HD
BRANCH  28  30
HETATM   30  C           1      42.117 -16.297   1.698  0.00  0.00     0.160 C 
BRANCH  30  31
HETATM   31  C           1      42.898 -17.212   2.615  0.00  0.00    -0.041 A 
HETATM   32  C           1      43.319 -16.778   3.817  0.00  0.00     0.009 A 
HETATM   33  C           1      44.035 -17.570   4.630  0.00  0.00     0.001 A 
HETATM   34  C           1      44.340 -18.818   4.250  0.00  0.00     0.000 A 
HETATM   35  C           1      43.924 -19.268   3.057  0.00  0.00     0.001 A 
HETATM   36  C           1      43.210 -18.469   2.247  0.00  0.00     0.009 A 
ENDBRANCH  30  31
ENDBRANCH  28  30
ENDBRANCH   8  28
BRANCH  13  37
HETATM   37  O           1      40.008 -10.346   7.808  0.00  0.00    -0.395 OA
HETATM   38  H           1      40.834 -10.233   8.290  0.00  0.00     0.210 HD
ENDBRANCH  13  37
TORSDOF 11
ENDMDL
MODEL 6
REMARK VINA RESULT:      -7.8      3.203      7.712
REMARK  11 active torsions:
REMARK  status: ('A' for Active; 'I' for Inactive)
REMARK    1  A    between atoms: C_1  and  C_7 
REMARK    2  A    between atoms: C_1  and  C_11 
REMARK    3  A    between atoms: C_8  and  C_13 
REMARK    4  A    between atoms: C_8  and  O_14 
REMARK       I    between atoms: C_11  and  N_12 
REMARK    5  A    between atoms: N_12  and  C_13 
REMARK    6  A    between atoms: C_18  and  N_19 
REMARK    7  A    between atoms: N_19  and  C_20 
REMARK    8  A    between atoms: C_20  and  C_21 
REMARK    9  A    between atoms: C_28  and  C_29 
REMARK   10  A    between atoms: C_29  and  O_30 
REMARK   11  A    between atoms: C_31  and  O_32 
ROOT
HETATM    1  C           1      42.606 -13.066   5.471  0.00  0.00     0.012 A 
HETATM    2  C           1      38.999 -12.527   5.422  0.00  0.00     0.016 C 
HETATM    3  C           1      40.129 -11.785   4.661  0.00  0.00    -0.030 C 
HETATM    4  C           1      40.852 -12.826   3.746  0.00  0.00     0.056 C 
HETATM    5  C           1      41.857  -8.748   4.925  0.00  0.00     0.020 C 
HETATM    6  C           1      41.774 -13.639   4.605  0.00  0.00     0.056 A 
HETATM    7  S           1      43.380 -14.088   6.179  0.00  0.00    -0.055 SA
HETATM    8  C           1      42.757 -15.212   5.463  0.00  0.00     0.167 A 
HETATM    9  N           1      41.866 -14.895   4.619  0.00  0.00    -0.228 NA
HETATM   10  C           1      42.582 -11.577   5.620  0.00  0.00     0.055 C 
HETATM   11  C           1      41.106 -11.111   5.701  0.00  0.00     0.012 C 
HETATM   12  C           1      40.986  -9.566   5.910  0.00  0.00     0.008 C 
HETATM   13  C           1      39.524  -9.102   5.776  0.00  0.00     0.128 C 
HETATM   14  C           1      38.770  -9.598   4.542  0.00  0.00     0.033 C 
HETATM   15  C           1      39.475 -10.713   3.766  0.00  0.00     0.013 C 
ENDROOT
BRANCH   4  16
HETATM   16  C           1      39.988 -13.731   2.843  0.00  0.00     0.114 C 
BRANCH  16  17
HETATM   17  C           1      40.428 -13.730   1.382  0.00  0.00     0.218 C 
HETATM   18  N           1      39.498 -14.247   0.521  0.00  0.00    -0.359 N 
HETATM   19  H           1      38.598 -14.538   0.901  0.00  0.00     0.162 HD
HETATM   20  O           1      41.505 -13.319   1.026  0.00  0.00    -0.274 OA
BRANCH  18  21
HETATM   21  C           1      39.734 -14.411  -0.920  0.00  0.00     0.148 C 
BRANCH  21  22
HETATM   22  C           1      38.743 -13.536  -1.688  0.00  0.00     0.186 C 
BRANCH  22  23
HETATM   23  O           1      39.423 -12.420  -2.207  0.00  0.00    -0.394 OA
HETATM   24  C           1      40.641 -12.777  -2.825  0.00  0.00     0.201 C 
ENDBRANCH  22  23
ENDBRANCH  21  22
ENDBRANCH  18  21
ENDBRANCH  16  17
ENDBRANCH   4  16
BRANCH  12  25
HETATM   25  C           1      41.498  -9.214   7.331  0.00  0.00     0.176 C 
BRANCH  25  26
HETATM   26  O           1      41.057 -10.163   8.280  0.00  0.00    -0.400 OA
HETATM   27  H           1      41.266 -11.048   7.973  0.00  0.00     0.209 HD
ENDBRANCH  25  26
ENDBRANCH  12  25
BRANCH   8  28
HETATM   28  N           1      43.129 -16.388   5.749  0.00  0.00    -0.365 N 
HETATM   29  H           1      42.523 -16.953   6.395  0.00  0.00     0.162 HD
BRANCH  28  30
HETATM   30  C           1      44.361 -17.018   5.228  0.00  0.00     0.160 C 
BRANCH  30  31
HETATM   31  C           1      44.012 -18.145   4.282  0.00  0.00    -0.041 A 
HETATM   32  C           1      44.216 -19.426   4.640  0.00  0.00     0.009 A 
HETATM   33  C           1      43.935 -20.435   3.802  0.00  0.00     0.001 A 
HETATM   34  C           1      43.438 -20.175   2.585  0.00  0.00     0.000 A 
HETATM   35  C           1      43.223 -18.904   2.214  0.00  0.00     0.001 A 
HETATM   36  C           1      43.510 -17.900   3.058  0.00  0.00     0.009 A 
ENDBRANCH  30  31
ENDBRANCH  28  30
ENDBRANCH   8  28
BRANCH  13  37
HETATM   37  O           1      38.819  -9.457   6.944  0.00  0.00    -0.395 OA
HETATM   38  H           1      37.943  -9.062   6.888  0.00  0.00     0.210 HD
ENDBRANCH  13  37
TORSDOF 11
ENDMDL
MODEL 7
REMARK VINA RESULT:      -7.7      3.643      8.459
REMARK  11 active torsions:
REMARK  status: ('A' for Active; 'I' for Inactive)
REMARK    1  A    between atoms: C_1  and  C_7 
REMARK    2  A    between atoms: C_1  and  C_11 
REMARK    3  A    between atoms: C_8  and  C_13 
REMARK    4  A    between atoms: C_8  and  O_14 
REMARK       I    between atoms: C_11  and  N_12 
REMARK    5  A    between atoms: N_12  and  C_13 
REMARK    6  A    between atoms: C_18  and  N_19 
REMARK    7  A    between atoms: N_19  and  C_20 
REMARK    8  A    between atoms: C_20  and  C_21 
REMARK    9  A    between atoms: C_28  and  C_29 
REMARK   10  A    between atoms: C_29  and  O_30 
REMARK   11  A    between atoms: C_31  and  O_32 
ROOT
HETATM    1  C           1      40.501 -14.492   2.960  0.00  0.00     0.012 A 
HETATM    2  C           1      42.359 -11.361   2.743  0.00  0.00     0.016 C 
HETATM    3  C           1      40.828 -11.612   2.790  0.00  0.00    -0.030 C 
HETATM    4  C           1      40.502 -12.323   4.144  0.00  0.00     0.056 C 
HETATM    5  C           1      38.146 -11.650   0.535  0.00  0.00     0.020 C 
HETATM    6  C           1      40.877 -13.769   4.012  0.00  0.00     0.056 A 
HETATM    7  S           1      41.005 -15.862   3.084  0.00  0.00    -0.055 SA
HETATM    8  C           1      41.655 -15.622   4.381  0.00  0.00     0.167 A 
HETATM    9  N           1      41.560 -14.440   4.829  0.00  0.00    -0.228 NA
HETATM   10  C           1      39.727 -13.828   1.865  0.00  0.00     0.055 C 
HETATM   11  C           1      40.399 -12.470   1.538  0.00  0.00     0.012 C 
HETATM   12  C           1      39.684 -11.727   0.363  0.00  0.00     0.008 C 
HETATM   13  C           1      40.232 -10.297   0.197  0.00  0.00     0.128 C 
HETATM   14  C           1      40.317  -9.457   1.471  0.00  0.00     0.033 C 
HETATM   15  C           1      40.121 -10.242   2.771  0.00  0.00     0.013 C 
ENDROOT
BRANCH   4  16
HETATM   16  C           1      41.071 -11.716   5.444  0.00  0.00     0.114 C 
BRANCH  16  17
HETATM   17  C           1      39.999 -11.350   6.465  0.00  0.00     0.218 C 
HETATM   18  N           1      40.350 -10.321   7.296  0.00  0.00    -0.359 N 
HETATM   19  H           1      41.248  -9.863   7.144  0.00  0.00     0.162 HD
HETATM   20  O           1      38.942 -11.927   6.534  0.00  0.00    -0.274 OA
BRANCH  18  21
HETATM   21  C           1      39.503  -9.848   8.399  0.00  0.00     0.148 C 
BRANCH  21  22
HETATM   22  C           1      39.338  -8.332   8.284  0.00  0.00     0.186 C 
BRANCH  22  23
HETATM   23  O           1      38.367  -7.906   9.209  0.00  0.00    -0.394 OA
HETATM   24  C           1      38.881  -7.819  10.520  0.00  0.00     0.201 C 
ENDBRANCH  22  23
ENDBRANCH  21  22
ENDBRANCH  18  21
ENDBRANCH  16  17
ENDBRANCH   4  16
BRANCH  12  25
HETATM   25  C           1      39.929 -12.516  -0.950  0.00  0.00     0.176 C 
BRANCH  25  26
HETATM   26  O           1      41.251 -13.012  -1.005  0.00  0.00    -0.400 OA
HETATM   27  H           1      41.701 -12.823  -0.178  0.00  0.00     0.209 HD
ENDBRANCH  25  26
ENDBRANCH  12  25
BRANCH   8  28
HETATM   28  N           1      42.268 -16.583   4.934  0.00  0.00    -0.365 N 
HETATM   29  H           1      41.747 -17.155   5.646  0.00  0.00     0.162 HD
BRANCH  28  30
HETATM   30  C           1      43.669 -16.951   4.640  0.00  0.00     0.160 C 
BRANCH  30  31
HETATM   31  C           1      43.747 -18.395   4.197  0.00  0.00    -0.041 A 
HETATM   32  C           1      44.021 -19.369   5.084  0.00  0.00     0.009 A 
HETATM   33  C           1      44.119 -20.651   4.701  0.00  0.00     0.001 A 
HETATM   34  C           1      43.939 -20.980   3.414  0.00  0.00     0.000 A 
HETATM   35  C           1      43.660 -20.022   2.518  0.00  0.00     0.001 A 
HETATM   36  C           1      43.567 -18.741   2.909  0.00  0.00     0.009 A 
ENDBRANCH  30  31
ENDBRANCH  28  30
ENDBRANCH   8  28
BRANCH  13  37
HETATM   37  O           1      41.496 -10.358  -0.423  0.00  0.00    -0.395 OA
HETATM   38  H           1      41.396 -10.035  -1.324  0.00  0.00     0.210 HD
ENDBRANCH  13  37
TORSDOF 11
ENDMDL
MODEL 8
REMARK VINA RESULT:      -7.7      2.982      8.197
REMARK  11 active torsions:
REMARK  status: ('A' for Active; 'I' for Inactive)
REMARK    1  A    between atoms: C_1  and  C_7 
REMARK    2  A    between atoms: C_1  and  C_11 
REMARK    3  A    between atoms: C_8  and  C_13 
REMARK    4  A    between atoms: C_8  and  O_14 
REMARK       I    between atoms: C_11  and  N_12 
REMARK    5  A    between atoms: N_12  and  C_13 
REMARK    6  A    between atoms: C_18  and  N_19 
REMARK    7  A    between atoms: N_19  and  C_20 
REMARK    8  A    between atoms: C_20  and  C_21 
REMARK    9  A    between atoms: C_28  and  C_29 
REMARK   10  A    between atoms: C_29  and  O_30 
REMARK   11  A    between atoms: C_31  and  O_32 
ROOT
HETATM    1  C           1      43.584 -12.544   6.663  0.00  0.00     0.012 A 
HETATM    2  C           1      40.898 -10.197   7.423  0.00  0.00     0.016 C 
HETATM    3  C           1      42.353  -9.931   6.956  0.00  0.00    -0.030 C 
HETATM    4  C           1      42.535 -10.600   5.555  0.00  0.00     0.056 C 
HETATM    5  C           1      45.378  -8.898   8.393  0.00  0.00     0.020 C 
HETATM    6  C           1      42.724 -12.073   5.763  0.00  0.00     0.056 A 
HETATM    7  S           1      43.562 -14.008   6.662  0.00  0.00    -0.055 SA
HETATM    8  C           1      42.555 -14.102   5.595  0.00  0.00     0.167 A 
HETATM    9  N           1      42.121 -12.995   5.154  0.00  0.00    -0.228 NA
HETATM   10  C           1      44.344 -11.576   7.514  0.00  0.00     0.055 C 
HETATM   11  C           1      43.360 -10.495   8.031  0.00  0.00     0.012 C 
HETATM   12  C           1      44.060  -9.465   8.977  0.00  0.00     0.008 C 
HETATM   13  C           1      43.122  -8.289   9.306  0.00  0.00     0.128 C 
HETATM   14  C           1      42.426  -7.630   8.116  0.00  0.00     0.033 C 
HETATM   15  C           1      42.531  -8.407   6.801  0.00  0.00     0.013 C 
ENDROOT
BRANCH   4  16
HETATM   16  C           1      41.476 -10.322   4.468  0.00  0.00     0.114 C 
BRANCH  16  17
HETATM   17  C           1      41.777 -11.002   3.136  0.00  0.00     0.218 C 
HETATM   18  N           1      40.805 -11.872   2.723  0.00  0.00    -0.359 N 
HETATM   19  H           1      39.963 -11.960   3.291  0.00  0.00     0.162 HD
HETATM   20  O           1      42.789 -10.794   2.513  0.00  0.00    -0.274 OA
BRANCH  18  21
HETATM   21  C           1      40.915 -12.690   1.508  0.00  0.00     0.148 C 
BRANCH  21  22
HETATM   22  C           1      39.880 -12.211   0.490  0.00  0.00     0.186 C 
BRANCH  22  23
HETATM   23  O           1      39.423 -13.314  -0.252  0.00  0.00    -0.394 OA
HETATM   24  C           1      40.154 -14.488   0.031  0.00  0.00     0.201 C 
ENDBRANCH  22  23
ENDBRANCH  21  22
ENDBRANCH  18  21
ENDBRANCH  16  17
ENDBRANCH   4  16
BRANCH  12  25
HETATM   25  C           1      44.449 -10.183  10.296  0.00  0.00     0.176 C 
BRANCH  25  26
HETATM   26  O           1      43.521 -11.200  10.614  0.00  0.00    -0.400 OA
HETATM   27  H           1      43.689 -11.524  11.502  0.00  0.00     0.209 HD
ENDBRANCH  25  26
ENDBRANCH  12  25
BRANCH   8  28
HETATM   28  N           1      42.184 -15.253   5.216  0.00  0.00    -0.365 N 
HETATM   29  H           1      41.975 -15.971   5.954  0.00  0.00     0.162 HD
BRANCH  28  30
HETATM   30  C           1      42.021 -15.647   3.800  0.00  0.00     0.160 C 
BRANCH  30  31
HETATM   31  C           1      42.728 -16.958   3.539  0.00  0.00    -0.041 A 
HETATM   32  C           1      43.645 -17.425   4.406  0.00  0.00     0.009 A 
HETATM   33  C           1      44.299 -18.573   4.175  0.00  0.00     0.001 A 
HETATM   34  C           1      44.039 -19.279   3.065  0.00  0.00     0.000 A 
HETATM   35  C           1      43.124 -18.831   2.194  0.00  0.00     0.001 A 
HETATM   36  C           1      42.476 -17.679   2.431  0.00  0.00     0.009 A 
ENDBRANCH  30  31
ENDBRANCH  28  30
ENDBRANCH   8  28
BRANCH  13  37
HETATM   37  O           1      42.162  -8.715  10.247  0.00  0.00    -0.395 OA
HETATM   38  H           1      41.295  -8.453   9.920  0.00  0.00     0.210 HD
ENDBRANCH  13  37
TORSDOF 11
ENDMDL
MODEL 9
REMARK VINA RESULT:      -7.4      2.990      5.267
REMARK  11 active torsions:
REMARK  status: ('A' for Active; 'I' for Inactive)
REMARK    1  A    between atoms: C_1  and  C_7 
REMARK    2  A    between atoms: C_1  and  C_11 
REMARK    3  A    between atoms: C_8  and  C_13 
REMARK    4  A    between atoms: C_8  and  O_14 
REMARK       I    between atoms: C_11  and  N_12 
REMARK    5  A    between atoms: N_12  and  C_13 
REMARK    6  A    between atoms: C_18  and  N_19 
REMARK    7  A    between atoms: N_19  and  C_20 
REMARK    8  A    between atoms: C_20  and  C_21 
REMARK    9  A    between atoms: C_28  and  C_29 
REMARK   10  A    between atoms: C_29  and  O_30 
REMARK   11  A    between atoms: C_31  and  O_32 
ROOT
HETATM    1  C           1      41.725 -11.197   4.261  0.00  0.00     0.012 A 
HETATM    2  C           1      41.240 -14.231   6.226  0.00  0.00     0.016 C 
HETATM    3  C           1      42.210 -13.949   5.048  0.00  0.00    -0.030 C 
HETATM    4  C           1      43.166 -12.791   5.482  0.00  0.00     0.056 C 
HETATM    5  C           1      42.392 -14.676   1.625  0.00  0.00     0.020 C 
HETATM    6  C           1      42.417 -11.498   5.357  0.00  0.00     0.056 A 
HETATM    7  S           1      41.090  -9.885   4.410  0.00  0.00    -0.055 SA
HETATM    8  C           1      41.634  -9.653   5.756  0.00  0.00     0.167 A 
HETATM    9  N           1      42.345 -10.591   6.227  0.00  0.00    -0.228 NA
HETATM   10  C           1      41.659 -12.196   3.149  0.00  0.00     0.055 C 
HETATM   11  C           1      41.375 -13.594   3.757  0.00  0.00     0.012 C 
HETATM   12  C           1      41.238 -14.697   2.658  0.00  0.00     0.008 C 
HETATM   13  C           1      41.168 -16.101   3.288  0.00  0.00     0.128 C 
HETATM   14  C           1      42.239 -16.425   4.330  0.00  0.00     0.033 C 
HETATM   15  C           1      43.051 -15.219   4.811  0.00  0.00     0.013 C 
ENDROOT
BRANCH   4  16
HETATM   16  C           1      43.870 -12.898   6.850  0.00  0.00     0.114 C 
BRANCH  16  17
HETATM   17  C           1      44.903 -11.802   7.091  0.00  0.00     0.218 C 
HETATM   18  N           1      44.707 -11.095   8.246  0.00  0.00    -0.359 N 
HETATM   19  H           1      43.943 -11.377   8.860  0.00  0.00     0.162 HD
HETATM   20  O           1      45.804 -11.576   6.321  0.00  0.00    -0.274 OA
BRANCH  18  21
HETATM   21  C           1      45.536  -9.951   8.644  0.00  0.00     0.148 C 
BRANCH  21  22
HETATM   22  C           1      45.280  -9.640  10.120  0.00  0.00     0.186 C 
BRANCH  22  23
HETATM   23  O           1      44.983 -10.838  10.794  0.00  0.00    -0.394 OA
HETATM   24  C           1      43.776 -10.755  11.522  0.00  0.00     0.201 C 
ENDBRANCH  22  23
ENDBRANCH  21  22
ENDBRANCH  18  21
ENDBRANCH  16  17
ENDBRANCH   4  16
BRANCH  12  25
HETATM   25  C           1      39.937 -14.441   1.853  0.00  0.00     0.176 C 
BRANCH  25  26
HETATM   26  O           1      38.880 -14.051   2.706  0.00  0.00    -0.400 OA
HETATM   27  H           1      38.128 -13.769   2.181  0.00  0.00     0.209 HD
ENDBRANCH  25  26
ENDBRANCH  12  25
BRANCH   8  28
HETATM   28  N           1      41.344  -8.569   6.345  0.00  0.00    -0.365 N 
HETATM   29  H           1      42.079  -7.819   6.387  0.00  0.00     0.162 HD
BRANCH  28  30
HETATM   30  C           1      40.035  -8.293   6.974  0.00  0.00     0.160 C 
BRANCH  30  31
HETATM   31  C           1      40.068  -8.675   8.437  0.00  0.00    -0.041 A 
HETATM   32  C           1      40.945  -8.093   9.275  0.00  0.00     0.009 A 
HETATM   33  C           1      41.004  -8.440  10.570  0.00  0.00     0.001 A 
HETATM   34  C           1      40.177  -9.379  11.050  0.00  0.00     0.000 A 
HETATM   35  C           1      39.292  -9.965  10.228  0.00  0.00     0.001 A 
HETATM   36  C           1      39.242  -9.615   8.933  0.00  0.00     0.009 A 
ENDBRANCH  30  31
ENDBRANCH  28  30
ENDBRANCH   8  28
BRANCH  13  37
HETATM   37  O           1      39.886 -16.293   3.842  0.00  0.00    -0.395 OA
HETATM   38  H           1      39.263 -15.771   3.326  0.00  0.00     0.210 HD
ENDBRANCH  13  37
TORSDOF 11
ENDMDL
MODEL 10
REMARK VINA RESULT:      -7.4      4.228      7.740
REMARK  11 active torsions:
REMARK  status: ('A' for Active; 'I' for Inactive)
REMARK    1  A    between atoms: C_1  and  C_7 
REMARK    2  A    between atoms: C_1  and  C_11 
REMARK    3  A    between atoms: C_8  and  C_13 
REMARK    4  A    between atoms: C_8  and  O_14 
REMARK       I    between atoms: C_11  and  N_12 
REMARK    5  A    between atoms: N_12  and  C_13 
REMARK    6  A    between atoms: C_18  and  N_19 
REMARK    7  A    between atoms: N_19  and  C_20 
REMARK    8  A    between atoms: C_20  and  C_21 
REMARK    9  A    between atoms: C_28  and  C_29 
REMARK   10  A    between atoms: C_29  and  O_30 
REMARK   11  A    between atoms: C_31  and  O_32 
ROOT
HETATM    1  C           1      40.010 -13.724   1.210  0.00  0.00     0.012 A 
HETATM    2  C           1      42.055 -10.795   1.946  0.00  0.00     0.016 C 
HETATM    3  C           1      40.512 -10.954   1.920  0.00  0.00    -0.030 C 
HETATM    4  C           1      40.123 -12.019   2.996  0.00  0.00     0.056 C 
HETATM    5  C           1      37.870 -10.142  -0.234  0.00  0.00     0.020 C 
HETATM    6  C           1      40.412 -13.378   2.431  0.00  0.00     0.056 A 
HETATM    7  S           1      40.430 -15.095   0.912  0.00  0.00    -0.055 SA
HETATM    8  C           1      41.072 -15.300   2.219  0.00  0.00     0.167 A 
HETATM    9  N           1      41.041 -14.305   3.004  0.00  0.00    -0.228 NA
HETATM   10  C           1      39.295 -12.714   0.370  0.00  0.00     0.055 C 
HETATM   11  C           1      40.053 -11.364   0.467  0.00  0.00     0.012 C 
HETATM   12  C           1      39.402 -10.258  -0.425  0.00  0.00     0.008 C 
HETATM   13  C           1      40.038  -8.882  -0.151  0.00  0.00     0.128 C 
HETATM   14  C           1      40.153  -8.474   1.317  0.00  0.00     0.033 C 
HETATM   15  C           1      39.889  -9.601   2.318  0.00  0.00     0.013 C 
ENDROOT
BRANCH   4  16
HETATM   16  C           1      40.706 -11.870   4.416  0.00  0.00     0.114 C 
BRANCH  16  17
HETATM   17  C           1      40.065 -12.804   5.438  0.00  0.00     0.218 C 
HETATM   18  N           1      40.886 -13.814   5.862  0.00  0.00    -0.359 N 
HETATM   19  H           1      41.843 -13.836   5.512  0.00  0.00     0.162 HD
HETATM   20  O           1      38.931 -12.666   5.825  0.00  0.00    -0.274 OA
BRANCH  18  21
HETATM   21  C           1      40.457 -14.870   6.788  0.00  0.00     0.148 C 
BRANCH  21  22
HETATM   22  C           1      40.313 -16.181   6.014  0.00  0.00     0.186 C 
BRANCH  22  23
HETATM   23  O           1      41.594 -16.675   5.707  0.00  0.00    -0.394 OA
HETATM   24  C           1      42.451 -16.672   6.829  0.00  0.00     0.201 C 
ENDBRANCH  22  23
ENDBRANCH  21  22
ENDBRANCH  18  21
ENDBRANCH  16  17
ENDBRANCH   4  16
BRANCH  12  25
HETATM   25  C           1      39.622 -10.626  -1.916  0.00  0.00     0.176 C 
BRANCH  25  26
HETATM   26  O           1      39.423  -9.503  -2.751  0.00  0.00    -0.400 OA
HETATM   27  H           1      38.489  -9.284  -2.779  0.00  0.00     0.209 HD
ENDBRANCH  25  26
ENDBRANCH  12  25
BRANCH   8  28
HETATM   28  N           1      41.617 -16.419   2.454  0.00  0.00    -0.365 N 
HETATM   29  H           1      40.994 -17.260   2.551  0.00  0.00     0.162 HD
BRANCH  28  30
HETATM   30  C           1      43.076 -16.617   2.596  0.00  0.00     0.160 C 
BRANCH  30  31
HETATM   31  C           1      43.380 -18.070   2.881  0.00  0.00    -0.041 A 
HETATM   32  C           1      42.993 -19.031   2.022  0.00  0.00     0.009 A 
HETATM   33  C           1      43.233 -20.326   2.274  0.00  0.00     0.001 A 
HETATM   34  C           1      43.872 -20.683   3.398  0.00  0.00     0.000 A 
HETATM   35  C           1      44.269 -19.737   4.262  0.00  0.00     0.001 A 
HETATM   36  C           1      44.022 -18.443   4.004  0.00  0.00     0.009 A 
ENDBRANCH  30  31
ENDBRANCH  28  30
ENDBRANCH   8  28
BRANCH  13  37
HETATM   37  O           1      41.306  -8.830  -0.765  0.00  0.00    -0.395 OA
HETATM   38  H           1      41.192  -8.449  -1.641  0.00  0.00     0.210 HD
ENDBRANCH  13  37
TORSDOF 11
ENDMDL
