MODEL 1
REMARK VINA RESULT:      -9.2      0.000      0.000
REMARK  7 active torsions:
REMARK  status: ('A' for Active; 'I' for Inactive)
REMARK    1  A    between atoms: C_2  and  O_3 
REMARK    2  A    between atoms: O_3  and  C_4 
REMARK    3  A    between atoms: C_4  and  C_5 
REMARK    4  A    between atoms: C_6  and  C_7 
REMARK    5  A    between atoms: C_18  and  S_19 
REMARK    6  A    between atoms: S_19  and  C_20 
REMARK    7  A    between atoms: C_20  and  C_21 
ROOT
HETATM    1  C   UNL     1      38.590 -12.424  -1.569  1.00  0.00     0.070 C 
HETATM    2  C   UNL     1      39.013 -11.802  -0.245  1.00  0.00     0.203 C 
HETATM    3  N   UNL     1      39.659 -12.790   0.622  1.00  0.00    -0.082 N 
HETATM    4  C   UNL     1      40.008 -14.051   0.226  1.00  0.00     0.726 A 
HETATM    5  N   UNL     1      39.720 -14.447  -1.029  1.00  0.00    -0.192 N 
HETATM    6  N   UNL     1      39.893 -12.605   1.935  1.00  0.00    -0.128 NA
HETATM    7  C   UNL     1      40.466 -13.772   2.253  1.00  0.00     0.226 A 
HETATM    8  N   UNL     1      40.561 -14.684   1.228  1.00  0.00    -0.035 NA
HETATM    9  C   UNL     1      38.959 -13.684  -1.912  1.00  0.00     0.037 C 
HETATM   10  C   UNL     1      38.569 -14.365  -3.200  1.00  0.00     0.070 C 
HETATM   11  H   UNL     1      39.922 -15.408  -1.296  1.00  0.00     0.184 HD
ENDROOT
BRANCH   7  12
HETATM   12  S   UNL     1      40.986 -14.089   3.880  1.00  0.00    -0.083 SA
BRANCH  12  13
HETATM   13  C   UNL     1      42.746 -14.405   3.593  1.00  0.00     0.121 C 
BRANCH  13  14
HETATM   14  C   UNL     1      43.094 -15.846   3.880  1.00  0.00    -0.048 A 
HETATM   15  C   UNL     1      42.948 -16.826   2.885  1.00  0.00     0.020 A 
HETATM   16  C   UNL     1      43.307 -18.164   3.120  1.00  0.00    -0.025 A 
HETATM   17  C   UNL     1      43.821 -18.530   4.383  1.00  0.00    -0.026 A 
HETATM   18  C   UNL     1      43.175 -19.144   2.123  1.00  0.00     0.012 A 
HETATM   19  C   UNL     1      43.962 -17.549   5.377  1.00  0.00     0.013 A 
HETATM   20  C   UNL     1      44.187 -19.866   4.616  1.00  0.00     0.012 A 
HETATM   21  C   UNL     1      43.608 -16.220   5.127  1.00  0.00     0.009 A 
HETATM   22  C   UNL     1      44.051 -20.828   3.614  1.00  0.00     0.001 A 
HETATM   23  C   UNL     1      43.545 -20.467   2.368  1.00  0.00     0.001 A 
ENDBRANCH  13  14
ENDBRANCH  12  13
ENDBRANCH   7  12
BRANCH   2  24
HETATM   24  C   UNL     1      39.939 -10.600  -0.430  1.00  0.00    -0.028 A 
HETATM   25  C   UNL     1      41.200 -10.775  -1.030  1.00  0.00     0.012 A 
HETATM   26  C   UNL     1      42.058  -9.689  -1.208  1.00  0.00     0.043 A 
HETATM   27  C   UNL     1      41.662  -8.424  -0.790  1.00  0.00     0.116 A 
HETATM   28  F   UNL     1      42.487  -7.384  -0.963  1.00  0.00    -0.206 F 
HETATM   29  C   UNL     1      40.421  -8.224  -0.200  1.00  0.00     0.043 A 
HETATM   30  C   UNL     1      39.559  -9.306  -0.021  1.00  0.00     0.012 A 
ENDBRANCH   2  24
BRANCH   1  31
HETATM   31  C   UNL     1      37.798 -11.560  -2.471  1.00  0.00     0.293 C 
HETATM   32  O   UNL     1      36.591 -11.403  -2.395  1.00  0.00    -0.259 OA
BRANCH  31  33
HETATM   33  O   UNL     1      38.627 -10.987  -3.379  1.00  0.00    -0.318 OA
BRANCH  33  34
HETATM   34  C   UNL     1      38.400  -9.593  -3.641  1.00  0.00     0.174 C 
HETATM   35  C   UNL     1      39.704  -8.913  -4.013  1.00  0.00     0.034 C 
ENDBRANCH  33  34
ENDBRANCH  31  33
ENDBRANCH   1  31
TORSDOF 7
ENDMDL
MODEL 2
REMARK VINA RESULT:      -9.2      4.529      6.306
REMARK  7 active torsions:
REMARK  status: ('A' for Active; 'I' for Inactive)
REMARK    1  A    between atoms: C_2  and  O_3 
REMARK    2  A    between atoms: O_3  and  C_4 
REMARK    3  A    between atoms: C_4  and  C_5 
REMARK    4  A    between atoms: C_6  and  C_7 
REMARK    5  A    between atoms: C_18  and  S_19 
REMARK    6  A    between atoms: S_19  and  C_20 
REMARK    7  A    between atoms: C_20  and  C_21 
ROOT
HETATM    1  C   UNL     1      39.486 -11.013   5.442  1.00  0.00     0.070 C 
HETATM    2  C   UNL     1      40.240 -12.325   5.274  1.00  0.00     0.203 C 
HETATM    3  N   UNL     1      40.120 -12.833   3.905  1.00  0.00    -0.082 N 
HETATM    4  C   UNL     1      39.568 -12.133   2.869  1.00  0.00     0.726 A 
HETATM    5  N   UNL     1      39.063 -10.906   3.103  1.00  0.00    -0.192 N 
HETATM    6  N   UNL     1      40.448 -14.085   3.533  1.00  0.00    -0.128 NA
HETATM    7  C   UNL     1      40.144 -14.045   2.230  1.00  0.00     0.226 A 
HETATM    8  N   UNL     1      39.607 -12.861   1.783  1.00  0.00    -0.035 NA
HETATM    9  C   UNL     1      38.950 -10.360   4.380  1.00  0.00     0.037 C 
HETATM   10  C   UNL     1      38.185  -9.064   4.474  1.00  0.00     0.070 C 
HETATM   11  H   UNL     1      38.595 -10.419   2.343  1.00  0.00     0.184 HD
ENDROOT
BRANCH   7  12
HETATM   12  S   UNL     1      40.376 -15.442   1.223  1.00  0.00    -0.083 SA
BRANCH  12  13
HETATM   13  C   UNL     1      42.186 -15.525   1.212  1.00  0.00     0.121 C 
BRANCH  13  14
HETATM   14  C   UNL     1      42.691 -16.501   2.247  1.00  0.00    -0.048 A 
HETATM   15  C   UNL     1      42.757 -17.874   1.960  1.00  0.00     0.020 A 
HETATM   16  C   UNL     1      43.265 -18.791   2.895  1.00  0.00    -0.025 A 
HETATM   17  C   UNL     1      43.714 -18.324   4.150  1.00  0.00    -0.026 A 
HETATM   18  C   UNL     1      43.346 -20.163   2.606  1.00  0.00     0.012 A 
HETATM   19  C   UNL     1      43.643 -16.951   4.435  1.00  0.00     0.013 A 
HETATM   20  C   UNL     1      44.228 -19.239   5.081  1.00  0.00     0.012 A 
HETATM   21  C   UNL     1      43.142 -16.048   3.493  1.00  0.00     0.009 A 
HETATM   22  C   UNL     1      44.302 -20.600   4.779  1.00  0.00     0.001 A 
HETATM   23  C   UNL     1      43.861 -21.062   3.542  1.00  0.00     0.001 A 
ENDBRANCH  13  14
ENDBRANCH  12  13
ENDBRANCH   7  12
BRANCH   2  24
HETATM   24  C   UNL     1      41.718 -12.204   5.647  1.00  0.00    -0.028 A 
HETATM   25  C   UNL     1      42.522 -11.237   5.016  1.00  0.00     0.012 A 
HETATM   26  C   UNL     1      43.873 -11.113   5.345  1.00  0.00     0.043 A 
HETATM   27  C   UNL     1      44.426 -11.951   6.305  1.00  0.00     0.116 A 
HETATM   28  F   UNL     1      45.722 -11.829   6.619  1.00  0.00    -0.206 F 
HETATM   29  C   UNL     1      43.653 -12.910   6.946  1.00  0.00     0.043 A 
HETATM   30  C   UNL     1      42.302 -13.038   6.622  1.00  0.00     0.012 A 
ENDBRANCH   2  24
BRANCH   1  31
HETATM   31  C   UNL     1      39.414 -10.474   6.817  1.00  0.00     0.293 C 
HETATM   32  O   UNL     1      38.686 -10.909   7.693  1.00  0.00    -0.259 OA
BRANCH  31  33
HETATM   33  O   UNL     1      40.278  -9.435   6.934  1.00  0.00    -0.318 OA
BRANCH  33  34
HETATM   34  C   UNL     1      41.118  -9.446   8.099  1.00  0.00     0.174 C 
HETATM   35  C   UNL     1      42.443  -8.774   7.794  1.00  0.00     0.034 C 
ENDBRANCH  33  34
ENDBRANCH  31  33
ENDBRANCH   1  31
TORSDOF 7
ENDMDL
MODEL 3
REMARK VINA RESULT:      -8.8      4.248      8.631
REMARK  7 active torsions:
REMARK  status: ('A' for Active; 'I' for Inactive)
REMARK    1  A    between atoms: C_2  and  O_3 
REMARK    2  A    between atoms: O_3  and  C_4 
REMARK    3  A    between atoms: C_4  and  C_5 
REMARK    4  A    between atoms: C_6  and  C_7 
REMARK    5  A    between atoms: C_18  and  S_19 
REMARK    6  A    between atoms: S_19  and  C_20 
REMARK    7  A    between atoms: C_20  and  C_21 
ROOT
HETATM    1  C   UNL     1      42.565 -13.451   6.225  1.00  0.00     0.070 C 
HETATM    2  C   UNL     1      41.465 -13.654   5.191  1.00  0.00     0.203 C 
HETATM    3  N   UNL     1      40.941 -12.371   4.718  1.00  0.00    -0.082 N 
HETATM    4  C   UNL     1      41.491 -11.156   5.018  1.00  0.00     0.726 A 
HETATM    5  N   UNL     1      42.566 -11.105   5.829  1.00  0.00    -0.192 N 
HETATM    6  N   UNL     1      39.800 -12.234   4.016  1.00  0.00    -0.128 NA
HETATM    7  C   UNL     1      39.766 -10.906   3.853  1.00  0.00     0.226 A 
HETATM    8  N   UNL     1      40.790 -10.209   4.448  1.00  0.00    -0.035 NA
HETATM    9  C   UNL     1      43.073 -12.222   6.491  1.00  0.00     0.037 C 
HETATM   10  C   UNL     1      44.153 -11.947   7.507  1.00  0.00     0.070 C 
HETATM   11  H   UNL     1      42.929 -10.195   6.101  1.00  0.00     0.184 HD
ENDROOT
BRANCH   7  12
HETATM   12  S   UNL     1      38.460 -10.153   2.988  1.00  0.00    -0.083 SA
BRANCH  12  13
HETATM   13  C   UNL     1      39.307  -9.735   1.441  1.00  0.00     0.121 C 
BRANCH  13  14
HETATM   14  C   UNL     1      39.470 -10.953   0.565  1.00  0.00    -0.048 A 
HETATM   15  C   UNL     1      38.452 -11.332  -0.326  1.00  0.00     0.020 A 
HETATM   16  C   UNL     1      38.604 -12.436  -1.180  1.00  0.00    -0.025 A 
HETATM   17  C   UNL     1      39.801 -13.183  -1.139  1.00  0.00    -0.026 A 
HETATM   18  C   UNL     1      37.594 -12.809  -2.082  1.00  0.00     0.012 A 
HETATM   19  C   UNL     1      40.815 -12.805  -0.246  1.00  0.00     0.013 A 
HETATM   20  C   UNL     1      39.956 -14.283  -1.999  1.00  0.00     0.012 A 
HETATM   21  C   UNL     1      40.654 -11.699   0.594  1.00  0.00     0.009 A 
HETATM   22  C   UNL     1      38.943 -14.640  -2.890  1.00  0.00     0.001 A 
HETATM   23  C   UNL     1      37.762 -13.903  -2.932  1.00  0.00     0.001 A 
ENDBRANCH  13  14
ENDBRANCH  12  13
ENDBRANCH   7  12
BRANCH   2  24
HETATM   24  C   UNL     1      41.929 -14.490   3.998  1.00  0.00    -0.028 A 
HETATM   25  C   UNL     1      42.958 -14.010   3.166  1.00  0.00     0.012 A 
HETATM   26  C   UNL     1      43.394 -14.759   2.073  1.00  0.00     0.043 A 
HETATM   27  C   UNL     1      42.807 -15.990   1.805  1.00  0.00     0.116 A 
HETATM   28  F   UNL     1      43.229 -16.707   0.756  1.00  0.00    -0.206 F 
HETATM   29  C   UNL     1      41.794 -16.488   2.613  1.00  0.00     0.043 A 
HETATM   30  C   UNL     1      41.355 -15.743   3.708  1.00  0.00     0.012 A 
ENDBRANCH   2  24
BRANCH   1  31
HETATM   31  C   UNL     1      43.074 -14.674   6.883  1.00  0.00     0.293 C 
HETATM   32  O   UNL     1      42.496 -15.270   7.777  1.00  0.00    -0.259 OA
BRANCH  31  33
HETATM   33  O   UNL     1      44.268 -15.010   6.335  1.00  0.00    -0.318 OA
BRANCH  33  34
HETATM   34  C   UNL     1      44.671 -16.379   6.502  1.00  0.00     0.174 C 
HETATM   35  C   UNL     1      44.372 -17.168   5.242  1.00  0.00     0.034 C 
ENDBRANCH  33  34
ENDBRANCH  31  33
ENDBRANCH   1  31
TORSDOF 7
ENDMDL
MODEL 4
REMARK VINA RESULT:      -8.8      3.240      4.915
REMARK  7 active torsions:
REMARK  status: ('A' for Active; 'I' for Inactive)
REMARK    1  A    between atoms: C_2  and  O_3 
REMARK    2  A    between atoms: O_3  and  C_4 
REMARK    3  A    between atoms: C_4  and  C_5 
REMARK    4  A    between atoms: C_6  and  C_7 
REMARK    5  A    between atoms: C_18  and  S_19 
REMARK    6  A    between atoms: S_19  and  C_20 
REMARK    7  A    between atoms: C_20  and  C_21 
ROOT
HETATM    1  C   UNL     1      39.714 -12.596  -0.631  1.00  0.00     0.070 C 
HETATM    2  C   UNL     1      40.523 -12.458   0.652  1.00  0.00     0.203 C 
HETATM    3  N   UNL     1      39.762 -11.748   1.683  1.00  0.00    -0.082 N 
HETATM    4  C   UNL     1      38.438 -11.423   1.577  1.00  0.00     0.726 A 
HETATM    5  N   UNL     1      37.776 -11.734   0.446  1.00  0.00    -0.192 N 
HETATM    6  N   UNL     1      40.302 -11.247   2.810  1.00  0.00    -0.128 NA
HETATM    7  C   UNL     1      39.223 -10.702   3.383  1.00  0.00     0.226 A 
HETATM    8  N   UNL     1      38.057 -10.794   2.659  1.00  0.00    -0.035 NA
HETATM    9  C   UNL     1      38.402 -12.253  -0.685  1.00  0.00     0.037 C 
HETATM   10  C   UNL     1      37.545 -12.356  -1.922  1.00  0.00     0.070 C 
HETATM   11  H   UNL     1      36.810 -11.430   0.348  1.00  0.00     0.184 HD
ENDROOT
BRANCH   7  12
HETATM   12  S   UNL     1      39.348  -9.888   4.913  1.00  0.00    -0.083 SA
BRANCH  12  13
HETATM   13  C   UNL     1      39.066 -11.282   6.035  1.00  0.00     0.121 C 
BRANCH  13  14
HETATM   14  C   UNL     1      40.239 -12.233   6.026  1.00  0.00    -0.048 A 
HETATM   15  C   UNL     1      40.031 -13.621   5.961  1.00  0.00     0.020 A 
HETATM   16  C   UNL     1      41.110 -14.518   5.907  1.00  0.00    -0.025 A 
HETATM   17  C   UNL     1      42.430 -14.016   5.924  1.00  0.00    -0.026 A 
HETATM   18  C   UNL     1      40.906 -15.905   5.828  1.00  0.00     0.012 A 
HETATM   19  C   UNL     1      42.634 -12.629   5.993  1.00  0.00     0.013 A 
HETATM   20  C   UNL     1      43.508 -14.913   5.864  1.00  0.00     0.012 A 
HETATM   21  C   UNL     1      41.551 -11.746   6.038  1.00  0.00     0.009 A 
HETATM   22  C   UNL     1      43.288 -16.289   5.784  1.00  0.00     0.001 A 
HETATM   23  C   UNL     1      41.988 -16.785   5.767  1.00  0.00     0.001 A 
ENDBRANCH  13  14
ENDBRANCH  12  13
ENDBRANCH   7  12
BRANCH   2  24
HETATM   24  C   UNL     1      40.993 -13.806   1.198  1.00  0.00    -0.028 A 
HETATM   25  C   UNL     1      40.074 -14.862   1.339  1.00  0.00     0.012 A 
HETATM   26  C   UNL     1      40.485 -16.099   1.836  1.00  0.00     0.043 A 
HETATM   27  C   UNL     1      41.815 -16.289   2.192  1.00  0.00     0.116 A 
HETATM   28  F   UNL     1      42.207 -17.478   2.668  1.00  0.00    -0.206 F 
HETATM   29  C   UNL     1      42.743 -15.265   2.058  1.00  0.00     0.043 A 
HETATM   30  C   UNL     1      42.337 -14.026   1.560  1.00  0.00     0.012 A 
ENDBRANCH   2  24
BRANCH   1  31
HETATM   31  C   UNL     1      40.428 -13.169  -1.793  1.00  0.00     0.293 C 
HETATM   32  O   UNL     1      40.233 -14.286  -2.242  1.00  0.00    -0.259 OA
BRANCH  31  33
HETATM   33  O   UNL     1      41.319 -12.259  -2.260  1.00  0.00    -0.318 OA
BRANCH  33  34
HETATM   34  C   UNL     1      40.902 -11.509  -3.412  1.00  0.00     0.174 C 
HETATM   35  C   UNL     1      40.614 -10.072  -3.022  1.00  0.00     0.034 C 
ENDBRANCH  33  34
ENDBRANCH  31  33
ENDBRANCH   1  31
TORSDOF 7
ENDMDL
MODEL 5
REMARK VINA RESULT:      -8.7      6.341      8.940
REMARK  7 active torsions:
REMARK  status: ('A' for Active; 'I' for Inactive)
REMARK    1  A    between atoms: C_2  and  O_3 
REMARK    2  A    between atoms: O_3  and  C_4 
REMARK    3  A    between atoms: C_4  and  C_5 
REMARK    4  A    between atoms: C_6  and  C_7 
REMARK    5  A    between atoms: C_18  and  S_19 
REMARK    6  A    between atoms: S_19  and  C_20 
REMARK    7  A    between atoms: C_20  and  C_21 
ROOT
HETATM    1  C   UNL     1      41.215 -11.850   2.706  1.00  0.00     0.070 C 
HETATM    2  C   UNL     1      42.610 -12.357   3.047  1.00  0.00     0.203 C 
HETATM    3  N   UNL     1      43.025 -11.908   4.379  1.00  0.00    -0.082 N 
HETATM    4  C   UNL     1      42.201 -11.281   5.272  1.00  0.00     0.726 A 
HETATM    5  N   UNL     1      40.929 -11.017   4.916  1.00  0.00    -0.192 N 
HETATM    6  N   UNL     1      44.290 -11.970   4.837  1.00  0.00    -0.128 NA
HETATM    7  C   UNL     1      44.140 -11.437   6.055  1.00  0.00     0.226 A 
HETATM    8  N   UNL     1      42.871 -11.008   6.362  1.00  0.00    -0.035 NA
HETATM    9  C   UNL     1      40.439 -11.228   3.629  1.00  0.00     0.037 C 
HETATM   10  C   UNL     1      39.054 -10.695   3.359  1.00  0.00     0.070 C 
HETATM   11  H   UNL     1      40.342 -10.493   5.560  1.00  0.00     0.184 HD
ENDROOT
BRANCH   7  12
HETATM   12  S   UNL     1      45.502 -11.266   7.121  1.00  0.00    -0.083 SA
BRANCH  12  13
HETATM   13  C   UNL     1      45.446  -9.481   7.419  1.00  0.00     0.121 C 
BRANCH  13  14
HETATM   14  C   UNL     1      44.883  -9.175   8.785  1.00  0.00    -0.048 A 
HETATM   15  C   UNL     1      44.092  -8.032   8.990  1.00  0.00     0.020 A 
HETATM   16  C   UNL     1      43.523  -7.755  10.245  1.00  0.00    -0.025 A 
HETATM   17  C   UNL     1      43.755  -8.639  11.321  1.00  0.00    -0.026 A 
HETATM   18  C   UNL     1      42.720  -6.621  10.450  1.00  0.00     0.012 A 
HETATM   19  C   UNL     1      44.549  -9.778  11.114  1.00  0.00     0.013 A 
HETATM   20  C   UNL     1      43.180  -8.365  12.572  1.00  0.00     0.012 A 
HETATM   21  C   UNL     1      45.103 -10.046   9.859  1.00  0.00     0.009 A 
HETATM   22  C   UNL     1      42.384  -7.234  12.760  1.00  0.00     0.001 A 
HETATM   23  C   UNL     1      42.154  -6.362  11.699  1.00  0.00     0.001 A 
ENDBRANCH  13  14
ENDBRANCH  12  13
ENDBRANCH   7  12
BRANCH   2  24
HETATM   24  C   UNL     1      42.719 -13.879   2.963  1.00  0.00    -0.028 A 
HETATM   25  C   UNL     1      43.419 -14.472   1.896  1.00  0.00     0.012 A 
HETATM   26  C   UNL     1      43.528 -15.860   1.804  1.00  0.00     0.043 A 
HETATM   27  C   UNL     1      42.943 -16.662   2.776  1.00  0.00     0.116 A 
HETATM   28  F   UNL     1      43.051 -17.994   2.686  1.00  0.00    -0.206 F 
HETATM   29  C   UNL     1      42.252 -16.102   3.841  1.00  0.00     0.043 A 
HETATM   30  C   UNL     1      42.140 -14.714   3.939  1.00  0.00     0.012 A 
ENDBRANCH   2  24
BRANCH   1  31
HETATM   31  C   UNL     1      40.743 -12.118   1.330  1.00  0.00     0.293 C 
HETATM   32  O   UNL     1      41.083 -11.482   0.347  1.00  0.00    -0.259 OA
BRANCH  31  33
HETATM   33  O   UNL     1      39.886 -13.169   1.350  1.00  0.00    -0.318 OA
BRANCH  33  34
HETATM   34  C   UNL     1      40.089 -14.163   0.333  1.00  0.00     0.174 C 
HETATM   35  C   UNL     1      39.925 -15.552   0.920  1.00  0.00     0.034 C 
ENDBRANCH  33  34
ENDBRANCH  31  33
ENDBRANCH   1  31
TORSDOF 7
ENDMDL
MODEL 6
REMARK VINA RESULT:      -8.7      2.218      3.926
REMARK  7 active torsions:
REMARK  status: ('A' for Active; 'I' for Inactive)
REMARK    1  A    between atoms: C_2  and  O_3 
REMARK    2  A    between atoms: O_3  and  C_4 
REMARK    3  A    between atoms: C_4  and  C_5 
REMARK    4  A    between atoms: C_6  and  C_7 
REMARK    5  A    between atoms: C_18  and  S_19 
REMARK    6  A    between atoms: S_19  and  C_20 
REMARK    7  A    between atoms: C_20  and  C_21 
ROOT
HETATM    1  C   UNL     1      40.210  -9.882  -0.103  1.00  0.00     0.070 C 
HETATM    2  C   UNL     1      40.756 -11.297   0.036  1.00  0.00     0.203 C 
HETATM    3  N   UNL     1      40.537 -11.819   1.388  1.00  0.00    -0.082 N 
HETATM    4  C   UNL     1      39.778 -11.197   2.339  1.00  0.00     0.726 A 
HETATM    5  N   UNL     1      39.211 -10.009   2.053  1.00  0.00    -0.192 N 
HETATM    6  N   UNL     1      41.138 -12.918   1.880  1.00  0.00    -0.128 NA
HETATM    7  C   UNL     1      40.628 -12.949   3.116  1.00  0.00     0.226 A 
HETATM    8  N   UNL     1      39.783 -11.912   3.435  1.00  0.00    -0.035 NA
HETATM    9  C   UNL     1      39.466  -9.308   0.876  1.00  0.00     0.037 C 
HETATM   10  C   UNL     1      38.903  -7.910   0.809  1.00  0.00     0.070 C 
HETATM   11  H   UNL     1      38.703  -9.521   2.787  1.00  0.00     0.184 HD
ENDROOT
BRANCH   7  12
HETATM   12  S   UNL     1      41.079 -14.204   4.230  1.00  0.00    -0.083 SA
BRANCH  12  13
HETATM   13  C   UNL     1      42.797 -14.474   3.720  1.00  0.00     0.121 C 
BRANCH  13  14
HETATM   14  C   UNL     1      43.051 -15.931   3.418  1.00  0.00    -0.048 A 
HETATM   15  C   UNL     1      43.411 -16.819   4.445  1.00  0.00     0.020 A 
HETATM   16  C   UNL     1      43.609 -18.187   4.191  1.00  0.00    -0.025 A 
HETATM   17  C   UNL     1      43.448 -18.677   2.876  1.00  0.00    -0.026 A 
HETATM   18  C   UNL     1      43.955 -19.080   5.218  1.00  0.00     0.012 A 
HETATM   19  C   UNL     1      43.092 -17.786   1.852  1.00  0.00     0.013 A 
HETATM   20  C   UNL     1      43.639 -20.044   2.624  1.00  0.00     0.012 A 
HETATM   21  C   UNL     1      42.891 -16.429   2.120  1.00  0.00     0.009 A 
HETATM   22  C   UNL     1      43.982 -20.920   3.655  1.00  0.00     0.001 A 
HETATM   23  C   UNL     1      44.140 -20.438   4.952  1.00  0.00     0.001 A 
ENDBRANCH  13  14
ENDBRANCH  12  13
ENDBRANCH   7  12
BRANCH   2  24
HETATM   24  C   UNL     1      40.155 -12.261  -0.988  1.00  0.00    -0.028 A 
HETATM   25  C   UNL     1      38.784 -12.572  -0.935  1.00  0.00     0.012 A 
HETATM   26  C   UNL     1      38.220 -13.449  -1.862  1.00  0.00     0.043 A 
HETATM   27  C   UNL     1      39.020 -14.018  -2.846  1.00  0.00     0.116 A 
HETATM   28  F   UNL     1      38.475 -14.858  -3.735  1.00  0.00    -0.206 F 
HETATM   29  C   UNL     1      40.374 -13.723  -2.923  1.00  0.00     0.043 A 
HETATM   30  C   UNL     1      40.943 -12.846  -1.999  1.00  0.00     0.012 A 
ENDBRANCH   2  24
BRANCH   1  31
HETATM   31  C   UNL     1      40.499  -9.195  -1.380  1.00  0.00     0.293 C 
HETATM   32  O   UNL     1      39.701  -9.070  -2.293  1.00  0.00    -0.259 OA
BRANCH  31  33
HETATM   33  O   UNL     1      41.777  -8.741  -1.362  1.00  0.00    -0.318 OA
BRANCH  33  34
HETATM   34  C   UNL     1      41.947  -7.338  -1.622  1.00  0.00     0.174 C 
HETATM   35  C   UNL     1      43.422  -6.987  -1.645  1.00  0.00     0.034 C 
ENDBRANCH  33  34
ENDBRANCH  31  33
ENDBRANCH   1  31
TORSDOF 7
ENDMDL
MODEL 7
REMARK VINA RESULT:      -8.6      5.301      8.617
REMARK  7 active torsions:
REMARK  status: ('A' for Active; 'I' for Inactive)
REMARK    1  A    between atoms: C_2  and  O_3 
REMARK    2  A    between atoms: O_3  and  C_4 
REMARK    3  A    between atoms: C_4  and  C_5 
REMARK    4  A    between atoms: C_6  and  C_7 
REMARK    5  A    between atoms: C_18  and  S_19 
REMARK    6  A    between atoms: S_19  and  C_20 
REMARK    7  A    between atoms: C_20  and  C_21 
ROOT
HETATM    1  C   UNL     1      41.535 -14.965   2.661  1.00  0.00     0.070 C 
HETATM    2  C   UNL     1      41.981 -13.868   3.618  1.00  0.00     0.203 C 
HETATM    3  N   UNL     1      40.959 -12.825   3.739  1.00  0.00    -0.082 N 
HETATM    4  C   UNL     1      39.700 -12.916   3.216  1.00  0.00     0.726 A 
HETATM    5  N   UNL     1      39.361 -14.011   2.509  1.00  0.00    -0.192 N 
HETATM    6  N   UNL     1      41.175 -11.617   4.293  1.00  0.00    -0.128 NA
HETATM    7  C   UNL     1      39.969 -11.055   4.145  1.00  0.00     0.226 A 
HETATM    8  N   UNL     1      39.034 -11.824   3.494  1.00  0.00    -0.035 NA
HETATM    9  C   UNL     1      40.273 -15.007   2.164  1.00  0.00     0.037 C 
HETATM   10  C   UNL     1      39.768 -16.057   1.207  1.00  0.00     0.070 C 
HETATM   11  H   UNL     1      38.445 -14.043   2.067  1.00  0.00     0.184 HD
ENDROOT
BRANCH   7  12
HETATM   12  S   UNL     1      39.671  -9.437   4.702  1.00  0.00    -0.083 SA
BRANCH  12  13
HETATM   13  C   UNL     1      39.687  -9.712   6.493  1.00  0.00     0.121 C 
BRANCH  13  14
HETATM   14  C   UNL     1      41.027  -9.351   7.086  1.00  0.00    -0.048 A 
HETATM   15  C   UNL     1      42.076 -10.286   7.099  1.00  0.00     0.020 A 
HETATM   16  C   UNL     1      43.342  -9.954   7.607  1.00  0.00    -0.025 A 
HETATM   17  C   UNL     1      43.564  -8.657   8.120  1.00  0.00    -0.026 A 
HETATM   18  C   UNL     1      44.397 -10.881   7.608  1.00  0.00     0.012 A 
HETATM   19  C   UNL     1      42.513  -7.727   8.110  1.00  0.00     0.013 A 
HETATM   20  C   UNL     1      44.832  -8.324   8.622  1.00  0.00     0.012 A 
HETATM   21  C   UNL     1      41.260  -8.068   7.594  1.00  0.00     0.009 A 
HETATM   22  C   UNL     1      45.871  -9.256   8.615  1.00  0.00     0.001 A 
HETATM   23  C   UNL     1      45.653 -10.535   8.109  1.00  0.00     0.001 A 
ENDBRANCH  13  14
ENDBRANCH  12  13
ENDBRANCH   7  12
BRANCH   2  24
HETATM   24  C   UNL     1      42.331 -14.405   5.005  1.00  0.00    -0.028 A 
HETATM   25  C   UNL     1      41.400 -15.194   5.705  1.00  0.00     0.012 A 
HETATM   26  C   UNL     1      41.703 -15.693   6.973  1.00  0.00     0.043 A 
HETATM   27  C   UNL     1      42.937 -15.410   7.546  1.00  0.00     0.116 A 
HETATM   28  F   UNL     1      43.226 -15.892   8.761  1.00  0.00    -0.206 F 
HETATM   29  C   UNL     1      43.876 -14.639   6.874  1.00  0.00     0.043 A 
HETATM   30  C   UNL     1      43.578 -14.138   5.606  1.00  0.00     0.012 A 
ENDBRANCH   2  24
BRANCH   1  31
HETATM   31  C   UNL     1      42.542 -16.002   2.345  1.00  0.00     0.293 C 
HETATM   32  O   UNL     1      43.441 -15.868   1.533  1.00  0.00    -0.259 OA
BRANCH  31  33
HETATM   33  O   UNL     1      42.296 -17.104   3.097  1.00  0.00    -0.318 OA
BRANCH  33  34
HETATM   34  C   UNL     1      43.420 -17.968   3.328  1.00  0.00     0.174 C 
HETATM   35  C   UNL     1      43.927 -17.798   4.747  1.00  0.00     0.034 C 
ENDBRANCH  33  34
ENDBRANCH  31  33
ENDBRANCH   1  31
TORSDOF 7
ENDMDL
MODEL 8
REMARK VINA RESULT:      -8.6      1.664      2.098
REMARK  7 active torsions:
REMARK  status: ('A' for Active; 'I' for Inactive)
REMARK    1  A    between atoms: C_2  and  O_3 
REMARK    2  A    between atoms: O_3  and  C_4 
REMARK    3  A    between atoms: C_4  and  C_5 
REMARK    4  A    between atoms: C_6  and  C_7 
REMARK    5  A    between atoms: C_18  and  S_19 
REMARK    6  A    between atoms: S_19  and  C_20 
REMARK    7  A    between atoms: C_20  and  C_21 
ROOT
HETATM    1  C   UNL     1      39.097 -12.340  -1.238  1.00  0.00     0.070 C 
HETATM    2  C   UNL     1      38.717 -12.191   0.229  1.00  0.00     0.203 C 
HETATM    3  N   UNL     1      39.757 -12.740   1.103  1.00  0.00    -0.082 N 
HETATM    4  C   UNL     1      40.985 -13.156   0.672  1.00  0.00     0.726 A 
HETATM    5  N   UNL     1      41.272 -13.099  -0.643  1.00  0.00    -0.192 N 
HETATM    6  N   UNL     1      39.585 -12.991   2.415  1.00  0.00    -0.128 NA
HETATM    7  C   UNL     1      40.788 -13.483   2.734  1.00  0.00     0.226 A 
HETATM    8  N   UNL     1      41.678 -13.594   1.691  1.00  0.00    -0.035 NA
HETATM    9  C   UNL     1      40.330 -12.763  -1.614  1.00  0.00     0.037 C 
HETATM   10  C   UNL     1      40.771 -12.942  -3.045  1.00  0.00     0.070 C 
HETATM   11  H   UNL     1      42.162 -13.472  -0.965  1.00  0.00     0.184 HD
ENDROOT
BRANCH   7  12
HETATM   12  S   UNL     1      41.136 -13.990   4.359  1.00  0.00    -0.083 SA
BRANCH  12  13
HETATM   13  C   UNL     1      42.910 -14.322   4.213  1.00  0.00     0.121 C 
BRANCH  13  14
HETATM   14  C   UNL     1      43.195 -15.802   4.299  1.00  0.00    -0.048 A 
HETATM   15  C   UNL     1      42.969 -16.636   3.191  1.00  0.00     0.020 A 
HETATM   16  C   UNL     1      43.269 -18.008   3.239  1.00  0.00    -0.025 A 
HETATM   17  C   UNL     1      43.804 -18.559   4.424  1.00  0.00    -0.026 A 
HETATM   18  C   UNL     1      43.057 -18.843   2.129  1.00  0.00     0.012 A 
HETATM   19  C   UNL     1      44.025 -17.723   5.529  1.00  0.00     0.013 A 
HETATM   20  C   UNL     1      44.110 -19.928   4.468  1.00  0.00     0.012 A 
HETATM   21  C   UNL     1      43.729 -16.359   5.467  1.00  0.00     0.009 A 
HETATM   22  C   UNL     1      43.895 -20.745   3.356  1.00  0.00     0.001 A 
HETATM   23  C   UNL     1      43.368 -20.202   2.188  1.00  0.00     0.001 A 
ENDBRANCH  13  14
ENDBRANCH  12  13
ENDBRANCH   7  12
BRANCH   2  24
HETATM   24  C   UNL     1      38.434 -10.740   0.618  1.00  0.00    -0.028 A 
HETATM   25  C   UNL     1      37.146 -10.370   1.048  1.00  0.00     0.012 A 
HETATM   26  C   UNL     1      36.871  -9.050   1.408  1.00  0.00     0.043 A 
HETATM   27  C   UNL     1      37.878  -8.095   1.341  1.00  0.00     0.116 A 
HETATM   28  F   UNL     1      37.611  -6.829   1.688  1.00  0.00    -0.206 F 
HETATM   29  C   UNL     1      39.158  -8.435   0.925  1.00  0.00     0.043 A 
HETATM   30  C   UNL     1      39.439  -9.754   0.565  1.00  0.00     0.012 A 
ENDBRANCH   2  24
BRANCH   1  31
HETATM   31  C   UNL     1      38.062 -11.952  -2.222  1.00  0.00     0.293 C 
HETATM   32  O   UNL     1      37.116 -12.652  -2.542  1.00  0.00    -0.259 OA
BRANCH  31  33
HETATM   33  O   UNL     1      38.342 -10.713  -2.697  1.00  0.00    -0.318 OA
BRANCH  33  34
HETATM   34  C   UNL     1      37.233  -9.991  -3.255  1.00  0.00     0.174 C 
HETATM   35  C   UNL     1      36.853  -8.836  -2.348  1.00  0.00     0.034 C 
ENDBRANCH  33  34
ENDBRANCH  31  33
ENDBRANCH   1  31
TORSDOF 7
ENDMDL
MODEL 9
REMARK VINA RESULT:      -8.5      6.957      9.872
REMARK  7 active torsions:
REMARK  status: ('A' for Active; 'I' for Inactive)
REMARK    1  A    between atoms: C_2  and  O_3 
REMARK    2  A    between atoms: O_3  and  C_4 
REMARK    3  A    between atoms: C_4  and  C_5 
REMARK    4  A    between atoms: C_6  and  C_7 
REMARK    5  A    between atoms: C_18  and  S_19 
REMARK    6  A    between atoms: S_19  and  C_20 
REMARK    7  A    between atoms: C_20  and  C_21 
ROOT
HETATM    1  C   UNL     1      41.498 -13.469   3.988  1.00  0.00     0.070 C 
HETATM    2  C   UNL     1      42.861 -13.689   4.629  1.00  0.00     0.203 C 
HETATM    3  N   UNL     1      43.157 -12.646   5.616  1.00  0.00    -0.082 N 
HETATM    4  C   UNL     1      42.255 -11.712   6.042  1.00  0.00     0.726 A 
HETATM    5  N   UNL     1      41.016 -11.707   5.512  1.00  0.00    -0.192 N 
HETATM    6  N   UNL     1      44.378 -12.427   6.140  1.00  0.00    -0.128 NA
HETATM    7  C   UNL     1      44.120 -11.390   6.946  1.00  0.00     0.226 A 
HETATM    8  N   UNL     1      42.825 -10.926   6.919  1.00  0.00    -0.035 NA
HETATM    9  C   UNL     1      40.641 -12.523   4.447  1.00  0.00     0.037 C 
HETATM   10  C   UNL     1      39.281 -12.245   3.855  1.00  0.00     0.070 C 
HETATM   11  H   UNL     1      40.372 -10.968   5.786  1.00  0.00     0.184 HD
ENDROOT
BRANCH   7  12
HETATM   12  S   UNL     1      45.383 -10.673   7.899  1.00  0.00    -0.083 SA
BRANCH  12  13
HETATM   13  C   UNL     1      44.578  -9.122   8.375  1.00  0.00     0.121 C 
BRANCH  13  14
HETATM   14  C   UNL     1      44.046  -9.196   9.785  1.00  0.00    -0.048 A 
HETATM   15  C   UNL     1      43.574  -8.041  10.430  1.00  0.00     0.020 A 
HETATM   16  C   UNL     1      43.035  -8.098  11.727  1.00  0.00    -0.025 A 
HETATM   17  C   UNL     1      42.972  -9.340  12.396  1.00  0.00    -0.026 A 
HETATM   18  C   UNL     1      42.549  -6.947  12.369  1.00  0.00     0.012 A 
HETATM   19  C   UNL     1      43.448 -10.491  11.750  1.00  0.00     0.013 A 
HETATM   20  C   UNL     1      42.427  -9.397  13.689  1.00  0.00     0.012 A 
HETATM   21  C   UNL     1      43.975 -10.422  10.458  1.00  0.00     0.009 A 
HETATM   22  C   UNL     1      41.947  -8.245  14.313  1.00  0.00     0.001 A 
HETATM   23  C   UNL     1      42.008  -7.020  13.653  1.00  0.00     0.001 A 
ENDBRANCH  13  14
ENDBRANCH  12  13
ENDBRANCH   7  12
BRANCH   2  24
HETATM   24  C   UNL     1      42.987 -15.065   5.285  1.00  0.00    -0.028 A 
HETATM   25  C   UNL     1      42.375 -15.304   6.529  1.00  0.00     0.012 A 
HETATM   26  C   UNL     1      42.479 -16.554   7.142  1.00  0.00     0.043 A 
HETATM   27  C   UNL     1      43.192 -17.569   6.515  1.00  0.00     0.116 A 
HETATM   28  F   UNL     1      43.289 -18.767   7.105  1.00  0.00    -0.206 F 
HETATM   29  C   UNL     1      43.801 -17.360   5.286  1.00  0.00     0.043 A 
HETATM   30  C   UNL     1      43.699 -16.112   4.668  1.00  0.00     0.012 A 
ENDBRANCH   2  24
BRANCH   1  31
HETATM   31  C   UNL     1      41.148 -14.376   2.873  1.00  0.00     0.293 C 
HETATM   32  O   UNL     1      40.372 -15.313   2.962  1.00  0.00    -0.259 OA
BRANCH  31  33
HETATM   33  O   UNL     1      41.826 -13.996   1.762  1.00  0.00    -0.318 OA
BRANCH  33  34
HETATM   34  C   UNL     1      41.084 -13.215   0.812  1.00  0.00     0.174 C 
HETATM   35  C   UNL     1      40.378 -14.125  -0.175  1.00  0.00     0.034 C 
ENDBRANCH  33  34
ENDBRANCH  31  33
ENDBRANCH   1  31
TORSDOF 7
ENDMDL
MODEL 10
REMARK VINA RESULT:      -8.5      6.209      9.032
REMARK  7 active torsions:
REMARK  status: ('A' for Active; 'I' for Inactive)
REMARK    1  A    between atoms: C_2  and  O_3 
REMARK    2  A    between atoms: O_3  and  C_4 
REMARK    3  A    between atoms: C_4  and  C_5 
REMARK    4  A    between atoms: C_6  and  C_7 
REMARK    5  A    between atoms: C_18  and  S_19 
REMARK    6  A    between atoms: S_19  and  C_20 
REMARK    7  A    between atoms: C_20  and  C_21 
ROOT
HETATM    1  C   UNL     1      41.658 -14.077   5.121  1.00  0.00     0.070 C 
HETATM    2  C   UNL     1      41.927 -12.587   4.967  1.00  0.00     0.203 C 
HETATM    3  N   UNL     1      40.857 -11.790   5.573  1.00  0.00    -0.082 N 
HETATM    4  C   UNL     1      39.850 -12.309   6.339  1.00  0.00     0.726 A 
HETATM    5  N   UNL     1      39.797 -13.640   6.537  1.00  0.00    -0.192 N 
HETATM    6  N   UNL     1      40.685 -10.471   5.362  1.00  0.00    -0.128 NA
HETATM    7  C   UNL     1      39.596 -10.240   6.105  1.00  0.00     0.226 A 
HETATM    8  N   UNL     1      39.057 -11.342   6.726  1.00  0.00    -0.035 NA
HETATM    9  C   UNL     1      40.640 -14.541   5.889  1.00  0.00     0.037 C 
HETATM   10  C   UNL     1      40.311 -16.000   6.079  1.00  0.00     0.070 C 
HETATM   11  H   UNL     1      39.008 -14.025   7.052  1.00  0.00     0.184 HD
ENDROOT
BRANCH   7  12
HETATM   12  S   UNL     1      38.911  -8.646   6.199  1.00  0.00    -0.083 SA
BRANCH  12  13
HETATM   13  C   UNL     1      39.234  -8.267   7.941  1.00  0.00     0.121 C 
BRANCH  13  14
HETATM   14  C   UNL     1      40.712  -8.328   8.245  1.00  0.00    -0.048 A 
HETATM   15  C   UNL     1      41.195  -9.160   9.268  1.00  0.00     0.020 A 
HETATM   16  C   UNL     1      42.570  -9.263   9.536  1.00  0.00    -0.025 A 
HETATM   17  C   UNL     1      43.484  -8.511   8.766  1.00  0.00    -0.026 A 
HETATM   18  C   UNL     1      43.058 -10.105  10.549  1.00  0.00     0.012 A 
HETATM   19  C   UNL     1      42.997  -7.677   7.747  1.00  0.00     0.013 A 
HETATM   20  C   UNL     1      44.858  -8.619   9.030  1.00  0.00     0.012 A 
HETATM   21  C   UNL     1      41.627  -7.590   7.485  1.00  0.00     0.009 A 
HETATM   22  C   UNL     1      45.327  -9.461  10.039  1.00  0.00     0.001 A 
HETATM   23  C   UNL     1      44.427 -10.204  10.799  1.00  0.00     0.001 A 
ENDBRANCH  13  14
ENDBRANCH  12  13
ENDBRANCH   7  12
BRANCH   2  24
HETATM   24  C   UNL     1      43.274 -12.169   5.559  1.00  0.00    -0.028 A 
HETATM   25  C   UNL     1      44.289 -11.684   4.714  1.00  0.00     0.012 A 
HETATM   26  C   UNL     1      45.523 -11.297   5.237  1.00  0.00     0.043 A 
HETATM   27  C   UNL     1      45.750 -11.392   6.605  1.00  0.00     0.116 A 
HETATM   28  F   UNL     1      46.936 -11.020   7.104  1.00  0.00    -0.206 F 
HETATM   29  C   UNL     1      44.764 -11.863   7.461  1.00  0.00     0.043 A 
HETATM   30  C   UNL     1      43.527 -12.250   6.943  1.00  0.00     0.012 A 
ENDBRANCH   2  24
BRANCH   1  31
HETATM   31  C   UNL     1      42.596 -14.984   4.425  1.00  0.00     0.293 C 
HETATM   32  O   UNL     1      43.486 -15.612   4.973  1.00  0.00    -0.259 OA
BRANCH  31  33
HETATM   33  O   UNL     1      42.305 -14.995   3.100  1.00  0.00    -0.318 OA
BRANCH  33  34
HETATM   34  C   UNL     1      41.677 -16.189   2.607  1.00  0.00     0.174 C 
HETATM   35  C   UNL     1      40.382 -15.841   1.896  1.00  0.00     0.034 C 
ENDBRANCH  33  34
ENDBRANCH  31  33
ENDBRANCH   1  31
TORSDOF 7
ENDMDL
