MODEL 1
REMARK VINA RESULT:      -9.1      0.000      0.000
REMARK  7 active torsions:
REMARK  status: ('A' for Active; 'I' for Inactive)
REMARK    1  A    between atoms: C_2  and  C_3 
REMARK    2  A    between atoms: C_4  and  O_5 
REMARK    3  A    between atoms: N_10  and  N_11 
REMARK       I    between atoms: N_11  and  C_12 
REMARK    4  A    between atoms: C_12  and  C_13 
REMARK    5  A    between atoms: C_16  and  C_17 
REMARK    6  A    between atoms: C_17  and  S_18 
REMARK    7  A    between atoms: S_18  and  C_19 
ROOT
HETATM    1  C   UNL     1      44.015 -10.766   7.962  1.00  0.00     0.033 A 
HETATM    2  C   UNL     1      42.891 -10.503   7.173  1.00  0.00     0.017 A 
HETATM    3  C   UNL     1      42.904 -10.803   5.808  1.00  0.00     0.009 A 
HETATM    4  C   UNL     1      44.045 -11.361   5.213  1.00  0.00    -0.048 A 
HETATM    5  C   UNL     1      45.186 -11.576   6.001  1.00  0.00     0.009 A 
HETATM    6  C   UNL     1      45.174 -11.280   7.367  1.00  0.00     0.017 A 
ENDROOT
BRANCH   1   7
HETATM    7  C   UNL     1      43.931 -10.494   9.423  1.00  0.00     0.271 C 
HETATM    8  N   UNL     1      42.689 -10.070   9.874  1.00  0.00    -0.243 N 
HETATM    9  H   UNL     1      41.944  -9.889   9.216  1.00  0.00     0.192 HD
HETATM   10  O   UNL     1      44.935 -10.598  10.122  1.00  0.00    -0.266 OA
BRANCH   8  11
HETATM   11  N   UNL     1      42.535  -9.730  11.181  1.00  0.00    -0.176 NA
HETATM   12  C   UNL     1      42.403  -8.477  11.511  1.00  0.00     0.064 C 
HETATM   13  C   UNL     1      42.421  -7.335  10.516  1.00  0.00     0.073 C 
BRANCH  12  14
HETATM   14  C   UNL     1      42.251  -8.160  12.965  1.00  0.00     0.023 A 
HETATM   15  C   UNL     1      41.276  -8.814  13.734  1.00  0.00     0.077 A 
HETATM   16  C   UNL     1      41.158  -8.559  15.098  1.00  0.00     0.037 A 
HETATM   17  C   UNL     1      41.995  -7.625  15.707  1.00  0.00     0.003 A 
HETATM   18  C   UNL     1      42.945  -6.943  14.948  1.00  0.00     0.001 A 
HETATM   19  C   UNL     1      43.072  -7.205  13.581  1.00  0.00     0.016 A 
BRANCH  15  20
HETATM   20  O   UNL     1      40.400  -9.730  13.215  1.00  0.00    -0.360 OA
HETATM   21  H   UNL     1      40.344  -9.583  12.242  1.00  0.00     0.217 HD
ENDBRANCH  15  20
ENDBRANCH  12  14
ENDBRANCH   8  11
ENDBRANCH   1   7
BRANCH   4  22
HETATM   22  C   UNL     1      44.046 -11.727   3.748  1.00  0.00     0.121 C 
BRANCH  22  23
HETATM   23  S   UNL     1      42.466 -12.451   3.222  1.00  0.00    -0.087 SA
BRANCH  23  24
HETATM   24  C   UNL     1      42.835 -14.123   3.421  1.00  0.00     0.167 A 
HETATM   25  N   UNL     1      43.175 -14.735   4.528  1.00  0.00    -0.223 NA
HETATM   26  C   UNL     1      43.365 -16.045   4.158  1.00  0.00     0.086 A 
HETATM   27  C   UNL     1      43.127 -16.220   2.797  1.00  0.00     0.063 A 
HETATM   28  C   UNL     1      43.742 -17.149   4.935  1.00  0.00     0.034 A 
HETATM   29  N   UNL     1      42.791 -14.967   2.351  1.00  0.00    -0.333 N 
HETATM   30  C   UNL     1      43.242 -17.453   2.151  1.00  0.00     0.032 A 
HETATM   31  H   UNL     1      42.550 -14.702   1.409  1.00  0.00     0.168 HD
HETATM   32  C   UNL     1      43.620 -18.543   2.945  1.00  0.00     0.002 A 
HETATM   33  C   UNL     1      43.867 -18.397   4.312  1.00  0.00     0.002 A 
ENDBRANCH  23  24
ENDBRANCH  22  23
ENDBRANCH   4  22
TORSDOF 7
ENDMDL
MODEL 2
REMARK VINA RESULT:      -9.0      1.102      1.857
REMARK  7 active torsions:
REMARK  status: ('A' for Active; 'I' for Inactive)
REMARK    1  A    between atoms: C_2  and  C_3 
REMARK    2  A    between atoms: C_4  and  O_5 
REMARK    3  A    between atoms: N_10  and  N_11 
REMARK       I    between atoms: N_11  and  C_12 
REMARK    4  A    between atoms: C_12  and  C_13 
REMARK    5  A    between atoms: C_16  and  C_17 
REMARK    6  A    between atoms: C_17  and  S_18 
REMARK    7  A    between atoms: S_18  and  C_19 
ROOT
HETATM    1  C   UNL     1      43.116 -10.165   7.020  1.00  0.00     0.033 A 
HETATM    2  C   UNL     1      44.171 -11.067   6.851  1.00  0.00     0.017 A 
HETATM    3  C   UNL     1      44.314 -11.766   5.649  1.00  0.00     0.009 A 
HETATM    4  C   UNL     1      43.397 -11.577   4.603  1.00  0.00    -0.048 A 
HETATM    5  C   UNL     1      42.313 -10.708   4.799  1.00  0.00     0.009 A 
HETATM    6  C   UNL     1      42.170 -10.005   5.999  1.00  0.00     0.017 A 
ENDROOT
BRANCH   1   7
HETATM    7  C   UNL     1      43.044  -9.393   8.291  1.00  0.00     0.271 C 
HETATM    8  N   UNL     1      42.274  -9.971   9.290  1.00  0.00    -0.243 N 
HETATM    9  H   UNL     1      41.746 -10.812   9.101  1.00  0.00     0.192 HD
HETATM   10  O   UNL     1      43.599  -8.301   8.374  1.00  0.00    -0.266 OA
BRANCH   8  11
HETATM   11  N   UNL     1      42.092  -9.305  10.460  1.00  0.00    -0.176 NA
HETATM   12  C   UNL     1      42.756  -9.669  11.520  1.00  0.00     0.064 C 
HETATM   13  C   UNL     1      43.736 -10.824  11.548  1.00  0.00     0.073 C 
BRANCH  12  14
HETATM   14  C   UNL     1      42.506  -8.909  12.785  1.00  0.00     0.023 A 
HETATM   15  C   UNL     1      41.426  -9.251  13.613  1.00  0.00     0.077 A 
HETATM   16  C   UNL     1      41.212  -8.580  14.814  1.00  0.00     0.037 A 
HETATM   17  C   UNL     1      42.059  -7.538  15.190  1.00  0.00     0.003 A 
HETATM   18  C   UNL     1      43.115  -7.165  14.360  1.00  0.00     0.001 A 
HETATM   19  C   UNL     1      43.338  -7.846  13.159  1.00  0.00     0.016 A 
BRANCH  15  20
HETATM   20  O   UNL     1      40.534 -10.246  13.313  1.00  0.00    -0.360 OA
HETATM   21  H   UNL     1      40.269 -10.683  14.156  1.00  0.00     0.217 HD
ENDBRANCH  15  20
ENDBRANCH  12  14
ENDBRANCH   8  11
ENDBRANCH   1   7
BRANCH   4  22
HETATM   22  C   UNL     1      43.574 -12.296   3.288  1.00  0.00     0.121 C 
BRANCH  22  23
HETATM   23  S   UNL     1      42.066 -13.166   2.773  1.00  0.00    -0.087 SA
BRANCH  23  24
HETATM   24  C   UNL     1      42.587 -14.795   2.985  1.00  0.00     0.167 A 
HETATM   25  N   UNL     1      42.509 -15.774   2.118  1.00  0.00    -0.223 NA
HETATM   26  C   UNL     1      43.051 -16.858   2.766  1.00  0.00     0.086 A 
HETATM   27  C   UNL     1      43.468 -16.517   4.051  1.00  0.00     0.063 A 
HETATM   28  C   UNL     1      43.223 -18.175   2.318  1.00  0.00     0.034 A 
HETATM   29  N   UNL     1      43.154 -15.186   4.162  1.00  0.00    -0.333 N 
HETATM   30  C   UNL     1      44.059 -17.426   4.931  1.00  0.00     0.032 A 
HETATM   31  H   UNL     1      43.310 -14.590   4.961  1.00  0.00     0.168 HD
HETATM   32  C   UNL     1      44.221 -18.735   4.464  1.00  0.00     0.002 A 
HETATM   33  C   UNL     1      43.811 -19.108   3.181  1.00  0.00     0.002 A 
ENDBRANCH  23  24
ENDBRANCH  22  23
ENDBRANCH   4  22
TORSDOF 7
ENDMDL
MODEL 3
REMARK VINA RESULT:      -8.9      1.412      1.674
REMARK  7 active torsions:
REMARK  status: ('A' for Active; 'I' for Inactive)
REMARK    1  A    between atoms: C_2  and  C_3 
REMARK    2  A    between atoms: C_4  and  O_5 
REMARK    3  A    between atoms: N_10  and  N_11 
REMARK       I    between atoms: N_11  and  C_12 
REMARK    4  A    between atoms: C_12  and  C_13 
REMARK    5  A    between atoms: C_16  and  C_17 
REMARK    6  A    between atoms: C_17  and  S_18 
REMARK    7  A    between atoms: S_18  and  C_19 
ROOT
HETATM    1  C   UNL     1      42.552 -10.203   6.546  1.00  0.00     0.033 A 
HETATM    2  C   UNL     1      41.871  -9.869   5.370  1.00  0.00     0.017 A 
HETATM    3  C   UNL     1      42.103 -10.589   4.195  1.00  0.00     0.009 A 
HETATM    4  C   UNL     1      43.027 -11.645   4.178  1.00  0.00    -0.048 A 
HETATM    5  C   UNL     1      43.743 -11.941   5.348  1.00  0.00     0.009 A 
HETATM    6  C   UNL     1      43.509 -11.225   6.526  1.00  0.00     0.017 A 
ENDROOT
BRANCH   1   7
HETATM    7  C   UNL     1      42.222  -9.454   7.790  1.00  0.00     0.271 C 
HETATM    8  N   UNL     1      42.625 -10.062   8.970  1.00  0.00    -0.243 N 
HETATM    9  H   UNL     1      43.034 -10.987   8.951  1.00  0.00     0.192 HD
HETATM   10  O   UNL     1      41.585  -8.406   7.720  1.00  0.00    -0.266 OA
BRANCH   8  11
HETATM   11  N   UNL     1      42.305  -9.487  10.159  1.00  0.00    -0.176 NA
HETATM   12  C   UNL     1      43.106  -9.621  11.177  1.00  0.00     0.064 C 
HETATM   13  C   UNL     1      44.401 -10.406  11.137  1.00  0.00     0.073 C 
BRANCH  12  14
HETATM   14  C   UNL     1      42.695  -8.979  12.465  1.00  0.00     0.023 A 
HETATM   15  C   UNL     1      41.596  -9.473  13.183  1.00  0.00     0.077 A 
HETATM   16  C   UNL     1      41.235  -8.912  14.405  1.00  0.00     0.037 A 
HETATM   17  C   UNL     1      41.951  -7.828  14.912  1.00  0.00     0.003 A 
HETATM   18  C   UNL     1      43.023  -7.304  14.192  1.00  0.00     0.001 A 
HETATM   19  C   UNL     1      43.395  -7.874  12.971  1.00  0.00     0.016 A 
BRANCH  15  20
HETATM   20  O   UNL     1      40.825 -10.520  12.751  1.00  0.00    -0.360 OA
HETATM   21  H   UNL     1      41.316 -11.356  12.931  1.00  0.00     0.217 HD
ENDBRANCH  15  20
ENDBRANCH  12  14
ENDBRANCH   8  11
ENDBRANCH   1   7
BRANCH   4  22
HETATM   22  C   UNL     1      43.246 -12.451   2.921  1.00  0.00     0.121 C 
BRANCH  22  23
HETATM   23  S   UNL     1      41.822 -13.506   2.525  1.00  0.00    -0.087 SA
BRANCH  23  24
HETATM   24  C   UNL     1      42.478 -15.044   2.944  1.00  0.00     0.167 A 
HETATM   25  N   UNL     1      43.127 -15.359   4.038  1.00  0.00    -0.223 NA
HETATM   26  C   UNL     1      43.437 -16.690   3.886  1.00  0.00     0.086 A 
HETATM   27  C   UNL     1      42.957 -17.182   2.675  1.00  0.00     0.063 A 
HETATM   28  C   UNL     1      44.131 -17.551   4.748  1.00  0.00     0.034 A 
HETATM   29  N   UNL     1      42.348 -16.100   2.092  1.00  0.00    -0.333 N 
HETATM   30  C   UNL     1      43.127 -18.506   2.264  1.00  0.00     0.032 A 
HETATM   31  H   UNL     1      41.882 -16.074   1.198  1.00  0.00     0.168 HD
HETATM   32  C   UNL     1      43.822 -19.349   3.139  1.00  0.00     0.002 A 
HETATM   33  C   UNL     1      44.318 -18.883   4.360  1.00  0.00     0.002 A 
ENDBRANCH  23  24
ENDBRANCH  22  23
ENDBRANCH   4  22
TORSDOF 7
ENDMDL
MODEL 4
REMARK VINA RESULT:      -8.8      3.080     10.838
REMARK  7 active torsions:
REMARK  status: ('A' for Active; 'I' for Inactive)
REMARK    1  A    between atoms: C_2  and  C_3 
REMARK    2  A    between atoms: C_4  and  O_5 
REMARK    3  A    between atoms: N_10  and  N_11 
REMARK       I    between atoms: N_11  and  C_12 
REMARK    4  A    between atoms: C_12  and  C_13 
REMARK    5  A    between atoms: C_16  and  C_17 
REMARK    6  A    between atoms: C_17  and  S_18 
REMARK    7  A    between atoms: S_18  and  C_19 
ROOT
HETATM    1  C   UNL     1      42.738 -12.627   5.339  1.00  0.00     0.033 A 
HETATM    2  C   UNL     1      43.878 -12.308   6.085  1.00  0.00     0.017 A 
HETATM    3  C   UNL     1      43.929 -11.118   6.817  1.00  0.00     0.009 A 
HETATM    4  C   UNL     1      42.844 -10.229   6.805  1.00  0.00    -0.048 A 
HETATM    5  C   UNL     1      41.724 -10.532   6.015  1.00  0.00     0.009 A 
HETATM    6  C   UNL     1      41.670 -11.723   5.285  1.00  0.00     0.017 A 
ENDROOT
BRANCH   1   7
HETATM    7  C   UNL     1      42.703 -13.936   4.631  1.00  0.00     0.271 C 
HETATM    8  N   UNL     1      42.734 -15.054   5.453  1.00  0.00    -0.243 N 
HETATM    9  H   UNL     1      42.859 -14.947   6.451  1.00  0.00     0.192 HD
HETATM   10  O   UNL     1      42.704 -13.966   3.404  1.00  0.00    -0.266 OA
BRANCH   8  11
HETATM   11  N   UNL     1      42.776 -16.291   4.894  1.00  0.00    -0.176 NA
HETATM   12  C   UNL     1      43.795 -17.069   5.123  1.00  0.00     0.064 C 
HETATM   13  C   UNL     1      44.980 -16.679   5.983  1.00  0.00     0.073 C 
BRANCH  12  14
HETATM   14  C   UNL     1      43.795 -18.415   4.470  1.00  0.00     0.023 A 
HETATM   15  C   UNL     1      43.588 -18.530   3.087  1.00  0.00     0.077 A 
HETATM   16  C   UNL     1      43.632 -19.774   2.463  1.00  0.00     0.037 A 
HETATM   17  C   UNL     1      43.855 -20.925   3.218  1.00  0.00     0.003 A 
HETATM   18  C   UNL     1      44.028 -20.829   4.598  1.00  0.00     0.001 A 
HETATM   19  C   UNL     1      43.996 -19.579   5.225  1.00  0.00     0.016 A 
BRANCH  15  20
HETATM   20  O   UNL     1      43.343 -17.457   2.272  1.00  0.00    -0.360 OA
HETATM   21  H   UNL     1      42.723 -17.748   1.562  1.00  0.00     0.217 HD
ENDBRANCH  15  20
ENDBRANCH  12  14
ENDBRANCH   8  11
ENDBRANCH   1   7
BRANCH   4  22
HETATM   22  C   UNL     1      42.879  -8.966   7.630  1.00  0.00     0.121 C 
BRANCH  22  23
HETATM   23  S   UNL     1      44.252  -8.960   8.818  1.00  0.00    -0.087 SA
BRANCH  23  24
HETATM   24  C   UNL     1      43.358  -9.020  10.291  1.00  0.00     0.167 A 
HETATM   25  N   UNL     1      43.694  -8.501  11.446  1.00  0.00    -0.223 NA
HETATM   26  C   UNL     1      42.658  -8.827  12.289  1.00  0.00     0.086 A 
HETATM   27  C   UNL     1      41.676  -9.554  11.618  1.00  0.00     0.063 A 
HETATM   28  C   UNL     1      42.483  -8.533  13.648  1.00  0.00     0.034 A 
HETATM   29  N   UNL     1      42.157  -9.663  10.338  1.00  0.00    -0.333 N 
HETATM   30  C   UNL     1      40.509 -10.012  12.232  1.00  0.00     0.032 A 
HETATM   31  H   UNL     1      41.714 -10.129   9.561  1.00  0.00     0.168 HD
HETATM   32  C   UNL     1      40.354  -9.708  13.590  1.00  0.00     0.002 A 
HETATM   33  C   UNL     1      41.323  -8.983  14.289  1.00  0.00     0.002 A 
ENDBRANCH  23  24
ENDBRANCH  22  23
ENDBRANCH   4  22
TORSDOF 7
ENDMDL
MODEL 5
REMARK VINA RESULT:      -8.8      3.618     10.287
REMARK  7 active torsions:
REMARK  status: ('A' for Active; 'I' for Inactive)
REMARK    1  A    between atoms: C_2  and  C_3 
REMARK    2  A    between atoms: C_4  and  O_5 
REMARK    3  A    between atoms: N_10  and  N_11 
REMARK       I    between atoms: N_11  and  C_12 
REMARK    4  A    between atoms: C_12  and  C_13 
REMARK    5  A    between atoms: C_16  and  C_17 
REMARK    6  A    between atoms: C_17  and  S_18 
REMARK    7  A    between atoms: S_18  and  C_19 
ROOT
HETATM    1  C   UNL     1      41.830 -12.807   5.266  1.00  0.00     0.033 A 
HETATM    2  C   UNL     1      42.655 -11.733   4.917  1.00  0.00     0.017 A 
HETATM    3  C   UNL     1      42.172 -10.424   4.984  1.00  0.00     0.009 A 
HETATM    4  C   UNL     1      40.853 -10.173   5.393  1.00  0.00    -0.048 A 
HETATM    5  C   UNL     1      40.016 -11.258   5.693  1.00  0.00     0.009 A 
HETATM    6  C   UNL     1      40.499 -12.568   5.630  1.00  0.00     0.017 A 
ENDROOT
BRANCH   1   7
HETATM    7  C   UNL     1      42.410 -14.178   5.245  1.00  0.00     0.271 C 
HETATM    8  N   UNL     1      41.806 -15.061   4.359  1.00  0.00    -0.243 N 
HETATM    9  H   UNL     1      40.982 -14.781   3.846  1.00  0.00     0.192 HD
HETATM   10  O   UNL     1      43.318 -14.469   6.018  1.00  0.00    -0.266 OA
BRANCH   8  11
HETATM   11  N   UNL     1      42.222 -16.354   4.322  1.00  0.00    -0.176 NA
HETATM   12  C   UNL     1      42.880 -16.791   3.286  1.00  0.00     0.064 C 
HETATM   13  C   UNL     1      43.215 -15.941   2.077  1.00  0.00     0.073 C 
BRANCH  12  14
HETATM   14  C   UNL     1      43.300 -18.227   3.292  1.00  0.00     0.023 A 
HETATM   15  C   UNL     1      43.853 -18.797   4.449  1.00  0.00     0.077 A 
HETATM   16  C   UNL     1      44.205 -20.144   4.479  1.00  0.00     0.037 A 
HETATM   17  C   UNL     1      44.033 -20.934   3.343  1.00  0.00     0.003 A 
HETATM   18  C   UNL     1      43.517 -20.372   2.176  1.00  0.00     0.001 A 
HETATM   19  C   UNL     1      43.153 -19.023   2.148  1.00  0.00     0.016 A 
BRANCH  15  20
HETATM   20  O   UNL     1      44.076 -18.092   5.602  1.00  0.00    -0.360 OA
HETATM   21  H   UNL     1      43.353 -18.309   6.237  1.00  0.00     0.217 HD
ENDBRANCH  15  20
ENDBRANCH  12  14
ENDBRANCH   8  11
ENDBRANCH   1   7
BRANCH   4  22
HETATM   22  C   UNL     1      40.343  -8.757   5.509  1.00  0.00     0.121 C 
BRANCH  22  23
HETATM   23  S   UNL     1      39.989  -8.294   7.229  1.00  0.00    -0.087 SA
BRANCH  23  24
HETATM   24  C   UNL     1      41.527  -8.622   7.936  1.00  0.00     0.167 A 
HETATM   25  N   UNL     1      42.675  -8.071   7.631  1.00  0.00    -0.223 NA
HETATM   26  C   UNL     1      43.584  -8.673   8.469  1.00  0.00     0.086 A 
HETATM   27  C   UNL     1      42.961  -9.602   9.299  1.00  0.00     0.063 A 
HETATM   28  C   UNL     1      44.967  -8.474   8.581  1.00  0.00     0.034 A 
HETATM   29  N   UNL     1      41.640  -9.548   8.931  1.00  0.00    -0.333 N 
HETATM   30  C   UNL     1      43.646 -10.357  10.253  1.00  0.00     0.032 A 
HETATM   31  H   UNL     1      40.880 -10.085   9.317  1.00  0.00     0.168 HD
HETATM   32  C   UNL     1      45.026 -10.144  10.348  1.00  0.00     0.002 A 
HETATM   33  C   UNL     1      45.679  -9.220   9.528  1.00  0.00     0.002 A 
ENDBRANCH  23  24
ENDBRANCH  22  23
ENDBRANCH   4  22
TORSDOF 7
ENDMDL
MODEL 6
REMARK VINA RESULT:      -8.5      2.984     10.678
REMARK  7 active torsions:
REMARK  status: ('A' for Active; 'I' for Inactive)
REMARK    1  A    between atoms: C_2  and  C_3 
REMARK    2  A    between atoms: C_4  and  O_5 
REMARK    3  A    between atoms: N_10  and  N_11 
REMARK       I    between atoms: N_11  and  C_12 
REMARK    4  A    between atoms: C_12  and  C_13 
REMARK    5  A    between atoms: C_16  and  C_17 
REMARK    6  A    between atoms: C_17  and  S_18 
REMARK    7  A    between atoms: S_18  and  C_19 
ROOT
HETATM    1  C   UNL     1      42.059 -12.770   5.634  1.00  0.00     0.033 A 
HETATM    2  C   UNL     1      42.966 -11.712   5.506  1.00  0.00     0.017 A 
HETATM    3  C   UNL     1      42.535 -10.393   5.665  1.00  0.00     0.009 A 
HETATM    4  C   UNL     1      41.188 -10.113   5.945  1.00  0.00    -0.048 A 
HETATM    5  C   UNL     1      40.275 -11.176   6.021  1.00  0.00     0.009 A 
HETATM    6  C   UNL     1      40.705 -12.497   5.866  1.00  0.00     0.017 A 
ENDROOT
BRANCH   1   7
HETATM    7  C   UNL     1      42.577 -14.161   5.524  1.00  0.00     0.271 C 
HETATM    8  N   UNL     1      41.954 -14.950   4.567  1.00  0.00    -0.243 N 
HETATM    9  H   UNL     1      41.154 -14.597   4.061  1.00  0.00     0.192 HD
HETATM   10  O   UNL     1      43.455 -14.548   6.291  1.00  0.00    -0.266 OA
BRANCH   8  11
HETATM   11  N   UNL     1      42.312 -16.255   4.444  1.00  0.00    -0.176 NA
HETATM   12  C   UNL     1      42.930 -16.656   3.370  1.00  0.00     0.064 C 
HETATM   13  C   UNL     1      43.277 -15.750   2.206  1.00  0.00     0.073 C 
BRANCH  12  14
HETATM   14  C   UNL     1      43.287 -18.107   3.282  1.00  0.00     0.023 A 
HETATM   15  C   UNL     1      43.898 -18.751   4.368  1.00  0.00     0.077 A 
HETATM   16  C   UNL     1      44.192 -20.112   4.313  1.00  0.00     0.037 A 
HETATM   17  C   UNL     1      43.906 -20.840   3.159  1.00  0.00     0.003 A 
HETATM   18  C   UNL     1      43.331 -20.204   2.060  1.00  0.00     0.001 A 
HETATM   19  C   UNL     1      43.024 -18.841   2.118  1.00  0.00     0.016 A 
BRANCH  15  20
HETATM   20  O   UNL     1      44.233 -18.110   5.532  1.00  0.00    -0.360 OA
HETATM   21  H   UNL     1      43.549 -18.329   6.208  1.00  0.00     0.217 HD
ENDBRANCH  15  20
ENDBRANCH  12  14
ENDBRANCH   8  11
ENDBRANCH   1   7
BRANCH   4  22
HETATM   22  C   UNL     1      40.729  -8.692   6.161  1.00  0.00     0.121 C 
BRANCH  22  23
HETATM   23  S   UNL     1      39.491  -8.565   7.483  1.00  0.00    -0.087 SA
BRANCH  23  24
HETATM   24  C   UNL     1      40.531  -8.611   8.856  1.00  0.00     0.167 A 
HETATM   25  N   UNL     1      41.558  -7.835   9.101  1.00  0.00    -0.223 NA
HETATM   26  C   UNL     1      42.048  -8.278  10.307  1.00  0.00     0.086 A 
HETATM   27  C   UNL     1      41.291  -9.340  10.797  1.00  0.00     0.063 A 
HETATM   28  C   UNL     1      43.143  -7.817  11.052  1.00  0.00     0.034 A 
HETATM   29  N   UNL     1      40.326  -9.531   9.841  1.00  0.00    -0.333 N 
HETATM   30  C   UNL     1      41.563  -9.980  12.008  1.00  0.00     0.032 A 
HETATM   31  H   UNL     1      39.590 -10.221   9.851  1.00  0.00     0.168 HD
HETATM   32  C   UNL     1      42.659  -9.505  12.736  1.00  0.00     0.002 A 
HETATM   33  C   UNL     1      43.439  -8.443  12.269  1.00  0.00     0.002 A 
ENDBRANCH  23  24
ENDBRANCH  22  23
ENDBRANCH   4  22
TORSDOF 7
ENDMDL
MODEL 7
REMARK VINA RESULT:      -8.3      4.774     12.657
REMARK  7 active torsions:
REMARK  status: ('A' for Active; 'I' for Inactive)
REMARK    1  A    between atoms: C_2  and  C_3 
REMARK    2  A    between atoms: C_4  and  O_5 
REMARK    3  A    between atoms: N_10  and  N_11 
REMARK       I    between atoms: N_11  and  C_12 
REMARK    4  A    between atoms: C_12  and  C_13 
REMARK    5  A    between atoms: C_16  and  C_17 
REMARK    6  A    between atoms: C_17  and  S_18 
REMARK    7  A    between atoms: S_18  and  C_19 
ROOT
HETATM    1  C   UNL     1      42.403  -8.735  13.186  1.00  0.00     0.033 A 
HETATM    2  C   UNL     1      41.421  -9.071  14.123  1.00  0.00     0.017 A 
HETATM    3  C   UNL     1      41.265  -8.309  15.284  1.00  0.00     0.009 A 
HETATM    4  C   UNL     1      42.097  -7.205  15.526  1.00  0.00    -0.048 A 
HETATM    5  C   UNL     1      43.113  -6.904  14.607  1.00  0.00     0.009 A 
HETATM    6  C   UNL     1      43.268  -7.663  13.443  1.00  0.00     0.017 A 
ENDROOT
BRANCH   1   7
HETATM    7  C   UNL     1      42.486  -9.534  11.932  1.00  0.00     0.271 C 
HETATM    8  N   UNL     1      43.752  -9.618  11.369  1.00  0.00    -0.243 N 
HETATM    9  H   UNL     1      44.519  -9.091  11.762  1.00  0.00     0.192 HD
HETATM   10  O   UNL     1      41.467 -10.013  11.445  1.00  0.00    -0.266 OA
BRANCH   8  11
HETATM   11  N   UNL     1      43.912 -10.268  10.186  1.00  0.00    -0.176 NA
HETATM   12  C   UNL     1      44.180  -9.588   9.108  1.00  0.00     0.064 C 
HETATM   13  C   UNL     1      44.317  -8.080   9.071  1.00  0.00     0.073 C 
BRANCH  12  14
HETATM   14  C   UNL     1      44.332 -10.354   7.831  1.00  0.00     0.023 A 
HETATM   15  C   UNL     1      43.199 -10.744   7.101  1.00  0.00     0.077 A 
HETATM   16  C   UNL     1      43.331 -11.417   5.889  1.00  0.00     0.037 A 
HETATM   17  C   UNL     1      44.599 -11.734   5.404  1.00  0.00     0.003 A 
HETATM   18  C   UNL     1      45.732 -11.384   6.136  1.00  0.00     0.001 A 
HETATM   19  C   UNL     1      45.602 -10.698   7.348  1.00  0.00     0.016 A 
BRANCH  15  20
HETATM   20  O   UNL     1      41.917 -10.492   7.512  1.00  0.00    -0.360 OA
HETATM   21  H   UNL     1      41.607 -11.266   8.039  1.00  0.00     0.217 HD
ENDBRANCH  15  20
ENDBRANCH  12  14
ENDBRANCH   8  11
ENDBRANCH   1   7
BRANCH   4  22
HETATM   22  C   UNL     1      41.902  -6.354  16.758  1.00  0.00     0.121 C 
BRANCH  22  23
HETATM   23  S   UNL     1      40.166  -6.301  17.287  1.00  0.00    -0.087 SA
BRANCH  23  24
HETATM   24  C   UNL     1      40.298  -7.137  18.789  1.00  0.00     0.167 A 
HETATM   25  N   UNL     1      40.445  -6.612  19.980  1.00  0.00    -0.223 NA
HETATM   26  C   UNL     1      40.503  -7.690  20.831  1.00  0.00     0.086 A 
HETATM   27  C   UNL     1      40.382  -8.888  20.131  1.00  0.00     0.063 A 
HETATM   28  C   UNL     1      40.658  -7.724  22.224  1.00  0.00     0.034 A 
HETATM   29  N   UNL     1      40.254  -8.499  18.821  1.00  0.00    -0.333 N 
HETATM   30  C   UNL     1      40.403 -10.141  20.747  1.00  0.00     0.032 A 
HETATM   31  H   UNL     1      40.144  -9.099  18.018  1.00  0.00     0.168 HD
HETATM   32  C   UNL     1      40.558 -10.153  22.138  1.00  0.00     0.002 A 
HETATM   33  C   UNL     1      40.685  -8.967  22.867  1.00  0.00     0.002 A 
ENDBRANCH  23  24
ENDBRANCH  22  23
ENDBRANCH   4  22
TORSDOF 7
ENDMDL
MODEL 8
REMARK VINA RESULT:      -8.2      7.412     10.398
REMARK  7 active torsions:
REMARK  status: ('A' for Active; 'I' for Inactive)
REMARK    1  A    between atoms: C_2  and  C_3 
REMARK    2  A    between atoms: C_4  and  O_5 
REMARK    3  A    between atoms: N_10  and  N_11 
REMARK       I    between atoms: N_11  and  C_12 
REMARK    4  A    between atoms: C_12  and  C_13 
REMARK    5  A    between atoms: C_16  and  C_17 
REMARK    6  A    between atoms: C_17  and  S_18 
REMARK    7  A    between atoms: S_18  and  C_19 
ROOT
HETATM    1  C   UNL     1      40.429 -12.769   3.038  1.00  0.00     0.033 A 
HETATM    2  C   UNL     1      39.064 -12.745   2.734  1.00  0.00     0.017 A 
HETATM    3  C   UNL     1      38.480 -11.589   2.209  1.00  0.00     0.009 A 
HETATM    4  C   UNL     1      39.253 -10.439   1.989  1.00  0.00    -0.048 A 
HETATM    5  C   UNL     1      40.611 -10.454   2.344  1.00  0.00     0.009 A 
HETATM    6  C   UNL     1      41.197 -11.611   2.866  1.00  0.00     0.017 A 
ENDROOT
BRANCH   1   7
HETATM    7  C   UNL     1      41.020 -14.044   3.530  1.00  0.00     0.271 C 
HETATM    8  N   UNL     1      41.176 -15.033   2.569  1.00  0.00    -0.243 N 
HETATM    9  H   UNL     1      40.822 -14.891   1.633  1.00  0.00     0.192 HD
HETATM   10  O   UNL     1      41.279 -14.176   4.723  1.00  0.00    -0.266 OA
BRANCH   8  11
HETATM   11  N   UNL     1      41.642 -16.254   2.940  1.00  0.00    -0.176 NA
HETATM   12  C   UNL     1      42.759 -16.698   2.439  1.00  0.00     0.064 C 
HETATM   13  C   UNL     1      43.596 -15.936   1.432  1.00  0.00     0.073 C 
BRANCH  12  14
HETATM   14  C   UNL     1      43.217 -18.055   2.872  1.00  0.00     0.023 A 
HETATM   15  C   UNL     1      43.953 -18.209   4.057  1.00  0.00     0.077 A 
HETATM   16  C   UNL     1      44.343 -19.473   4.492  1.00  0.00     0.037 A 
HETATM   17  C   UNL     1      44.028 -20.599   3.733  1.00  0.00     0.003 A 
HETATM   18  C   UNL     1      43.328 -20.458   2.536  1.00  0.00     0.001 A 
HETATM   19  C   UNL     1      42.924 -19.191   2.103  1.00  0.00     0.016 A 
BRANCH  15  20
HETATM   20  O   UNL     1      44.323 -17.157   4.853  1.00  0.00    -0.360 OA
HETATM   21  H   UNL     1      43.530 -16.590   4.998  1.00  0.00     0.217 HD
ENDBRANCH  15  20
ENDBRANCH  12  14
ENDBRANCH   8  11
ENDBRANCH   1   7
BRANCH   4  22
HETATM   22  C   UNL     1      38.634  -9.204   1.381  1.00  0.00     0.121 C 
BRANCH  22  23
HETATM   23  S   UNL     1      39.328  -8.824  -0.254  1.00  0.00    -0.087 SA
BRANCH  23  24
HETATM   24  C   UNL     1      39.039 -10.328  -1.045  1.00  0.00     0.167 A 
HETATM   25  N   UNL     1      37.883 -10.819  -1.419  1.00  0.00    -0.223 NA
HETATM   26  C   UNL     1      38.190 -12.031  -1.993  1.00  0.00     0.086 A 
HETATM   27  C   UNL     1      39.563 -12.265  -1.966  1.00  0.00     0.063 A 
HETATM   28  C   UNL     1      37.343 -12.991  -2.564  1.00  0.00     0.034 A 
HETATM   29  N   UNL     1      40.080 -11.154  -1.349  1.00  0.00    -0.333 N 
HETATM   30  C   UNL     1      40.153 -13.418  -2.486  1.00  0.00     0.032 A 
HETATM   31  H   UNL     1      41.050 -10.966  -1.151  1.00  0.00     0.168 HD
HETATM   32  C   UNL     1      39.291 -14.364  -3.051  1.00  0.00     0.002 A 
HETATM   33  C   UNL     1      37.909 -14.158  -3.090  1.00  0.00     0.002 A 
ENDBRANCH  23  24
ENDBRANCH  22  23
ENDBRANCH   4  22
TORSDOF 7
ENDMDL
MODEL 9
REMARK VINA RESULT:      -8.0      6.670      9.864
REMARK  7 active torsions:
REMARK  status: ('A' for Active; 'I' for Inactive)
REMARK    1  A    between atoms: C_2  and  C_3 
REMARK    2  A    between atoms: C_4  and  O_5 
REMARK    3  A    between atoms: N_10  and  N_11 
REMARK       I    between atoms: N_11  and  C_12 
REMARK    4  A    between atoms: C_12  and  C_13 
REMARK    5  A    between atoms: C_16  and  C_17 
REMARK    6  A    between atoms: C_17  and  S_18 
REMARK    7  A    between atoms: S_18  and  C_19 
ROOT
HETATM    1  C   UNL     1      41.947 -12.732   3.767  1.00  0.00     0.033 A 
HETATM    2  C   UNL     1      40.776 -12.203   4.318  1.00  0.00     0.017 A 
HETATM    3  C   UNL     1      40.277 -10.979   3.866  1.00  0.00     0.009 A 
HETATM    4  C   UNL     1      40.949 -10.263   2.864  1.00  0.00    -0.048 A 
HETATM    5  C   UNL     1      42.150 -10.776   2.352  1.00  0.00     0.009 A 
HETATM    6  C   UNL     1      42.649 -12.002   2.800  1.00  0.00     0.017 A 
ENDROOT
BRANCH   1   7
HETATM    7  C   UNL     1      42.403 -14.072   4.231  1.00  0.00     0.271 C 
HETATM    8  N   UNL     1      43.129 -14.803   3.301  1.00  0.00    -0.243 N 
HETATM    9  H   UNL     1      43.245 -14.455   2.359  1.00  0.00     0.192 HD
HETATM   10  O   UNL     1      42.082 -14.474   5.346  1.00  0.00    -0.266 OA
BRANCH   8  11
HETATM   11  N   UNL     1      43.526 -16.065   3.610  1.00  0.00    -0.176 NA
HETATM   12  C   UNL     1      42.890 -17.084   3.105  1.00  0.00     0.064 C 
HETATM   13  C   UNL     1      41.695 -16.962   2.182  1.00  0.00     0.073 C 
BRANCH  12  14
HETATM   14  C   UNL     1      43.362 -18.451   3.491  1.00  0.00     0.023 A 
HETATM   15  C   UNL     1      43.732 -18.723   4.817  1.00  0.00     0.077 A 
HETATM   16  C   UNL     1      44.128 -20.003   5.195  1.00  0.00     0.037 A 
HETATM   17  C   UNL     1      44.188 -21.022   4.246  1.00  0.00     0.003 A 
HETATM   18  C   UNL     1      43.858 -20.757   2.918  1.00  0.00     0.001 A 
HETATM   19  C   UNL     1      43.448 -19.475   2.539  1.00  0.00     0.016 A 
BRANCH  15  20
HETATM   20  O   UNL     1      43.722 -17.779   5.809  1.00  0.00    -0.360 OA
HETATM   21  H   UNL     1      43.169 -17.021   5.504  1.00  0.00     0.217 HD
ENDBRANCH  15  20
ENDBRANCH  12  14
ENDBRANCH   8  11
ENDBRANCH   1   7
BRANCH   4  22
HETATM   22  C   UNL     1      40.388  -8.962   2.343  1.00  0.00     0.121 C 
BRANCH  22  23
HETATM   23  S   UNL     1      38.813  -9.195   1.470  1.00  0.00    -0.087 SA
BRANCH  23  24
HETATM   24  C   UNL     1      39.308 -10.346   0.287  1.00  0.00     0.167 A 
HETATM   25  N   UNL     1      40.180 -10.172  -0.676  1.00  0.00    -0.223 NA
HETATM   26  C   UNL     1      40.214 -11.377  -1.337  1.00  0.00     0.086 A 
HETATM   27  C   UNL     1      39.346 -12.295  -0.750  1.00  0.00     0.063 A 
HETATM   28  C   UNL     1      40.968 -11.764  -2.453  1.00  0.00     0.034 A 
HETATM   29  N   UNL     1      38.778 -11.602   0.289  1.00  0.00    -0.333 N 
HETATM   30  C   UNL     1      39.184 -13.601  -1.216  1.00  0.00     0.032 A 
HETATM   31  H   UNL     1      38.093 -11.945   0.944  1.00  0.00     0.168 HD
HETATM   32  C   UNL     1      39.946 -13.968  -2.331  1.00  0.00     0.002 A 
HETATM   33  C   UNL     1      40.823 -13.068  -2.942  1.00  0.00     0.002 A 
ENDBRANCH  23  24
ENDBRANCH  22  23
ENDBRANCH   4  22
TORSDOF 7
ENDMDL
MODEL 10
REMARK VINA RESULT:      -8.0      3.417     11.063
REMARK  7 active torsions:
REMARK  status: ('A' for Active; 'I' for Inactive)
REMARK    1  A    between atoms: C_2  and  C_3 
REMARK    2  A    between atoms: C_4  and  O_5 
REMARK    3  A    between atoms: N_10  and  N_11 
REMARK       I    between atoms: N_11  and  C_12 
REMARK    4  A    between atoms: C_12  and  C_13 
REMARK    5  A    between atoms: C_16  and  C_17 
REMARK    6  A    between atoms: C_17  and  S_18 
REMARK    7  A    between atoms: S_18  and  C_19 
ROOT
HETATM    1  C   UNL     1      44.171 -10.643   8.261  1.00  0.00     0.033 A 
HETATM    2  C   UNL     1      45.216 -10.479   9.176  1.00  0.00     0.017 A 
HETATM    3  C   UNL     1      45.006  -9.772  10.363  1.00  0.00     0.009 A 
HETATM    4  C   UNL     1      43.752  -9.211  10.645  1.00  0.00    -0.048 A 
HETATM    5  C   UNL     1      42.723  -9.336   9.699  1.00  0.00     0.009 A 
HETATM    6  C   UNL     1      42.929 -10.047   8.513  1.00  0.00     0.017 A 
ENDROOT
BRANCH   1   7
HETATM    7  C   UNL     1      44.422 -11.462   7.043  1.00  0.00     0.271 C 
HETATM    8  N   UNL     1      43.300 -12.073   6.502  1.00  0.00    -0.243 N 
HETATM    9  H   UNL     1      42.410 -12.014   6.976  1.00  0.00     0.192 HD
HETATM   10  O   UNL     1      45.568 -11.600   6.625  1.00  0.00    -0.266 OA
BRANCH   8  11
HETATM   11  N   UNL     1      43.443 -12.898   5.431  1.00  0.00    -0.176 NA
HETATM   12  C   UNL     1      42.660 -13.931   5.303  1.00  0.00     0.064 C 
HETATM   13  C   UNL     1      41.577 -14.299   6.296  1.00  0.00     0.073 C 
BRANCH  12  14
HETATM   14  C   UNL     1      42.871 -14.812   4.112  1.00  0.00     0.023 A 
HETATM   15  C   UNL     1      43.106 -14.249   2.848  1.00  0.00     0.077 A 
HETATM   16  C   UNL     1      43.350 -15.060   1.743  1.00  0.00     0.037 A 
HETATM   17  C   UNL     1      43.333 -16.447   1.880  1.00  0.00     0.003 A 
HETATM   18  C   UNL     1      43.066 -17.021   3.123  1.00  0.00     0.001 A 
HETATM   19  C   UNL     1      42.833 -16.208   4.236  1.00  0.00     0.016 A 
BRANCH  15  20
HETATM   20  O   UNL     1      43.121 -12.899   2.617  1.00  0.00    -0.360 OA
HETATM   21  H   UNL     1      43.683 -12.730   1.825  1.00  0.00     0.217 HD
ENDBRANCH  15  20
ENDBRANCH  12  14
ENDBRANCH   8  11
ENDBRANCH   1   7
BRANCH   4  22
HETATM   22  C   UNL     1      43.511  -8.485  11.946  1.00  0.00     0.121 C 
BRANCH  22  23
HETATM   23  S   UNL     1      42.463  -9.440  13.081  1.00  0.00    -0.087 SA
BRANCH  23  24
HETATM   24  C   UNL     1      41.110  -8.377  13.186  1.00  0.00     0.167 A 
HETATM   25  N   UNL     1      40.787  -7.600  14.191  1.00  0.00    -0.223 NA
HETATM   26  C   UNL     1      39.636  -6.966  13.784  1.00  0.00     0.086 A 
HETATM   27  C   UNL     1      39.268  -7.370  12.503  1.00  0.00     0.063 A 
HETATM   28  C   UNL     1      38.846  -6.026  14.459  1.00  0.00     0.034 A 
HETATM   29  N   UNL     1      40.233  -8.278  12.147  1.00  0.00    -0.333 N 
HETATM   30  C   UNL     1      38.139  -6.882  11.841  1.00  0.00     0.032 A 
HETATM   31  H   UNL     1      40.298  -8.786  11.279  1.00  0.00     0.168 HD
HETATM   32  C   UNL     1      37.364  -5.944  12.532  1.00  0.00     0.002 A 
HETATM   33  C   UNL     1      37.708  -5.521  13.819  1.00  0.00     0.002 A 
ENDBRANCH  23  24
ENDBRANCH  22  23
ENDBRANCH   4  22
TORSDOF 7
ENDMDL
