MODEL 1
REMARK VINA RESULT:      -9.3      0.000      0.000
REMARK  5 active torsions:
REMARK  status: ('A' for Active; 'I' for Inactive)
REMARK    1  A    between atoms: C_2  and  N_3 
REMARK    2  A    between atoms: C_11  and  C_12 
REMARK    3  A    between atoms: C_14  and  C_15 
REMARK    4  A    between atoms: C_15  and  O_16 
REMARK    5  A    between atoms: O_16  and  C_17 
ROOT
HETATM    1  N   UNL     1      42.011  -8.449  12.358  1.00  0.00    -0.067 N 
HETATM    2  H   UNL     1      41.505  -9.342  12.437  1.00  0.00     0.280 HD
HETATM    3  C   UNL     1      41.399  -7.726  11.158  1.00  0.00     0.281 C 
HETATM    4  C   UNL     1      41.792  -8.383   9.881  1.00  0.00     0.018 A 
HETATM    5  C   UNL     1      42.808  -9.309   9.738  1.00  0.00    -0.023 A 
HETATM    6  C   UNL     1      42.944  -9.724   8.375  1.00  0.00     0.073 A 
HETATM    7  C   UNL     1      42.043  -9.083   7.557  1.00  0.00     0.088 A 
HETATM    8  N   UNL     1      41.980  -9.288   6.221  1.00  0.00    -0.357 N 
HETATM    9  C   UNL     1      42.531 -10.537   5.713  1.00  0.00     0.243 C 
HETATM   10  N   UNL     1      43.742 -10.850   6.434  1.00  0.00    -0.330 N 
HETATM   11  C   UNL     1      43.876 -10.665   7.783  1.00  0.00     0.256 C 
HETATM   12  O   UNL     1      44.749 -11.234   8.430  1.00  0.00    -0.267 OA
HETATM   13  S   UNL     1      41.028  -8.016   8.404  1.00  0.00    -0.074 SA
HETATM   14  C   UNL     1      43.611  -9.774  10.913  1.00  0.00     0.068 C 
HETATM   15  C   UNL     1      43.479  -8.805  12.099  1.00  0.00     0.240 C 
HETATM   16  H   UNL     1      41.101  -9.053   5.766  1.00  0.00     0.162 HD
HETATM   17  H   UNL     1      44.364 -11.541   6.042  1.00  0.00     0.165 HD
ENDROOT
BRANCH   9  18
HETATM   18  C   UNL     1      41.604 -11.717   5.748  1.00  0.00     0.095 A 
HETATM   19  O   UNL     1      42.140 -12.933   5.419  1.00  0.00    -0.313 OA
HETATM   20  C   UNL     1      41.143 -13.859   5.511  1.00  0.00     0.077 A 
HETATM   21  C   UNL     1      39.976 -13.253   5.925  1.00  0.00     0.037 A 
HETATM   22  C   UNL     1      40.272 -11.878   6.084  1.00  0.00     0.039 A 
BRANCH  20  23
HETATM   23  C   UNL     1      41.502 -15.269   5.201  1.00  0.00     0.240 C 
BRANCH  23  24
HETATM   24  O   UNL     1      42.703 -15.239   4.416  1.00  0.00    -0.341 OA
BRANCH  24  25
HETATM   25  C   UNL     1      42.995 -16.453   3.845  1.00  0.00     0.112 A 
HETATM   26  C   UNL     1      42.345 -16.927   2.696  1.00  0.00     0.070 A 
HETATM   27 CL   UNL     1      41.111 -16.023   1.896  1.00  0.00    -0.081 Cl
HETATM   28  C   UNL     1      42.656 -18.188   2.179  1.00  0.00     0.050 A 
HETATM   29  C   UNL     1      43.596 -18.986   2.822  1.00  0.00     0.037 A 
HETATM   30 CL   UNL     1      43.967 -20.543   2.190  1.00  0.00    -0.084 Cl
HETATM   31  C   UNL     1      44.225 -18.547   3.984  1.00  0.00     0.050 A 
HETATM   32  C   UNL     1      43.917 -17.286   4.498  1.00  0.00     0.070 A 
HETATM   33 CL   UNL     1      44.700 -16.786   5.955  1.00  0.00    -0.081 Cl
ENDBRANCH  24  25
ENDBRANCH  23  24
ENDBRANCH  20  23
ENDBRANCH   9  18
BRANCH   1  34
HETATM   34  C   UNL     1      41.849  -7.697  13.654  1.00  0.00     0.231 C 
HETATM   35  C   UNL     1      43.179  -7.158  14.146  1.00  0.00     0.034 C 
ENDBRANCH   1  34
TORSDOF 5
ENDMDL
MODEL 2
REMARK VINA RESULT:      -9.1      0.377      1.669
REMARK  5 active torsions:
REMARK  status: ('A' for Active; 'I' for Inactive)
REMARK    1  A    between atoms: C_2  and  N_3 
REMARK    2  A    between atoms: C_11  and  C_12 
REMARK    3  A    between atoms: C_14  and  C_15 
REMARK    4  A    between atoms: C_15  and  O_16 
REMARK    5  A    between atoms: O_16  and  C_17 
ROOT
HETATM    1  N   UNL     1      41.731  -8.303  12.484  1.00  0.00    -0.067 N 
HETATM    2  H   UNL     1      41.203  -9.184  12.540  1.00  0.00     0.280 HD
HETATM    3  C   UNL     1      41.200  -7.575  11.247  1.00  0.00     0.281 C 
HETATM    4  C   UNL     1      41.649  -8.249   9.998  1.00  0.00     0.018 A 
HETATM    5  C   UNL     1      42.652  -9.197   9.916  1.00  0.00    -0.023 A 
HETATM    6  C   UNL     1      42.854  -9.624   8.566  1.00  0.00     0.073 A 
HETATM    7  C   UNL     1      42.012  -8.971   7.696  1.00  0.00     0.088 A 
HETATM    8  N   UNL     1      42.018  -9.185   6.359  1.00  0.00    -0.357 N 
HETATM    9  C   UNL     1      42.571 -10.448   5.890  1.00  0.00     0.243 C 
HETATM   10  N   UNL     1      43.733 -10.780   6.678  1.00  0.00    -0.330 N 
HETATM   11  C   UNL     1      43.797 -10.588   8.032  1.00  0.00     0.256 C 
HETATM   12  O   UNL     1      44.622 -11.170   8.728  1.00  0.00    -0.267 OA
HETATM   13  S   UNL     1      40.974  -7.878   8.480  1.00  0.00    -0.074 SA
HETATM   14  C   UNL     1      43.380  -9.670  11.136  1.00  0.00     0.068 C 
HETATM   15  C   UNL     1      43.203  -8.689  12.308  1.00  0.00     0.240 C 
HETATM   16  H   UNL     1      41.170  -8.934   5.855  1.00  0.00     0.162 HD
HETATM   17  H   UNL     1      44.361 -11.486   6.325  1.00  0.00     0.165 HD
ENDROOT
BRANCH   9  18
HETATM   18  C   UNL     1      41.618 -11.609   5.881  1.00  0.00     0.095 A 
HETATM   19  O   UNL     1      42.143 -12.835   5.571  1.00  0.00    -0.313 OA
HETATM   20  C   UNL     1      41.124 -13.740   5.617  1.00  0.00     0.077 A 
HETATM   21  C   UNL     1      39.954 -13.111   5.983  1.00  0.00     0.037 A 
HETATM   22  C   UNL     1      40.271 -11.743   6.160  1.00  0.00     0.039 A 
BRANCH  20  23
HETATM   23  C   UNL     1      41.467 -15.156   5.316  1.00  0.00     0.240 C 
BRANCH  23  24
HETATM   24  O   UNL     1      42.584 -15.141   4.415  1.00  0.00    -0.341 OA
BRANCH  24  25
HETATM   25  C   UNL     1      42.905 -16.392   3.947  1.00  0.00     0.112 A 
HETATM   26  C   UNL     1      43.858 -17.212   4.565  1.00  0.00     0.070 A 
HETATM   27 CL   UNL     1      44.722 -16.720   5.977  1.00  0.00    -0.081 Cl
HETATM   28  C   UNL     1      44.172 -18.462   4.023  1.00  0.00     0.050 A 
HETATM   29  C   UNL     1      43.554 -18.882   2.850  1.00  0.00     0.037 A 
HETATM   30 CL   UNL     1      43.952 -20.414   2.178  1.00  0.00    -0.084 Cl
HETATM   31  C   UNL     1      42.631 -18.064   2.203  1.00  0.00     0.050 A 
HETATM   32  C   UNL     1      42.315 -16.819   2.747  1.00  0.00     0.070 A 
HETATM   33 CL   UNL     1      41.183 -15.823   1.901  1.00  0.00    -0.081 Cl
ENDBRANCH  24  25
ENDBRANCH  23  24
ENDBRANCH  20  23
ENDBRANCH   9  18
BRANCH   1  34
HETATM   34  C   UNL     1      41.513  -7.538  13.765  1.00  0.00     0.231 C 
HETATM   35  C   UNL     1      41.736  -8.423  14.977  1.00  0.00     0.034 C 
ENDBRANCH   1  34
TORSDOF 5
ENDMDL
MODEL 3
REMARK VINA RESULT:      -8.8      2.046      3.121
REMARK  5 active torsions:
REMARK  status: ('A' for Active; 'I' for Inactive)
REMARK    1  A    between atoms: C_2  and  N_3 
REMARK    2  A    between atoms: C_11  and  C_12 
REMARK    3  A    between atoms: C_14  and  C_15 
REMARK    4  A    between atoms: C_15  and  O_16 
REMARK    5  A    between atoms: O_16  and  C_17 
ROOT
HETATM    1  N   UNL     1      39.763  -7.832  12.657  1.00  0.00    -0.067 N 
HETATM    2  H   UNL     1      39.269  -8.548  12.108  1.00  0.00     0.280 HD
HETATM    3  C   UNL     1      40.475  -6.940  11.639  1.00  0.00     0.281 C 
HETATM    4  C   UNL     1      41.624  -7.654  11.016  1.00  0.00     0.018 A 
HETATM    5  C   UNL     1      42.189  -8.825  11.487  1.00  0.00    -0.023 A 
HETATM    6  C   UNL     1      43.293  -9.232  10.674  1.00  0.00     0.073 A 
HETATM    7  C   UNL     1      43.519  -8.347   9.645  1.00  0.00     0.088 A 
HETATM    8  N   UNL     1      44.519  -8.498   8.745  1.00  0.00    -0.357 N 
HETATM    9  C   UNL     1      45.055  -9.841   8.566  1.00  0.00     0.243 C 
HETATM   10  N   UNL     1      45.137 -10.495   9.850  1.00  0.00    -0.330 N 
HETATM   11  C   UNL     1      44.165 -10.383  10.807  1.00  0.00     0.256 C 
HETATM   12  O   UNL     1      44.071 -11.188  11.728  1.00  0.00    -0.267 OA
HETATM   13  S   UNL     1      42.414  -7.057   9.632  1.00  0.00    -0.074 SA
HETATM   14  C   UNL     1      41.647  -9.521  12.697  1.00  0.00     0.068 C 
HETATM   15  C   UNL     1      40.770  -8.578  13.538  1.00  0.00     0.240 C 
HETATM   16  H   UNL     1      44.406  -8.016   7.856  1.00  0.00     0.162 HD
HETATM   17  H   UNL     1      45.707 -11.323   9.926  1.00  0.00     0.165 HD
ENDROOT
BRANCH   9  18
HETATM   18  C   UNL     1      44.308 -10.714   7.601  1.00  0.00     0.095 A 
HETATM   19  O   UNL     1      44.643 -12.042   7.583  1.00  0.00    -0.313 OA
HETATM   20  C   UNL     1      43.858 -12.650   6.648  1.00  0.00     0.077 A 
HETATM   21  C   UNL     1      43.000 -11.730   6.085  1.00  0.00     0.037 A 
HETATM   22  C   UNL     1      43.283 -10.487   6.700  1.00  0.00     0.039 A 
BRANCH  20  23
HETATM   23  C   UNL     1      44.046 -14.113   6.460  1.00  0.00     0.240 C 
BRANCH  23  24
HETATM   24  O   UNL     1      42.818 -14.636   5.933  1.00  0.00    -0.341 OA
BRANCH  24  25
HETATM   25  C   UNL     1      43.011 -15.729   5.123  1.00  0.00     0.112 A 
HETATM   26  C   UNL     1      43.292 -17.007   5.627  1.00  0.00     0.070 A 
HETATM   27 CL   UNL     1      43.427 -17.322   7.319  1.00  0.00    -0.081 Cl
HETATM   28  C   UNL     1      43.516 -18.076   4.754  1.00  0.00     0.050 A 
HETATM   29  C   UNL     1      43.483 -17.864   3.380  1.00  0.00     0.037 A 
HETATM   30 CL   UNL     1      43.771 -19.179   2.308  1.00  0.00    -0.084 Cl
HETATM   31  C   UNL     1      43.241 -16.594   2.862  1.00  0.00     0.050 A 
HETATM   32  C   UNL     1      43.014 -15.528   3.734  1.00  0.00     0.070 A 
HETATM   33 CL   UNL     1      42.740 -13.963   3.054  1.00  0.00    -0.081 Cl
ENDBRANCH  24  25
ENDBRANCH  23  24
ENDBRANCH  20  23
ENDBRANCH   9  18
BRANCH   1  34
HETATM   34  C   UNL     1      38.747  -7.092  13.490  1.00  0.00     0.231 C 
HETATM   35  C   UNL     1      37.537  -6.702  12.662  1.00  0.00     0.034 C 
ENDBRANCH   1  34
TORSDOF 5
ENDMDL
MODEL 4
REMARK VINA RESULT:      -8.7      4.163      7.597
REMARK  5 active torsions:
REMARK  status: ('A' for Active; 'I' for Inactive)
REMARK    1  A    between atoms: C_2  and  N_3 
REMARK    2  A    between atoms: C_11  and  C_12 
REMARK    3  A    between atoms: C_14  and  C_15 
REMARK    4  A    between atoms: C_15  and  O_16 
REMARK    5  A    between atoms: O_16  and  C_17 
ROOT
HETATM    1  N   UNL     1      41.042 -12.447  -1.407  1.00  0.00    -0.067 N 
HETATM    2  H   UNL     1      41.943 -12.890  -1.184  1.00  0.00     0.280 HD
HETATM    3  C   UNL     1      40.976 -11.179  -0.554  1.00  0.00     0.281 C 
HETATM    4  C   UNL     1      40.775 -11.512   0.883  1.00  0.00     0.018 A 
HETATM    5  C   UNL     1      40.382 -12.745   1.371  1.00  0.00    -0.023 A 
HETATM    6  C   UNL     1      40.256 -12.722   2.796  1.00  0.00     0.073 A 
HETATM    7  C   UNL     1      40.540 -11.479   3.312  1.00  0.00     0.088 A 
HETATM    8  N   UNL     1      40.475 -11.193   4.633  1.00  0.00    -0.357 N 
HETATM    9  C   UNL     1      40.578 -12.311   5.561  1.00  0.00     0.243 C 
HETATM   10  N   UNL     1      39.848 -13.438   5.032  1.00  0.00    -0.330 N 
HETATM   11  C   UNL     1      39.866 -13.782   3.707  1.00  0.00     0.256 C 
HETATM   12  O   UNL     1      39.539 -14.901   3.326  1.00  0.00    -0.267 OA
HETATM   13  S   UNL     1      40.977 -10.355   2.115  1.00  0.00    -0.074 SA
HETATM   14  C   UNL     1      40.149 -13.907   0.457  1.00  0.00     0.068 C 
HETATM   15  C   UNL     1      39.954 -13.445  -0.997  1.00  0.00     0.240 C 
HETATM   16  H   UNL     1      41.013 -10.389   4.951  1.00  0.00     0.162 HD
HETATM   17  H   UNL     1      39.621 -14.194   5.658  1.00  0.00     0.165 HD
ENDROOT
BRANCH   9  18
HETATM   18  C   UNL     1      41.975 -12.735   5.913  1.00  0.00     0.095 A 
HETATM   19  O   UNL     1      42.226 -14.081   5.926  1.00  0.00    -0.313 OA
HETATM   20  C   UNL     1      43.536 -14.250   6.267  1.00  0.00     0.077 A 
HETATM   21  C   UNL     1      44.137 -13.022   6.445  1.00  0.00     0.037 A 
HETATM   22  C   UNL     1      43.137 -12.048   6.211  1.00  0.00     0.039 A 
BRANCH  20  23
HETATM   23  C   UNL     1      44.038 -15.648   6.338  1.00  0.00     0.240 C 
BRANCH  23  24
HETATM   24  O   UNL     1      42.950 -16.510   5.978  1.00  0.00    -0.341 OA
BRANCH  24  25
HETATM   25  C   UNL     1      43.291 -17.421   5.008  1.00  0.00     0.112 A 
HETATM   26  C   UNL     1      43.291 -17.110   3.641  1.00  0.00     0.070 A 
HETATM   27 CL   UNL     1      42.856 -15.547   3.051  1.00  0.00    -0.081 Cl
HETATM   28  C   UNL     1      43.612 -18.088   2.695  1.00  0.00     0.050 A 
HETATM   29  C   UNL     1      43.908 -19.382   3.111  1.00  0.00     0.037 A 
HETATM   30 CL   UNL     1      44.290 -20.586   1.944  1.00  0.00    -0.084 Cl
HETATM   31  C   UNL     1      43.878 -19.717   4.463  1.00  0.00     0.050 A 
HETATM   32  C   UNL     1      43.561 -18.740   5.407  1.00  0.00     0.070 A 
HETATM   33 CL   UNL     1      43.510 -19.200   7.072  1.00  0.00    -0.081 Cl
ENDBRANCH  24  25
ENDBRANCH  23  24
ENDBRANCH  20  23
ENDBRANCH   9  18
BRANCH   1  34
HETATM   34  C   UNL     1      41.003 -12.171  -2.888  1.00  0.00     0.231 C 
HETATM   35  C   UNL     1      39.681 -11.548  -3.297  1.00  0.00     0.034 C 
ENDBRANCH   1  34
TORSDOF 5
ENDMDL
MODEL 5
REMARK VINA RESULT:      -8.7      4.236      9.758
REMARK  5 active torsions:
REMARK  status: ('A' for Active; 'I' for Inactive)
REMARK    1  A    between atoms: C_2  and  N_3 
REMARK    2  A    between atoms: C_11  and  C_12 
REMARK    3  A    between atoms: C_14  and  C_15 
REMARK    4  A    between atoms: C_15  and  O_16 
REMARK    5  A    between atoms: O_16  and  C_17 
ROOT
HETATM    1  N   UNL     1      43.919 -18.299   3.299  1.00  0.00    -0.067 N 
HETATM    2  H   UNL     1      44.638 -17.564   3.343  1.00  0.00     0.280 HD
HETATM    3  C   UNL     1      42.763 -17.707   2.493  1.00  0.00     0.281 C 
HETATM    4  C   UNL     1      42.046 -16.663   3.276  1.00  0.00     0.018 A 
HETATM    5  C   UNL     1      42.172 -16.456   4.637  1.00  0.00    -0.023 A 
HETATM    6  C   UNL     1      41.324 -15.391   5.080  1.00  0.00     0.073 A 
HETATM    7  C   UNL     1      40.592 -14.860   4.044  1.00  0.00     0.088 A 
HETATM    8  N   UNL     1      39.703 -13.852   4.207  1.00  0.00    -0.357 N 
HETATM    9  C   UNL     1      39.869 -13.002   5.377  1.00  0.00     0.243 C 
HETATM   10  N   UNL     1      40.249 -13.816   6.507  1.00  0.00    -0.330 N 
HETATM   11  C   UNL     1      41.139 -14.852   6.414  1.00  0.00     0.256 C 
HETATM   12  O   UNL     1      41.707 -15.306   7.402  1.00  0.00    -0.267 OA
HETATM   13  S   UNL     1      40.926 -15.603   2.553  1.00  0.00    -0.074 SA
HETATM   14  C   UNL     1      43.105 -17.280   5.468  1.00  0.00     0.068 C 
HETATM   15  C   UNL     1      43.498 -18.579   4.746  1.00  0.00     0.240 C 
HETATM   16  H   UNL     1      39.475 -13.310   3.376  1.00  0.00     0.162 HD
HETATM   17  H   UNL     1      40.164 -13.419   7.430  1.00  0.00     0.165 HD
ENDROOT
BRANCH   9  18
HETATM   18  C   UNL     1      40.841 -11.868   5.223  1.00  0.00     0.095 A 
HETATM   19  O   UNL     1      41.247 -11.242   6.371  1.00  0.00    -0.313 OA
HETATM   20  C   UNL     1      42.116 -10.254   6.014  1.00  0.00     0.077 A 
HETATM   21  C   UNL     1      42.295 -10.257   4.647  1.00  0.00     0.037 A 
HETATM   22  C   UNL     1      41.482 -11.298   4.138  1.00  0.00     0.039 A 
BRANCH  20  23
HETATM   23  C   UNL     1      42.696  -9.437   7.113  1.00  0.00     0.240 C 
BRANCH  23  24
HETATM   24  O   UNL     1      43.021 -10.334   8.184  1.00  0.00    -0.341 OA
BRANCH  24  25
HETATM   25  C   UNL     1      43.015  -9.721   9.412  1.00  0.00     0.112 A 
HETATM   26  C   UNL     1      41.846  -9.224  10.007  1.00  0.00     0.070 A 
HETATM   27 CL   UNL     1      40.303  -9.337   9.241  1.00  0.00    -0.081 Cl
HETATM   28  C   UNL     1      41.904  -8.574  11.243  1.00  0.00     0.050 A 
HETATM   29  C   UNL     1      43.131  -8.397  11.874  1.00  0.00     0.037 A 
HETATM   30 CL   UNL     1      43.201  -7.586  13.389  1.00  0.00    -0.084 Cl
HETATM   31  C   UNL     1      44.306  -8.852  11.281  1.00  0.00     0.050 A 
HETATM   32  C   UNL     1      44.247  -9.505  10.049  1.00  0.00     0.070 A 
HETATM   33 CL   UNL     1      45.729 -10.033   9.334  1.00  0.00    -0.081 Cl
ENDBRANCH  24  25
ENDBRANCH  23  24
ENDBRANCH  20  23
ENDBRANCH   9  18
BRANCH   1  34
HETATM   34  C   UNL     1      44.530 -19.519   2.659  1.00  0.00     0.231 C 
HETATM   35  C   UNL     1      43.492 -20.308   1.881  1.00  0.00     0.034 C 
ENDBRANCH   1  34
TORSDOF 5
ENDMDL
MODEL 6
REMARK VINA RESULT:      -8.6      2.291      3.232
REMARK  5 active torsions:
REMARK  status: ('A' for Active; 'I' for Inactive)
REMARK    1  A    between atoms: C_2  and  N_3 
REMARK    2  A    between atoms: C_11  and  C_12 
REMARK    3  A    between atoms: C_14  and  C_15 
REMARK    4  A    between atoms: C_15  and  O_16 
REMARK    5  A    between atoms: O_16  and  C_17 
ROOT
HETATM    1  N   UNL     1      41.542  -9.727   9.385  1.00  0.00    -0.067 N 
HETATM    2  H   UNL     1      41.307 -10.728   9.397  1.00  0.00     0.280 HD
HETATM    3  C   UNL     1      40.550  -9.074   8.421  1.00  0.00     0.281 C 
HETATM    4  C   UNL     1      40.851  -9.449   7.012  1.00  0.00     0.018 A 
HETATM    5  C   UNL     1      42.024 -10.032   6.571  1.00  0.00    -0.023 A 
HETATM    6  C   UNL     1      42.003 -10.237   5.155  1.00  0.00     0.073 A 
HETATM    7  C   UNL     1      40.829  -9.787   4.595  1.00  0.00     0.088 A 
HETATM    8  N   UNL     1      40.571  -9.852   3.268  1.00  0.00    -0.357 N 
HETATM    9  C   UNL     1      41.318 -10.832   2.492  1.00  0.00     0.243 C 
HETATM   10  N   UNL     1      42.682 -10.872   2.962  1.00  0.00    -0.330 N 
HETATM   11  C   UNL     1      43.016 -10.808   4.288  1.00  0.00     0.256 C 
HETATM   12  O   UNL     1      44.111 -11.178   4.697  1.00  0.00    -0.267 OA
HETATM   13  S   UNL     1      39.754  -9.149   5.744  1.00  0.00    -0.074 SA
HETATM   14  C   UNL     1      43.126 -10.381   7.522  1.00  0.00     0.068 C 
HETATM   15  C   UNL     1      42.977  -9.626   8.854  1.00  0.00     0.240 C 
HETATM   16  H   UNL     1      39.591  -9.823   2.995  1.00  0.00     0.162 HD
HETATM   17  H   UNL     1      43.374 -11.312   2.377  1.00  0.00     0.165 HD
ENDROOT
BRANCH   9  18
HETATM   18  C   UNL     1      40.748 -12.221   2.479  1.00  0.00     0.095 A 
HETATM   19  O   UNL     1      41.198 -13.082   3.444  1.00  0.00    -0.313 OA
HETATM   20  C   UNL     1      40.564 -14.275   3.258  1.00  0.00     0.077 A 
HETATM   21  C   UNL     1      39.688 -14.180   2.198  1.00  0.00     0.037 A 
HETATM   22  C   UNL     1      39.799 -12.859   1.702  1.00  0.00     0.039 A 
BRANCH  20  23
HETATM   23  C   UNL     1      40.899 -15.370   4.206  1.00  0.00     0.240 C 
BRANCH  23  24
HETATM   24  O   UNL     1      42.325 -15.378   4.362  1.00  0.00    -0.341 OA
BRANCH  24  25
HETATM   25  C   UNL     1      42.828 -16.636   4.590  1.00  0.00     0.112 A 
HETATM   26  C   UNL     1      42.898 -17.205   5.869  1.00  0.00     0.070 A 
HETATM   27 CL   UNL     1      42.358 -16.370   7.281  1.00  0.00    -0.081 Cl
HETATM   28  C   UNL     1      43.454 -18.475   6.047  1.00  0.00     0.050 A 
HETATM   29  C   UNL     1      43.963 -19.166   4.953  1.00  0.00     0.037 A 
HETATM   30 CL   UNL     1      44.658 -20.724   5.176  1.00  0.00    -0.084 Cl
HETATM   31  C   UNL     1      43.934 -18.601   3.680  1.00  0.00     0.050 A 
HETATM   32  C   UNL     1      43.375 -17.334   3.503  1.00  0.00     0.070 A 
HETATM   33 CL   UNL     1      43.380 -16.656   1.913  1.00  0.00    -0.081 Cl
ENDBRANCH  24  25
ENDBRANCH  23  24
ENDBRANCH  20  23
ENDBRANCH   9  18
BRANCH   1  34
HETATM   34  C   UNL     1      41.440  -9.199  10.793  1.00  0.00     0.231 C 
HETATM   35  C   UNL     1      42.705  -9.487  11.581  1.00  0.00     0.034 C 
ENDBRANCH   1  34
TORSDOF 5
ENDMDL
MODEL 7
REMARK VINA RESULT:      -8.5      2.757      3.844
REMARK  5 active torsions:
REMARK  status: ('A' for Active; 'I' for Inactive)
REMARK    1  A    between atoms: C_2  and  N_3 
REMARK    2  A    between atoms: C_11  and  C_12 
REMARK    3  A    between atoms: C_14  and  C_15 
REMARK    4  A    between atoms: C_15  and  O_16 
REMARK    5  A    between atoms: O_16  and  C_17 
ROOT
HETATM    1  N   UNL     1      40.569  -9.709   8.459  1.00  0.00    -0.067 N 
HETATM    2  H   UNL     1      40.573 -10.733   8.553  1.00  0.00     0.280 HD
HETATM    3  C   UNL     1      39.479  -9.385   7.436  1.00  0.00     0.281 C 
HETATM    4  C   UNL     1      39.897  -9.789   6.066  1.00  0.00     0.018 A 
HETATM    5  C   UNL     1      41.187 -10.113   5.685  1.00  0.00    -0.023 A 
HETATM    6  C   UNL     1      41.252 -10.429   4.291  1.00  0.00     0.073 A 
HETATM    7  C   UNL     1      40.022 -10.312   3.686  1.00  0.00     0.088 A 
HETATM    8  N   UNL     1      39.823 -10.540   2.367  1.00  0.00    -0.357 N 
HETATM    9  C   UNL     1      40.799 -11.376   1.681  1.00  0.00     0.243 C 
HETATM   10  N   UNL     1      42.121 -11.057   2.164  1.00  0.00    -0.330 N 
HETATM   11  C   UNL     1      42.394 -10.812   3.483  1.00  0.00     0.256 C 
HETATM   12  O   UNL     1      43.534 -10.881   3.930  1.00  0.00    -0.267 OA
HETATM   13  S   UNL     1      38.796  -9.855   4.769  1.00  0.00    -0.074 SA
HETATM   14  C   UNL     1      42.313 -10.118   6.671  1.00  0.00     0.068 C 
HETATM   15  C   UNL     1      41.954  -9.316   7.934  1.00  0.00     0.240 C 
HETATM   16  H   UNL     1      38.871 -10.763   2.083  1.00  0.00     0.162 HD
HETATM   17  H   UNL     1      42.913 -11.367   1.623  1.00  0.00     0.165 HD
ENDROOT
BRANCH   9  18
HETATM   18  C   UNL     1      40.569 -12.856   1.779  1.00  0.00     0.095 A 
HETATM   19  O   UNL     1      40.878 -13.450   2.973  1.00  0.00    -0.313 OA
HETATM   20  C   UNL     1      40.599 -14.780   2.852  1.00  0.00     0.077 A 
HETATM   21  C   UNL     1      40.086 -15.041   1.600  1.00  0.00     0.037 A 
HETATM   22  C   UNL     1      40.059 -13.805   0.911  1.00  0.00     0.039 A 
BRANCH  20  23
HETATM   23  C   UNL     1      40.855 -15.632   4.044  1.00  0.00     0.240 C 
BRANCH  23  24
HETATM   24  O   UNL     1      42.251 -15.520   4.356  1.00  0.00    -0.341 OA
BRANCH  24  25
HETATM   25  C   UNL     1      42.857 -16.740   4.528  1.00  0.00     0.112 A 
HETATM   26  C   UNL     1      43.351 -17.500   3.459  1.00  0.00     0.070 A 
HETATM   27 CL   UNL     1      43.237 -16.968   1.820  1.00  0.00    -0.081 Cl
HETATM   28  C   UNL     1      43.925 -18.754   3.689  1.00  0.00     0.050 A 
HETATM   29  C   UNL     1      43.983 -19.260   4.983  1.00  0.00     0.037 A 
HETATM   30 CL   UNL     1      44.679 -20.808   5.263  1.00  0.00    -0.084 Cl
HETATM   31  C   UNL     1      43.466 -18.534   6.053  1.00  0.00     0.050 A 
HETATM   32  C   UNL     1      42.896 -17.281   5.823  1.00  0.00     0.070 A 
HETATM   33 CL   UNL     1      42.242 -16.422   7.173  1.00  0.00    -0.081 Cl
ENDBRANCH  24  25
ENDBRANCH  23  24
ENDBRANCH  20  23
ENDBRANCH   9  18
BRANCH   1  34
HETATM   34  C   UNL     1      40.308  -9.111   9.818  1.00  0.00     0.231 C 
HETATM   35  C   UNL     1      39.030  -8.291   9.821  1.00  0.00     0.034 C 
ENDBRANCH   1  34
TORSDOF 5
ENDMDL
MODEL 8
REMARK VINA RESULT:      -8.4      5.530      8.723
REMARK  5 active torsions:
REMARK  status: ('A' for Active; 'I' for Inactive)
REMARK    1  A    between atoms: C_2  and  N_3 
REMARK    2  A    between atoms: C_11  and  C_12 
REMARK    3  A    between atoms: C_14  and  C_15 
REMARK    4  A    between atoms: C_15  and  O_16 
REMARK    5  A    between atoms: O_16  and  C_17 
ROOT
HETATM    1  N   UNL     1      41.237  -8.800  -3.117  1.00  0.00    -0.067 N 
HETATM    2  H   UNL     1      42.109  -8.879  -2.576  1.00  0.00     0.280 HD
HETATM    3  C   UNL     1      40.170  -8.333  -2.127  1.00  0.00     0.281 C 
HETATM    4  C   UNL     1      39.810  -9.422  -1.178  1.00  0.00     0.018 A 
HETATM    5  C   UNL     1      40.131 -10.758  -1.333  1.00  0.00    -0.023 A 
HETATM    6  C   UNL     1      39.612 -11.545  -0.257  1.00  0.00     0.073 A 
HETATM    7  C   UNL     1      38.915 -10.775   0.645  1.00  0.00     0.088 A 
HETATM    8  N   UNL     1      38.311 -11.287   1.743  1.00  0.00    -0.357 N 
HETATM    9  C   UNL     1      38.802 -12.567   2.236  1.00  0.00     0.243 C 
HETATM   10  N   UNL     1      39.103 -13.424   1.115  1.00  0.00    -0.330 N 
HETATM   11  C   UNL     1      39.708 -12.974  -0.027  1.00  0.00     0.256 C 
HETATM   12  O   UNL     1      40.259 -13.740  -0.810  1.00  0.00    -0.267 OA
HETATM   13  S   UNL     1      38.897  -9.128   0.229  1.00  0.00    -0.074 SA
HETATM   14  C   UNL     1      40.931 -11.236  -2.504  1.00  0.00     0.068 C 
HETATM   15  C   UNL     1      40.925 -10.204  -3.645  1.00  0.00     0.240 C 
HETATM   16  H   UNL     1      38.126 -10.636   2.504  1.00  0.00     0.162 HD
HETATM   17  H   UNL     1      39.216 -14.411   1.288  1.00  0.00     0.165 HD
ENDROOT
BRANCH   9  18
HETATM   18  C   UNL     1      39.989 -12.497   3.152  1.00  0.00     0.095 A 
HETATM   19  O   UNL     1      40.456 -13.685   3.648  1.00  0.00    -0.313 OA
HETATM   20  C   UNL     1      41.524 -13.404   4.448  1.00  0.00     0.077 A 
HETATM   21  C   UNL     1      41.765 -12.047   4.449  1.00  0.00     0.037 A 
HETATM   22  C   UNL     1      40.785 -11.464   3.611  1.00  0.00     0.039 A 
BRANCH  20  23
HETATM   23  C   UNL     1      42.202 -14.558   5.097  1.00  0.00     0.240 C 
BRANCH  23  24
HETATM   24  O   UNL     1      43.359 -14.871   4.308  1.00  0.00    -0.341 OA
BRANCH  24  25
HETATM   25  C   UNL     1      43.438 -16.203   3.985  1.00  0.00     0.112 A 
HETATM   26  C   UNL     1      43.971 -17.164   4.855  1.00  0.00     0.070 A 
HETATM   27 CL   UNL     1      44.583 -16.755   6.417  1.00  0.00    -0.081 Cl
HETATM   28  C   UNL     1      44.061 -18.502   4.460  1.00  0.00     0.050 A 
HETATM   29  C   UNL     1      43.643 -18.876   3.187  1.00  0.00     0.037 A 
HETATM   30 CL   UNL     1      43.767 -20.521   2.699  1.00  0.00    -0.084 Cl
HETATM   31  C   UNL     1      43.144 -17.929   2.297  1.00  0.00     0.050 A 
HETATM   32  C   UNL     1      43.051 -16.594   2.694  1.00  0.00     0.070 A 
HETATM   33 CL   UNL     1      42.449 -15.444   1.552  1.00  0.00    -0.081 Cl
ENDBRANCH  24  25
ENDBRANCH  23  24
ENDBRANCH  20  23
ENDBRANCH   9  18
BRANCH   1  34
HETATM   34  C   UNL     1      41.469  -7.828  -4.246  1.00  0.00     0.231 C 
HETATM   35  C   UNL     1      42.805  -7.123  -4.099  1.00  0.00     0.034 C 
ENDBRANCH   1  34
TORSDOF 5
ENDMDL
MODEL 9
REMARK VINA RESULT:      -8.3      4.199      9.349
REMARK  5 active torsions:
REMARK  status: ('A' for Active; 'I' for Inactive)
REMARK    1  A    between atoms: C_2  and  N_3 
REMARK    2  A    between atoms: C_11  and  C_12 
REMARK    3  A    between atoms: C_14  and  C_15 
REMARK    4  A    between atoms: C_15  and  O_16 
REMARK    5  A    between atoms: O_16  and  C_17 
ROOT
HETATM    1  N   UNL     1      43.687 -17.939   3.241  1.00  0.00    -0.067 N 
HETATM    2  H   UNL     1      44.344 -17.150   3.181  1.00  0.00     0.280 HD
HETATM    3  C   UNL     1      42.586 -17.646   2.221  1.00  0.00     0.281 C 
HETATM    4  C   UNL     1      41.719 -16.526   2.678  1.00  0.00     0.018 A 
HETATM    5  C   UNL     1      41.682 -16.015   3.962  1.00  0.00    -0.023 A 
HETATM    6  C   UNL     1      40.721 -14.960   4.073  1.00  0.00     0.073 A 
HETATM    7  C   UNL     1      40.070 -14.739   2.882  1.00  0.00     0.088 A 
HETATM    8  N   UNL     1      39.102 -13.805   2.730  1.00  0.00    -0.357 N 
HETATM    9  C   UNL     1      39.081 -12.707   3.687  1.00  0.00     0.243 C 
HETATM   10  N   UNL     1      39.392 -13.215   5.001  1.00  0.00    -0.330 N 
HETATM   11  C   UNL     1      40.356 -14.160   5.227  1.00  0.00     0.256 C 
HETATM   12  O   UNL     1      40.843 -14.333   6.339  1.00  0.00    -0.267 OA
HETATM   13  S   UNL     1      40.613 -15.757   1.636  1.00  0.00    -0.074 SA
HETATM   14  C   UNL     1      42.575 -16.547   5.039  1.00  0.00     0.068 C 
HETATM   15  C   UNL     1      43.132 -17.932   4.670  1.00  0.00     0.240 C 
HETATM   16  H   UNL     1      38.927 -13.481   1.781  1.00  0.00     0.162 HD
HETATM   17  H   UNL     1      39.180 -12.634   5.798  1.00  0.00     0.165 HD
ENDROOT
BRANCH   9  18
HETATM   18  C   UNL     1      39.983 -11.551   3.366  1.00  0.00     0.095 A 
HETATM   19  O   UNL     1      40.339 -10.738   4.409  1.00  0.00    -0.313 OA
HETATM   20  C   UNL     1      41.150  -9.761   3.909  1.00  0.00     0.077 A 
HETATM   21  C   UNL     1      41.342  -9.957   2.558  1.00  0.00     0.037 A 
HETATM   22  C   UNL     1      40.600 -11.110   2.209  1.00  0.00     0.039 A 
BRANCH  20  23
HETATM   23  C   UNL     1      41.668  -8.756   4.875  1.00  0.00     0.240 C 
BRANCH  23  24
HETATM   24  O   UNL     1      41.276  -9.186   6.187  1.00  0.00    -0.341 OA
BRANCH  24  25
HETATM   25  C   UNL     1      42.314  -9.163   7.086  1.00  0.00     0.112 A 
HETATM   26  C   UNL     1      42.673  -8.012   7.803  1.00  0.00     0.070 A 
HETATM   27 CL   UNL     1      41.839  -6.512   7.615  1.00  0.00    -0.081 Cl
HETATM   28  C   UNL     1      43.763  -8.036   8.677  1.00  0.00     0.050 A 
HETATM   29  C   UNL     1      44.511  -9.201   8.818  1.00  0.00     0.037 A 
HETATM   30 CL   UNL     1      45.859  -9.224   9.885  1.00  0.00    -0.084 Cl
HETATM   31  C   UNL     1      44.191 -10.342   8.087  1.00  0.00     0.050 A 
HETATM   32  C   UNL     1      43.100 -10.319   7.217  1.00  0.00     0.070 A 
HETATM   33 CL   UNL     1      42.749 -11.747   6.309  1.00  0.00    -0.081 Cl
ENDBRANCH  24  25
ENDBRANCH  23  24
ENDBRANCH  20  23
ENDBRANCH   9  18
BRANCH   1  34
HETATM   34  C   UNL     1      44.445 -19.209   2.953  1.00  0.00     0.231 C 
HETATM   35  C   UNL     1      43.554 -20.241   2.285  1.00  0.00     0.034 C 
ENDBRANCH   1  34
TORSDOF 5
ENDMDL
MODEL 10
REMARK VINA RESULT:      -8.3      4.583      8.205
REMARK  5 active torsions:
REMARK  status: ('A' for Active; 'I' for Inactive)
REMARK    1  A    between atoms: C_2  and  N_3 
REMARK    2  A    between atoms: C_11  and  C_12 
REMARK    3  A    between atoms: C_14  and  C_15 
REMARK    4  A    between atoms: C_15  and  O_16 
REMARK    5  A    between atoms: O_16  and  C_17 
ROOT
HETATM    1  N   UNL     1      37.701 -12.997  -1.731  1.00  0.00    -0.067 N 
HETATM    2  H   UNL     1      37.357 -13.651  -1.015  1.00  0.00     0.280 HD
HETATM    3  C   UNL     1      39.226 -13.010  -1.613  1.00  0.00     0.281 C 
HETATM    4  C   UNL     1      39.670 -12.321  -0.371  1.00  0.00     0.018 A 
HETATM    5  C   UNL     1      38.881 -11.504   0.418  1.00  0.00    -0.023 A 
HETATM    6  C   UNL     1      39.621 -10.977   1.523  1.00  0.00     0.073 A 
HETATM    7  C   UNL     1      40.929 -11.404   1.508  1.00  0.00     0.088 A 
HETATM    8  N   UNL     1      41.839 -11.032   2.438  1.00  0.00    -0.357 N 
HETATM    9  C   UNL     1      41.328 -10.573   3.723  1.00  0.00     0.243 C 
HETATM   10  N   UNL     1      40.150  -9.768   3.506  1.00  0.00    -0.330 N 
HETATM   11  C   UNL     1      39.191 -10.083   2.582  1.00  0.00     0.256 C 
HETATM   12  O   UNL     1      38.061  -9.609   2.636  1.00  0.00    -0.267 OA
HETATM   13  S   UNL     1      41.268 -12.441   0.206  1.00  0.00    -0.074 SA
HETATM   14  C   UNL     1      37.441 -11.260   0.091  1.00  0.00     0.068 C 
HETATM   15  C   UNL     1      37.130 -11.621  -1.372  1.00  0.00     0.240 C 
HETATM   16  H   UNL     1      42.648 -11.639   2.550  1.00  0.00     0.162 HD
HETATM   17  H   UNL     1      39.828  -9.184   4.262  1.00  0.00     0.165 HD
ENDROOT
BRANCH   9  18
HETATM   18  C   UNL     1      41.027 -11.651   4.723  1.00  0.00     0.095 A 
HETATM   19  O   UNL     1      41.622 -12.866   4.518  1.00  0.00    -0.313 OA
HETATM   20  C   UNL     1      41.222 -13.694   5.526  1.00  0.00     0.077 A 
HETATM   21  C   UNL     1      40.396 -13.011   6.393  1.00  0.00     0.037 A 
HETATM   22  C   UNL     1      40.276 -11.697   5.883  1.00  0.00     0.039 A 
BRANCH  20  23
HETATM   23  C   UNL     1      41.756 -15.082   5.510  1.00  0.00     0.240 C 
BRANCH  23  24
HETATM   24  O   UNL     1      42.928 -15.078   4.682  1.00  0.00    -0.341 OA
BRANCH  24  25
HETATM   25  C   UNL     1      43.146 -16.284   4.064  1.00  0.00     0.112 A 
HETATM   26  C   UNL     1      42.496 -16.660   2.880  1.00  0.00     0.070 A 
HETATM   27 CL   UNL     1      41.354 -15.634   2.091  1.00  0.00    -0.081 Cl
HETATM   28  C   UNL     1      42.729 -17.917   2.315  1.00  0.00     0.050 A 
HETATM   29  C   UNL     1      43.591 -18.809   2.944  1.00  0.00     0.037 A 
HETATM   30 CL   UNL     1      43.866 -20.360   2.253  1.00  0.00    -0.084 Cl
HETATM   31  C   UNL     1      44.217 -18.466   4.140  1.00  0.00     0.050 A 
HETATM   32  C   UNL     1      43.988 -17.210   4.702  1.00  0.00     0.070 A 
HETATM   33 CL   UNL     1      44.764 -16.831   6.199  1.00  0.00    -0.081 Cl
ENDBRANCH  24  25
ENDBRANCH  23  24
ENDBRANCH  20  23
ENDBRANCH   9  18
BRANCH   1  34
HETATM   34  C   UNL     1      37.203 -13.464  -3.076  1.00  0.00     0.231 C 
HETATM   35  C   UNL     1      38.071 -14.582  -3.624  1.00  0.00     0.034 C 
ENDBRANCH   1  34
TORSDOF 5
ENDMDL
