MODEL 1
REMARK VINA RESULT:      -8.2      0.000      0.000
REMARK  5 active torsions:
REMARK  status: ('A' for Active; 'I' for Inactive)
REMARK    1  A    between atoms: C_4  and  C_5 
REMARK       I    between atoms: C_5  and  N_6 
REMARK    2  A    between atoms: N_6  and  C_7 
REMARK    3  A    between atoms: C_7  and  C_8 
REMARK    4  A    between atoms: C_8  and  C_9 
REMARK    5  A    between atoms: C_18  and  O_19 
ROOT
HETATM    1  C   UNL     1      42.991 -15.542   2.974  1.00  0.00     0.254 C 
HETATM    2  N   UNL     1      42.447 -15.419   1.718  1.00  0.00    -0.356 N 
HETATM    3  O   UNL     1      43.141 -14.580   3.721  1.00  0.00    -0.268 OA
HETATM    4  H   UNL     1      42.225 -16.284   1.227  1.00  0.00     0.162 HD
ENDROOT
BRANCH   2   5
HETATM    5  C   UNL     1      41.890 -14.168   1.244  1.00  0.00     0.136 C 
BRANCH   5   6
HETATM    6  C   UNL     1      40.370 -14.246   0.914  1.00  0.00    -0.004 C 
HETATM    7  C   UNL     1      39.877 -15.674   1.245  1.00  0.00     0.021 C 
HETATM    8  C   UNL     1      39.627 -13.277   1.864  1.00  0.00     0.021 C 
BRANCH   6   9
HETATM    9  C   UNL     1      40.100 -13.975  -0.579  1.00  0.00    -0.046 A 
HETATM   10  C   UNL     1      39.339 -14.876  -1.341  1.00  0.00     0.027 A 
HETATM   11  C   UNL     1      39.110 -14.616  -2.686  1.00  0.00     0.116 A 
HETATM   12  N   UNL     1      39.575 -13.527  -3.330  1.00  0.00    -0.273 NA
HETATM   13  C   UNL     1      40.292 -12.660  -2.590  1.00  0.00     0.116 A 
HETATM   14  C   UNL     1      40.576 -12.836  -1.241  1.00  0.00     0.027 A 
ENDBRANCH   6   9
ENDBRANCH   5   6
ENDBRANCH   2   5
BRANCH   1  15
HETATM   15  C   UNL     1      43.391 -16.919   3.415  1.00  0.00     0.065 A 
HETATM   16  C   UNL     1      43.280 -17.949   2.464  1.00  0.00     0.026 A 
HETATM   17  C   UNL     1      43.625 -19.271   2.778  1.00  0.00    -0.061 A 
HETATM   18  C   UNL     1      43.525 -20.357   1.749  1.00  0.00     0.048 C 
HETATM   19  C   UNL     1      44.097 -19.562   4.062  1.00  0.00     0.009 A 
HETATM   20  C   UNL     1      44.218 -18.552   5.018  1.00  0.00     0.038 A 
HETATM   21  C   UNL     1      43.871 -17.236   4.696  1.00  0.00     0.081 A 
BRANCH  21  22
HETATM   22  O   UNL     1      44.018 -16.267   5.656  1.00  0.00    -0.360 OA
HETATM   23  H   UNL     1      44.781 -16.492   6.217  1.00  0.00     0.217 HD
ENDBRANCH  21  22
ENDBRANCH   1  15
TORSDOF 5
ENDMDL
MODEL 2
REMARK VINA RESULT:      -7.9      2.100      7.247
REMARK  5 active torsions:
REMARK  status: ('A' for Active; 'I' for Inactive)
REMARK    1  A    between atoms: C_4  and  C_5 
REMARK       I    between atoms: C_5  and  N_6 
REMARK    2  A    between atoms: N_6  and  C_7 
REMARK    3  A    between atoms: C_7  and  C_8 
REMARK    4  A    between atoms: C_8  and  C_9 
REMARK    5  A    between atoms: C_18  and  O_19 
ROOT
HETATM    1  C   UNL     1      40.264 -14.473   1.237  1.00  0.00     0.254 C 
HETATM    2  N   UNL     1      40.850 -15.715   1.296  1.00  0.00    -0.356 N 
HETATM    3  O   UNL     1      39.897 -13.873   2.244  1.00  0.00    -0.268 OA
HETATM    4  H   UNL     1      41.255 -16.072   0.432  1.00  0.00     0.162 HD
ENDROOT
BRANCH   2   5
HETATM    5  C   UNL     1      41.196 -16.339   2.557  1.00  0.00     0.136 C 
BRANCH   5   6
HETATM    6  C   UNL     1      42.730 -16.420   2.812  1.00  0.00    -0.004 C 
HETATM    7  C   UNL     1      43.459 -15.918   1.545  1.00  0.00     0.021 C 
HETATM    8  C   UNL     1      43.073 -15.433   3.954  1.00  0.00     0.021 C 
BRANCH   6   9
HETATM    9  C   UNL     1      43.183 -17.866   3.090  1.00  0.00    -0.046 A 
HETATM   10  C   UNL     1      43.774 -18.206   4.318  1.00  0.00     0.027 A 
HETATM   11  C   UNL     1      44.180 -19.514   4.547  1.00  0.00     0.116 A 
HETATM   12  N   UNL     1      44.040 -20.511   3.652  1.00  0.00    -0.273 NA
HETATM   13  C   UNL     1      43.459 -20.182   2.482  1.00  0.00     0.116 A 
HETATM   14  C   UNL     1      43.025 -18.903   2.160  1.00  0.00     0.027 A 
ENDBRANCH   6   9
ENDBRANCH   5   6
ENDBRANCH   2   5
BRANCH   1  15
HETATM   15  C   UNL     1      40.096 -13.858  -0.120  1.00  0.00     0.065 A 
HETATM   16  C   UNL     1      39.387 -14.608  -1.075  1.00  0.00     0.026 A 
HETATM   17  C   UNL     1      39.180 -14.123  -2.375  1.00  0.00    -0.061 A 
HETATM   18  C   UNL     1      38.402 -14.922  -3.377  1.00  0.00     0.048 C 
HETATM   19  C   UNL     1      39.682 -12.864  -2.717  1.00  0.00     0.009 A 
HETATM   20  C   UNL     1      40.383 -12.103  -1.780  1.00  0.00     0.038 A 
HETATM   21  C   UNL     1      40.587 -12.595  -0.488  1.00  0.00     0.081 A 
BRANCH  21  22
HETATM   22  O   UNL     1      41.268 -11.812   0.410  1.00  0.00    -0.360 OA
HETATM   23  H   UNL     1      41.161 -10.878   0.159  1.00  0.00     0.217 HD
ENDBRANCH  21  22
ENDBRANCH   1  15
TORSDOF 5
ENDMDL
MODEL 3
REMARK VINA RESULT:      -7.8      2.308      7.469
REMARK  5 active torsions:
REMARK  status: ('A' for Active; 'I' for Inactive)
REMARK    1  A    between atoms: C_4  and  C_5 
REMARK       I    between atoms: C_5  and  N_6 
REMARK    2  A    between atoms: N_6  and  C_7 
REMARK    3  A    between atoms: C_7  and  C_8 
REMARK    4  A    between atoms: C_8  and  C_9 
REMARK    5  A    between atoms: C_18  and  O_19 
ROOT
HETATM    1  C   UNL     1      40.224 -14.443   1.093  1.00  0.00     0.254 C 
HETATM    2  N   UNL     1      40.851 -15.662   1.189  1.00  0.00    -0.356 N 
HETATM    3  O   UNL     1      39.788 -13.851   2.076  1.00  0.00    -0.268 OA
HETATM    4  H   UNL     1      41.309 -16.010   0.348  1.00  0.00     0.162 HD
ENDROOT
BRANCH   2   5
HETATM    5  C   UNL     1      41.160 -16.266   2.469  1.00  0.00     0.136 C 
BRANCH   5   6
HETATM    6  C   UNL     1      42.685 -16.317   2.784  1.00  0.00    -0.004 C 
HETATM    7  C   UNL     1      43.452 -15.812   1.540  1.00  0.00     0.021 C 
HETATM    8  C   UNL     1      42.966 -15.315   3.929  1.00  0.00     0.021 C 
BRANCH   6   9
HETATM    9  C   UNL     1      43.153 -17.752   3.091  1.00  0.00    -0.046 A 
HETATM   10  C   UNL     1      43.745 -18.061   4.326  1.00  0.00     0.027 A 
HETATM   11  C   UNL     1      44.165 -19.359   4.582  1.00  0.00     0.116 A 
HETATM   12  N   UNL     1      44.036 -20.376   3.708  1.00  0.00    -0.273 NA
HETATM   13  C   UNL     1      43.454 -20.077   2.530  1.00  0.00     0.116 A 
HETATM   14  C   UNL     1      43.006 -18.809   2.182  1.00  0.00     0.027 A 
ENDBRANCH   6   9
ENDBRANCH   5   6
ENDBRANCH   2   5
BRANCH   1  15
HETATM   15  C   UNL     1      40.098 -13.843  -0.275  1.00  0.00     0.065 A 
HETATM   16  C   UNL     1      40.712 -12.594  -0.481  1.00  0.00     0.026 A 
HETATM   17  C   UNL     1      40.648 -11.947  -1.723  1.00  0.00    -0.061 A 
HETATM   18  C   UNL     1      41.326 -10.627  -1.937  1.00  0.00     0.048 C 
HETATM   19  C   UNL     1      39.968 -12.565  -2.776  1.00  0.00     0.009 A 
HETATM   20  C   UNL     1      39.358 -13.808  -2.592  1.00  0.00     0.038 A 
HETATM   21  C   UNL     1      39.425 -14.445  -1.350  1.00  0.00     0.081 A 
BRANCH  21  22
HETATM   22  O   UNL     1      38.826 -15.671  -1.211  1.00  0.00    -0.360 OA
HETATM   23  H   UNL     1      38.805 -15.908  -0.267  1.00  0.00     0.217 HD
ENDBRANCH  21  22
ENDBRANCH   1  15
TORSDOF 5
ENDMDL
MODEL 4
REMARK VINA RESULT:      -7.5      3.409      4.683
REMARK  5 active torsions:
REMARK  status: ('A' for Active; 'I' for Inactive)
REMARK    1  A    between atoms: C_4  and  C_5 
REMARK       I    between atoms: C_5  and  N_6 
REMARK    2  A    between atoms: N_6  and  C_7 
REMARK    3  A    between atoms: C_7  and  C_8 
REMARK    4  A    between atoms: C_8  and  C_9 
REMARK    5  A    between atoms: C_18  and  O_19 
ROOT
HETATM    1  C   UNL     1      42.029 -15.831   2.904  1.00  0.00     0.254 C 
HETATM    2  N   UNL     1      41.079 -15.391   3.793  1.00  0.00    -0.356 N 
HETATM    3  O   UNL     1      42.235 -15.269   1.832  1.00  0.00    -0.268 OA
HETATM    4  H   UNL     1      41.077 -15.825   4.715  1.00  0.00     0.162 HD
ENDROOT
BRANCH   2   5
HETATM    5  C   UNL     1      40.350 -14.155   3.587  1.00  0.00     0.136 C 
BRANCH   5   6
HETATM    6  C   UNL     1      40.524 -13.128   4.743  1.00  0.00    -0.004 C 
HETATM    7  C   UNL     1      39.495 -11.992   4.541  1.00  0.00     0.021 C 
HETATM    8  C   UNL     1      40.161 -13.839   6.069  1.00  0.00     0.021 C 
BRANCH   6   9
HETATM    9  C   UNL     1      41.934 -12.507   4.744  1.00  0.00    -0.046 A 
HETATM   10  C   UNL     1      42.548 -12.127   3.539  1.00  0.00     0.027 A 
HETATM   11  C   UNL     1      43.821 -11.574   3.560  1.00  0.00     0.116 A 
HETATM   12  N   UNL     1      44.530 -11.364   4.686  1.00  0.00    -0.273 NA
HETATM   13  C   UNL     1      43.931 -11.717   5.840  1.00  0.00     0.116 A 
HETATM   14  C   UNL     1      42.663 -12.280   5.919  1.00  0.00     0.027 A 
ENDBRANCH   6   9
ENDBRANCH   5   6
ENDBRANCH   2   5
BRANCH   1  15
HETATM   15  C   UNL     1      42.831 -17.036   3.298  1.00  0.00     0.065 A 
HETATM   16  C   UNL     1      42.846 -18.113   2.394  1.00  0.00     0.026 A 
HETATM   17  C   UNL     1      43.562 -19.287   2.671  1.00  0.00    -0.061 A 
HETATM   18  C   UNL     1      43.590 -20.419   1.688  1.00  0.00     0.048 C 
HETATM   19  C   UNL     1      44.280 -19.377   3.867  1.00  0.00     0.009 A 
HETATM   20  C   UNL     1      44.281 -18.315   4.774  1.00  0.00     0.038 A 
HETATM   21  C   UNL     1      43.563 -17.149   4.490  1.00  0.00     0.081 A 
BRANCH  21  22
HETATM   22  O   UNL     1      43.600 -16.122   5.398  1.00  0.00    -0.360 OA
HETATM   23  H   UNL     1      44.491 -16.077   5.789  1.00  0.00     0.217 HD
ENDBRANCH  21  22
ENDBRANCH   1  15
TORSDOF 5
ENDMDL
MODEL 5
REMARK VINA RESULT:      -7.4      5.219      7.917
REMARK  5 active torsions:
REMARK  status: ('A' for Active; 'I' for Inactive)
REMARK    1  A    between atoms: C_4  and  C_5 
REMARK       I    between atoms: C_5  and  N_6 
REMARK    2  A    between atoms: N_6  and  C_7 
REMARK    3  A    between atoms: C_7  and  C_8 
REMARK    4  A    between atoms: C_8  and  C_9 
REMARK    5  A    between atoms: C_18  and  O_19 
ROOT
HETATM    1  C   UNL     1      43.650 -12.306   6.120  1.00  0.00     0.254 C 
HETATM    2  N   UNL     1      42.920 -13.340   6.657  1.00  0.00    -0.356 N 
HETATM    3  O   UNL     1      43.680 -12.082   4.913  1.00  0.00    -0.268 OA
HETATM    4  H   UNL     1      42.835 -13.362   7.671  1.00  0.00     0.162 HD
ENDROOT
BRANCH   2   5
HETATM    5  C   UNL     1      42.030 -14.149   5.848  1.00  0.00     0.136 C 
BRANCH   5   6
HETATM    6  C   UNL     1      41.953 -15.636   6.302  1.00  0.00    -0.004 C 
HETATM    7  C   UNL     1      42.700 -15.770   7.649  1.00  0.00     0.021 C 
HETATM    8  C   UNL     1      40.467 -15.974   6.571  1.00  0.00     0.021 C 
BRANCH   6   9
HETATM    9  C   UNL     1      42.624 -16.576   5.282  1.00  0.00    -0.046 A 
HETATM   10  C   UNL     1      43.583 -17.514   5.698  1.00  0.00     0.027 A 
HETATM   11  C   UNL     1      44.179 -18.348   4.762  1.00  0.00     0.116 A 
HETATM   12  N   UNL     1      43.893 -18.326   3.446  1.00  0.00    -0.273 NA
HETATM   13  C   UNL     1      42.962 -17.435   3.055  1.00  0.00     0.116 A 
HETATM   14  C   UNL     1      42.314 -16.557   3.915  1.00  0.00     0.027 A 
ENDBRANCH   6   9
ENDBRANCH   5   6
ENDBRANCH   2   5
BRANCH   1  15
HETATM   15  C   UNL     1      44.413 -11.438   7.075  1.00  0.00     0.065 A 
HETATM   16  C   UNL     1      43.836 -11.224   8.340  1.00  0.00     0.026 A 
HETATM   17  C   UNL     1      44.468 -10.424   9.303  1.00  0.00    -0.061 A 
HETATM   18  C   UNL     1      43.854 -10.222  10.656  1.00  0.00     0.048 C 
HETATM   19  C   UNL     1      45.700  -9.839   8.997  1.00  0.00     0.009 A 
HETATM   20  C   UNL     1      46.291 -10.046   7.748  1.00  0.00     0.038 A 
HETATM   21  C   UNL     1      45.653 -10.843   6.794  1.00  0.00     0.081 A 
BRANCH  21  22
HETATM   22  O   UNL     1      46.271 -11.036   5.584  1.00  0.00    -0.360 OA
HETATM   23  H   UNL     1      46.971 -10.367   5.477  1.00  0.00     0.217 HD
ENDBRANCH  21  22
ENDBRANCH   1  15
TORSDOF 5
ENDMDL
MODEL 6
REMARK VINA RESULT:      -7.4      1.649      3.083
REMARK  5 active torsions:
REMARK  status: ('A' for Active; 'I' for Inactive)
REMARK    1  A    between atoms: C_4  and  C_5 
REMARK       I    between atoms: C_5  and  N_6 
REMARK    2  A    between atoms: N_6  and  C_7 
REMARK    3  A    between atoms: C_7  and  C_8 
REMARK    4  A    between atoms: C_8  and  C_9 
REMARK    5  A    between atoms: C_18  and  O_19 
ROOT
HETATM    1  C   UNL     1      42.988 -15.627   2.921  1.00  0.00     0.254 C 
HETATM    2  N   UNL     1      42.447 -15.534   1.661  1.00  0.00    -0.356 N 
HETATM    3  O   UNL     1      43.128 -14.649   3.649  1.00  0.00    -0.268 OA
HETATM    4  H   UNL     1      42.234 -16.410   1.187  1.00  0.00     0.162 HD
ENDROOT
BRANCH   2   5
HETATM    5  C   UNL     1      41.880 -14.297   1.161  1.00  0.00     0.136 C 
BRANCH   5   6
HETATM    6  C   UNL     1      40.323 -14.271   1.184  1.00  0.00    -0.004 C 
HETATM    7  C   UNL     1      39.822 -14.033  -0.259  1.00  0.00     0.021 C 
HETATM    8  C   UNL     1      39.831 -15.675   1.610  1.00  0.00     0.021 C 
BRANCH   6   9
HETATM    9  C   UNL     1      39.788 -13.133   2.074  1.00  0.00    -0.046 A 
HETATM   10  C   UNL     1      39.158 -12.016   1.504  1.00  0.00     0.027 A 
HETATM   11  C   UNL     1      38.686 -10.999   2.323  1.00  0.00     0.116 A 
HETATM   12  N   UNL     1      38.788 -11.009   3.666  1.00  0.00    -0.273 NA
HETATM   13  C   UNL     1      39.381 -12.091   4.210  1.00  0.00     0.116 A 
HETATM   14  C   UNL     1      39.886 -13.154   3.473  1.00  0.00     0.027 A 
ENDBRANCH   6   9
ENDBRANCH   5   6
ENDBRANCH   2   5
BRANCH   1  15
HETATM   15  C   UNL     1      43.400 -16.990   3.390  1.00  0.00     0.065 A 
HETATM   16  C   UNL     1      43.298 -18.041   2.461  1.00  0.00     0.026 A 
HETATM   17  C   UNL     1      43.653 -19.354   2.803  1.00  0.00    -0.061 A 
HETATM   18  C   UNL     1      43.563 -20.461   1.796  1.00  0.00     0.048 C 
HETATM   19  C   UNL     1      44.128 -19.614   4.092  1.00  0.00     0.009 A 
HETATM   20  C   UNL     1      44.241 -18.583   5.027  1.00  0.00     0.038 A 
HETATM   21  C   UNL     1      43.883 -17.277   4.677  1.00  0.00     0.081 A 
BRANCH  21  22
HETATM   22  O   UNL     1      44.022 -16.287   5.617  1.00  0.00    -0.360 OA
HETATM   23  H   UNL     1      43.283 -16.345   6.248  1.00  0.00     0.217 HD
ENDBRANCH  21  22
ENDBRANCH   1  15
TORSDOF 5
ENDMDL
MODEL 7
REMARK VINA RESULT:      -7.2      4.413      6.535
REMARK  5 active torsions:
REMARK  status: ('A' for Active; 'I' for Inactive)
REMARK    1  A    between atoms: C_4  and  C_5 
REMARK       I    between atoms: C_5  and  N_6 
REMARK    2  A    between atoms: N_6  and  C_7 
REMARK    3  A    between atoms: C_7  and  C_8 
REMARK    4  A    between atoms: C_8  and  C_9 
REMARK    5  A    between atoms: C_18  and  O_19 
ROOT
HETATM    1  C   UNL     1      42.654 -14.696   5.887  1.00  0.00     0.254 C 
HETATM    2  N   UNL     1      42.422 -13.820   4.854  1.00  0.00    -0.356 N 
HETATM    3  O   UNL     1      42.544 -14.366   7.065  1.00  0.00    -0.268 OA
HETATM    4  H   UNL     1      42.393 -14.215   3.915  1.00  0.00     0.162 HD
ENDROOT
BRANCH   2   5
HETATM    5  C   UNL     1      41.900 -12.487   5.083  1.00  0.00     0.136 C 
BRANCH   5   6
HETATM    6  C   UNL     1      42.950 -11.359   4.858  1.00  0.00    -0.004 C 
HETATM    7  C   UNL     1      43.830 -11.750   3.649  1.00  0.00     0.021 C 
HETATM    8  C   UNL     1      42.186 -10.071   4.467  1.00  0.00     0.021 C 
BRANCH   6   9
HETATM    9  C   UNL     1      43.865 -11.183   6.085  1.00  0.00    -0.046 A 
HETATM   10  C   UNL     1      43.319 -10.913   7.351  1.00  0.00     0.027 A 
HETATM   11  C   UNL     1      44.161 -10.754   8.443  1.00  0.00     0.116 A 
HETATM   12  N   UNL     1      45.503 -10.847   8.376  1.00  0.00    -0.273 NA
HETATM   13  C   UNL     1      46.021 -11.121   7.163  1.00  0.00     0.116 A 
HETATM   14  C   UNL     1      45.261 -11.293   6.013  1.00  0.00     0.027 A 
ENDBRANCH   6   9
ENDBRANCH   5   6
ENDBRANCH   2   5
BRANCH   1  15
HETATM   15  C   UNL     1      43.041 -16.098   5.522  1.00  0.00     0.065 A 
HETATM   16  C   UNL     1      43.071 -16.414   4.152  1.00  0.00     0.026 A 
HETATM   17  C   UNL     1      43.416 -17.698   3.708  1.00  0.00    -0.061 A 
HETATM   18  C   UNL     1      43.468 -18.016   2.244  1.00  0.00     0.048 C 
HETATM   19  C   UNL     1      43.746 -18.676   4.651  1.00  0.00     0.009 A 
HETATM   20  C   UNL     1      43.727 -18.380   6.015  1.00  0.00     0.038 A 
HETATM   21  C   UNL     1      43.380 -17.097   6.449  1.00  0.00     0.081 A 
BRANCH  21  22
HETATM   22  O   UNL     1      43.387 -16.838   7.796  1.00  0.00    -0.360 OA
HETATM   23  H   UNL     1      44.228 -17.151   8.174  1.00  0.00     0.217 HD
ENDBRANCH  21  22
ENDBRANCH   1  15
TORSDOF 5
ENDMDL
MODEL 8
REMARK VINA RESULT:      -7.1      2.856      4.415
REMARK  5 active torsions:
REMARK  status: ('A' for Active; 'I' for Inactive)
REMARK    1  A    between atoms: C_4  and  C_5 
REMARK       I    between atoms: C_5  and  N_6 
REMARK    2  A    between atoms: N_6  and  C_7 
REMARK    3  A    between atoms: C_7  and  C_8 
REMARK    4  A    between atoms: C_8  and  C_9 
REMARK    5  A    between atoms: C_18  and  O_19 
ROOT
HETATM    1  C   UNL     1      42.061 -15.819   2.561  1.00  0.00     0.254 C 
HETATM    2  N   UNL     1      42.681 -14.592   2.554  1.00  0.00    -0.356 N 
HETATM    3  O   UNL     1      40.915 -15.977   2.150  1.00  0.00    -0.268 OA
HETATM    4  H   UNL     1      43.676 -14.580   2.774  1.00  0.00     0.162 HD
ENDROOT
BRANCH   2   5
HETATM    5  C   UNL     1      42.074 -13.431   1.934  1.00  0.00     0.136 C 
BRANCH   5   6
HETATM    6  C   UNL     1      42.128 -12.151   2.820  1.00  0.00    -0.004 C 
HETATM    7  C   UNL     1      43.543 -12.047   3.433  1.00  0.00     0.021 C 
HETATM    8  C   UNL     1      41.943 -10.926   1.893  1.00  0.00     0.021 C 
BRANCH   6   9
HETATM    9  C   UNL     1      41.106 -12.214   3.971  1.00  0.00    -0.046 A 
HETATM   10  C   UNL     1      40.026 -11.318   4.016  1.00  0.00     0.027 A 
HETATM   11  C   UNL     1      39.118 -11.388   5.064  1.00  0.00     0.116 A 
HETATM   12  N   UNL     1      39.198 -12.283   6.068  1.00  0.00    -0.273 NA
HETATM   13  C   UNL     1      40.227 -13.150   6.012  1.00  0.00     0.116 A 
HETATM   14  C   UNL     1      41.187 -13.155   5.007  1.00  0.00     0.027 A 
ENDBRANCH   6   9
ENDBRANCH   5   6
ENDBRANCH   2   5
BRANCH   1  15
HETATM   15  C   UNL     1      42.849 -16.981   3.087  1.00  0.00     0.065 A 
HETATM   16  C   UNL     1      42.902 -18.131   2.279  1.00  0.00     0.026 A 
HETATM   17  C   UNL     1      43.609 -19.273   2.682  1.00  0.00    -0.061 A 
HETATM   18  C   UNL     1      43.678 -20.485   1.801  1.00  0.00     0.048 C 
HETATM   19  C   UNL     1      44.280 -19.258   3.908  1.00  0.00     0.009 A 
HETATM   20  C   UNL     1      44.244 -18.123   4.721  1.00  0.00     0.038 A 
HETATM   21  C   UNL     1      43.535 -16.990   4.312  1.00  0.00     0.081 A 
BRANCH  21  22
HETATM   22  O   UNL     1      43.534 -15.889   5.130  1.00  0.00    -0.360 OA
HETATM   23  H   UNL     1      44.451 -15.679   5.380  1.00  0.00     0.217 HD
ENDBRANCH  21  22
ENDBRANCH   1  15
TORSDOF 5
ENDMDL
MODEL 9
REMARK VINA RESULT:      -7.0      1.504      2.586
REMARK  5 active torsions:
REMARK  status: ('A' for Active; 'I' for Inactive)
REMARK    1  A    between atoms: C_4  and  C_5 
REMARK       I    between atoms: C_5  and  N_6 
REMARK    2  A    between atoms: N_6  and  C_7 
REMARK    3  A    between atoms: C_7  and  C_8 
REMARK    4  A    between atoms: C_8  and  C_9 
REMARK    5  A    between atoms: C_18  and  O_19 
ROOT
HETATM    1  C   UNL     1      42.935 -16.233   2.544  1.00  0.00     0.254 C 
HETATM    2  N   UNL     1      42.107 -15.137   2.572  1.00  0.00    -0.356 N 
HETATM    3  O   UNL     1      43.433 -16.653   1.503  1.00  0.00    -0.268 OA
HETATM    4  H   UNL     1      41.859 -14.772   3.490  1.00  0.00     0.162 HD
ENDROOT
BRANCH   2   5
HETATM    5  C   UNL     1      41.876 -14.321   1.396  1.00  0.00     0.136 C 
BRANCH   5   6
HETATM    6  C   UNL     1      40.382 -14.256   0.964  1.00  0.00    -0.004 C 
HETATM    7  C   UNL     1      39.759 -15.657   1.165  1.00  0.00     0.021 C 
HETATM    8  C   UNL     1      39.651 -13.292   1.929  1.00  0.00     0.021 C 
BRANCH   6   9
HETATM    9  C   UNL     1      40.236 -13.871  -0.520  1.00  0.00    -0.046 A 
HETATM   10  C   UNL     1      40.836 -12.702  -1.017  1.00  0.00     0.027 A 
HETATM   11  C   UNL     1      40.689 -12.370  -2.357  1.00  0.00     0.116 A 
HETATM   12  N   UNL     1      39.997 -13.112  -3.243  1.00  0.00    -0.273 NA
HETATM   13  C   UNL     1      39.437 -14.240  -2.765  1.00  0.00     0.116 A 
HETATM   14  C   UNL     1      39.525 -14.653  -1.441  1.00  0.00     0.027 A 
ENDBRANCH   6   9
ENDBRANCH   5   6
ENDBRANCH   2   5
BRANCH   1  15
HETATM   15  C   UNL     1      43.225 -16.906   3.852  1.00  0.00     0.065 A 
HETATM   16  C   UNL     1      42.898 -16.194   5.020  1.00  0.00     0.026 A 
HETATM   17  C   UNL     1      43.134 -16.733   6.293  1.00  0.00    -0.061 A 
HETATM   18  C   UNL     1      42.760 -15.974   7.530  1.00  0.00     0.048 C 
HETATM   19  C   UNL     1      43.696 -18.009   6.395  1.00  0.00     0.009 A 
HETATM   20  C   UNL     1      44.021 -18.734   5.246  1.00  0.00     0.038 A 
HETATM   21  C   UNL     1      43.784 -18.187   3.981  1.00  0.00     0.081 A 
BRANCH  21  22
HETATM   22  O   UNL     1      44.103 -18.935   2.876  1.00  0.00    -0.360 OA
HETATM   23  H   UNL     1      43.617 -19.777   2.914  1.00  0.00     0.217 HD
ENDBRANCH  21  22
ENDBRANCH   1  15
TORSDOF 5
ENDMDL
MODEL 10
REMARK VINA RESULT:      -7.0      3.418      7.584
REMARK  5 active torsions:
REMARK  status: ('A' for Active; 'I' for Inactive)
REMARK    1  A    between atoms: C_4  and  C_5 
REMARK       I    between atoms: C_5  and  N_6 
REMARK    2  A    between atoms: N_6  and  C_7 
REMARK    3  A    between atoms: C_7  and  C_8 
REMARK    4  A    between atoms: C_8  and  C_9 
REMARK    5  A    between atoms: C_18  and  O_19 
ROOT
HETATM    1  C   UNL     1      39.926 -13.530   5.425  1.00  0.00     0.254 C 
HETATM    2  N   UNL     1      40.247 -14.265   4.309  1.00  0.00    -0.356 N 
HETATM    3  O   UNL     1      40.057 -13.974   6.563  1.00  0.00    -0.268 OA
HETATM    4  H   UNL     1      40.248 -13.770   3.419  1.00  0.00     0.162 HD
ENDROOT
BRANCH   2   5
HETATM    5  C   UNL     1      40.888 -15.561   4.404  1.00  0.00     0.136 C 
BRANCH   5   6
HETATM    6  C   UNL     1      41.916 -15.834   3.267  1.00  0.00    -0.004 C 
HETATM    7  C   UNL     1      41.134 -16.081   1.956  1.00  0.00     0.021 C 
HETATM    8  C   UNL     1      42.750 -14.546   3.063  1.00  0.00     0.021 C 
BRANCH   6   9
HETATM    9  C   UNL     1      42.771 -17.082   3.562  1.00  0.00    -0.046 A 
HETATM   10  C   UNL     1      43.237 -17.337   4.862  1.00  0.00     0.027 A 
HETATM   11  C   UNL     1      44.009 -18.464   5.106  1.00  0.00     0.116 A 
HETATM   12  N   UNL     1      44.350 -19.360   4.160  1.00  0.00    -0.273 NA
HETATM   13  C   UNL     1      43.888 -19.119   2.918  1.00  0.00     0.116 A 
HETATM   14  C   UNL     1      43.113 -18.018   2.576  1.00  0.00     0.027 A 
ENDBRANCH   6   9
ENDBRANCH   5   6
ENDBRANCH   2   5
BRANCH   1  15
HETATM   15  C   UNL     1      39.414 -12.138   5.206  1.00  0.00     0.065 A 
HETATM   16  C   UNL     1      39.249 -11.724   3.872  1.00  0.00     0.026 A 
HETATM   17  C   UNL     1      38.780 -10.440   3.560  1.00  0.00    -0.061 A 
HETATM   18  C   UNL     1      38.585 -10.019   2.134  1.00  0.00     0.048 C 
HETATM   19  C   UNL     1      38.463  -9.563   4.601  1.00  0.00     0.009 A 
HETATM   20  C   UNL     1      38.616  -9.958   5.931  1.00  0.00     0.038 A 
HETATM   21  C   UNL     1      39.085 -11.240   6.233  1.00  0.00     0.081 A 
BRANCH  21  22
HETATM   22  O   UNL     1      39.208 -11.598   7.552  1.00  0.00    -0.360 OA
HETATM   23  H   UNL     1      40.017 -12.128   7.661  1.00  0.00     0.217 HD
ENDBRANCH  21  22
ENDBRANCH   1  15
TORSDOF 5
ENDMDL
