MODEL 1
REMARK VINA RESULT:      -9.4      0.000      0.000
REMARK  7 active torsions:
REMARK  status: ('A' for Active; 'I' for Inactive)
REMARK    1  A    between atoms: C_2  and  C_3 
REMARK    2  A    between atoms: C_6  and  N_7 
REMARK       I    between atoms: N_7  and  C_8 
REMARK       I    between atoms: C_8  and  N_9 
REMARK    3  A    between atoms: N_13  and  C_14 
REMARK    4  A    between atoms: N_21  and  C_22 
REMARK    5  A    between atoms: C_22  and  C_23 
REMARK       I    between atoms: C_23  and  N_24 
REMARK    6  A    between atoms: N_24  and  C_25 
REMARK    7  A    between atoms: C_25  and  C_26 
ROOT
HETATM    1  N   UNL     1      43.039 -14.563   4.822  1.00  0.00    -0.309 N 
HETATM    2  C   UNL     1      41.852 -13.930   5.113  1.00  0.00     0.322 C 
HETATM    3  N   UNL     1      41.963 -12.558   5.376  1.00  0.00    -0.334 N 
HETATM    4  C   UNL     1      40.713 -11.833   5.592  1.00  0.00     0.130 C 
HETATM    5  C   UNL     1      40.860 -10.759   6.662  1.00  0.00     0.061 C 
HETATM    6  C   UNL     1      42.110  -9.885   6.464  1.00  0.00     0.118 C 
HETATM    7  N   UNL     1      42.373  -9.015   7.652  1.00  0.00    -0.346 N 
HETATM    8  C   UNL     1      41.946  -7.645   7.384  1.00  0.00     0.254 C 
HETATM    9  N   UNL     1      41.717  -7.602   5.972  1.00  0.00    -0.325 N 
HETATM   10  C   UNL     1      41.755  -8.846   5.380  1.00  0.00     0.250 C 
HETATM   11  O   UNL     1      41.500  -9.075   4.207  1.00  0.00    -0.270 OA
HETATM   12  C   UNL     1      43.373 -10.628   6.004  1.00  0.00     0.061 C 
HETATM   13  C   UNL     1      43.078 -11.704   4.962  1.00  0.00     0.130 C 
HETATM   14  O   UNL     1      40.763 -14.497   5.155  1.00  0.00    -0.247 OA
HETATM   15  H   UNL     1      43.879 -14.093   5.112  1.00  0.00     0.170 HD
ENDROOT
BRANCH   7  16
HETATM   16  C   UNL     1      42.573  -9.431   8.961  1.00  0.00     0.032 A 
HETATM   17  C   UNL     1      41.604  -9.295   9.970  1.00  0.00     0.029 A 
HETATM   18  C   UNL     1      41.826  -9.694  11.297  1.00  0.00     0.002 A 
HETATM   19  C   UNL     1      43.034 -10.268  11.660  1.00  0.00     0.000 A 
HETATM   20  C   UNL     1      44.009 -10.450  10.691  1.00  0.00     0.002 A 
HETATM   21  C   UNL     1      43.776 -10.045   9.369  1.00  0.00     0.029 A 
ENDBRANCH   7  16
BRANCH   9  22
HETATM   22  C   UNL     1      41.029  -6.477   5.361  1.00  0.00     0.230 C 
BRANCH  22  23
HETATM   23  C   UNL     1      41.913  -5.312   4.925  1.00  0.00     0.235 C 
HETATM   24  N   UNL     1      42.491  -5.435   3.686  1.00  0.00    -0.354 N 
HETATM   25  H   UNL     1      42.281  -6.239   3.105  1.00  0.00     0.162 HD
HETATM   26  O   UNL     1      41.982  -4.275   5.584  1.00  0.00    -0.272 OA
BRANCH  24  27
HETATM   27  C   UNL     1      43.141  -4.298   3.078  1.00  0.00     0.187 C 
BRANCH  27  28
HETATM   28  C   UNL     1      43.473  -4.551   1.654  1.00  0.00     0.070 A 
HETATM   29  O   UNL     1      42.493  -5.043   0.837  1.00  0.00    -0.325 OA
HETATM   30  C   UNL     1      43.045  -5.195  -0.395  1.00  0.00     0.142 A 
HETATM   31  C   UNL     1      44.363  -4.804  -0.386  1.00  0.00     0.027 A 
HETATM   32  C   UNL     1      44.641  -4.387   0.936  1.00  0.00     0.036 A 
ENDBRANCH  27  28
ENDBRANCH  24  27
ENDBRANCH  22  23
ENDBRANCH   9  22
BRANCH   1  33
HETATM   33  C   UNL     1      43.222 -15.871   4.324  1.00  0.00     0.036 A 
HETATM   34  C   UNL     1      42.987 -16.248   3.003  1.00  0.00     0.030 A 
HETATM   35  C   UNL     1      43.236 -17.559   2.578  1.00  0.00     0.010 A 
HETATM   36  C   UNL     1      43.750 -18.518   3.459  1.00  0.00    -0.055 A 
HETATM   37  C   UNL     1      43.967 -18.142   4.790  1.00  0.00     0.010 A 
HETATM   38  C   UNL     1      43.703 -16.835   5.218  1.00  0.00     0.030 A 
BRANCH  36  39
HETATM   39  C   UNL     1      44.056 -19.939   3.019  1.00  0.00     0.010 C 
HETATM   40  C   UNL     1      43.256 -20.372   1.785  1.00  0.00     0.015 C 
HETATM   41  C   UNL     1      43.843 -20.920   4.172  1.00  0.00     0.015 C 
ENDBRANCH  36  39
ENDBRANCH   1  33
TORSDOF 7
ENDMDL
MODEL 2
REMARK VINA RESULT:      -9.3      2.318      4.285
REMARK  7 active torsions:
REMARK  status: ('A' for Active; 'I' for Inactive)
REMARK    1  A    between atoms: C_2  and  C_3 
REMARK    2  A    between atoms: C_6  and  N_7 
REMARK       I    between atoms: N_7  and  C_8 
REMARK       I    between atoms: C_8  and  N_9 
REMARK    3  A    between atoms: N_13  and  C_14 
REMARK    4  A    between atoms: N_21  and  C_22 
REMARK    5  A    between atoms: C_22  and  C_23 
REMARK       I    between atoms: C_23  and  N_24 
REMARK    6  A    between atoms: N_24  and  C_25 
REMARK    7  A    between atoms: C_25  and  C_26 
ROOT
HETATM    1  N   UNL     1      43.081 -14.564   4.652  1.00  0.00    -0.309 N 
HETATM    2  C   UNL     1      41.918 -13.971   5.086  1.00  0.00     0.322 C 
HETATM    3  N   UNL     1      41.995 -12.583   5.267  1.00  0.00    -0.334 N 
HETATM    4  C   UNL     1      40.754 -11.903   5.632  1.00  0.00     0.130 C 
HETATM    5  C   UNL     1      41.000 -10.770   6.618  1.00  0.00     0.061 C 
HETATM    6  C   UNL     1      42.162  -9.852   6.198  1.00  0.00     0.118 C 
HETATM    7  N   UNL     1      42.549  -8.911   7.294  1.00  0.00    -0.346 N 
HETATM    8  C   UNL     1      42.018  -7.577   7.030  1.00  0.00     0.254 C 
HETATM    9  N   UNL     1      41.584  -7.618   5.667  1.00  0.00    -0.325 N 
HETATM   10  C   UNL     1      41.600  -8.888   5.134  1.00  0.00     0.250 C 
HETATM   11  O   UNL     1      41.189  -9.190   4.022  1.00  0.00    -0.270 OA
HETATM   12  C   UNL     1      43.380 -10.562   5.592  1.00  0.00     0.061 C 
HETATM   13  C   UNL     1      42.993 -11.703   4.655  1.00  0.00     0.130 C 
HETATM   14  O   UNL     1      40.877 -14.582   5.314  1.00  0.00    -0.247 OA
HETATM   15  H   UNL     1      43.929 -14.043   4.793  1.00  0.00     0.170 HD
ENDROOT
BRANCH   7  16
HETATM   16  C   UNL     1      42.958  -9.248   8.577  1.00  0.00     0.032 A 
HETATM   17  C   UNL     1      44.292  -9.540   8.910  1.00  0.00     0.029 A 
HETATM   18  C   UNL     1      44.690  -9.907  10.205  1.00  0.00     0.002 A 
HETATM   19  C   UNL     1      43.758  -9.974  11.228  1.00  0.00     0.000 A 
HETATM   20  C   UNL     1      42.435  -9.663  10.954  1.00  0.00     0.002 A 
HETATM   21  C   UNL     1      42.050  -9.301   9.655  1.00  0.00     0.029 A 
ENDBRANCH   7  16
BRANCH   9  22
HETATM   22  C   UNL     1      40.758  -6.558   5.114  1.00  0.00     0.230 C 
BRANCH  22  23
HETATM   23  C   UNL     1      39.886  -5.803   6.114  1.00  0.00     0.235 C 
HETATM   24  N   UNL     1      38.865  -6.526   6.678  1.00  0.00    -0.354 N 
HETATM   25  H   UNL     1      38.757  -7.511   6.458  1.00  0.00     0.162 HD
HETATM   26  O   UNL     1      40.174  -4.667   6.488  1.00  0.00    -0.272 OA
BRANCH  24  27
HETATM   27  C   UNL     1      38.139  -5.989   7.805  1.00  0.00     0.187 C 
BRANCH  27  28
HETATM   28  C   UNL     1      38.594  -6.586   9.085  1.00  0.00     0.070 A 
HETATM   29  O   UNL     1      38.326  -7.906   9.317  1.00  0.00    -0.325 OA
HETATM   30  C   UNL     1      38.829  -8.203  10.543  1.00  0.00     0.142 A 
HETATM   31  C   UNL     1      39.422  -7.096  11.103  1.00  0.00     0.027 A 
HETATM   32  C   UNL     1      39.272  -6.051  10.163  1.00  0.00     0.036 A 
ENDBRANCH  27  28
ENDBRANCH  24  27
ENDBRANCH  22  23
ENDBRANCH   9  22
BRANCH   1  33
HETATM   33  C   UNL     1      43.257 -15.888   4.193  1.00  0.00     0.036 A 
HETATM   34  C   UNL     1      42.970 -16.313   2.896  1.00  0.00     0.030 A 
HETATM   35  C   UNL     1      43.215 -17.636   2.507  1.00  0.00     0.010 A 
HETATM   36  C   UNL     1      43.776 -18.559   3.398  1.00  0.00    -0.055 A 
HETATM   37  C   UNL     1      44.045 -18.133   4.704  1.00  0.00     0.010 A 
HETATM   38  C   UNL     1      43.786 -16.815   5.098  1.00  0.00     0.030 A 
BRANCH  36  39
HETATM   39  C   UNL     1      44.079 -19.991   2.995  1.00  0.00     0.010 C 
HETATM   40  C   UNL     1      43.319 -20.435   1.740  1.00  0.00     0.015 C 
HETATM   41  C   UNL     1      43.809 -20.948   4.157  1.00  0.00     0.015 C 
ENDBRANCH  36  39
ENDBRANCH   1  33
TORSDOF 7
ENDMDL
MODEL 3
REMARK VINA RESULT:      -9.2      4.056      9.376
REMARK  7 active torsions:
REMARK  status: ('A' for Active; 'I' for Inactive)
REMARK    1  A    between atoms: C_2  and  C_3 
REMARK    2  A    between atoms: C_6  and  N_7 
REMARK       I    between atoms: N_7  and  C_8 
REMARK       I    between atoms: C_8  and  N_9 
REMARK    3  A    between atoms: N_13  and  C_14 
REMARK    4  A    between atoms: N_21  and  C_22 
REMARK    5  A    between atoms: C_22  and  C_23 
REMARK       I    between atoms: C_23  and  N_24 
REMARK    6  A    between atoms: N_24  and  C_25 
REMARK    7  A    between atoms: C_25  and  C_26 
ROOT
HETATM    1  N   UNL     1      42.581 -10.173   8.847  1.00  0.00    -0.309 N 
HETATM    2  C   UNL     1      43.506 -10.354   7.845  1.00  0.00     0.322 C 
HETATM    3  N   UNL     1      43.032 -11.047   6.722  1.00  0.00    -0.334 N 
HETATM    4  C   UNL     1      43.955 -11.174   5.597  1.00  0.00     0.130 C 
HETATM    5  C   UNL     1      43.825 -12.526   4.909  1.00  0.00     0.061 C 
HETATM    6  C   UNL     1      42.365 -12.911   4.617  1.00  0.00     0.118 C 
HETATM    7  N   UNL     1      42.243 -14.337   4.181  1.00  0.00    -0.346 N 
HETATM    8  C   UNL     1      42.061 -14.412   2.734  1.00  0.00     0.254 C 
HETATM    9  N   UNL     1      41.766 -13.071   2.331  1.00  0.00    -0.325 N 
HETATM   10  C   UNL     1      41.954 -12.151   3.339  1.00  0.00     0.250 C 
HETATM   11  O   UNL     1      41.857 -10.939   3.213  1.00  0.00    -0.270 OA
HETATM   12  C   UNL     1      41.354 -12.558   5.717  1.00  0.00     0.061 C 
HETATM   13  C   UNL     1      41.624 -11.196   6.351  1.00  0.00     0.130 C 
HETATM   14  O   UNL     1      44.668  -9.959   7.901  1.00  0.00    -0.247 OA
HETATM   15  H   UNL     1      41.783 -10.785   8.836  1.00  0.00     0.170 HD
ENDROOT
BRANCH   7  16
HETATM   16  C   UNL     1      42.655 -15.461   4.883  1.00  0.00     0.032 A 
HETATM   17  C   UNL     1      42.287 -15.716   6.215  1.00  0.00     0.029 A 
HETATM   18  C   UNL     1      42.731 -16.842   6.925  1.00  0.00     0.002 A 
HETATM   19  C   UNL     1      43.552 -17.775   6.310  1.00  0.00     0.000 A 
HETATM   20  C   UNL     1      43.915 -17.582   4.986  1.00  0.00     0.002 A 
HETATM   21  C   UNL     1      43.467 -16.450   4.289  1.00  0.00     0.029 A 
ENDBRANCH   7  16
BRANCH   9  22
HETATM   22  C   UNL     1      41.780 -12.693   0.928  1.00  0.00     0.230 C 
BRANCH  22  23
HETATM   23  C   UNL     1      40.545 -13.085   0.120  1.00  0.00     0.235 C 
HETATM   24  N   UNL     1      40.733 -13.203  -1.234  1.00  0.00    -0.354 N 
HETATM   25  H   UNL     1      41.658 -13.080  -1.632  1.00  0.00     0.162 HD
HETATM   26  O   UNL     1      39.494 -13.409   0.671  1.00  0.00    -0.272 OA
BRANCH  24  27
HETATM   27  C   UNL     1      39.705 -13.800  -2.054  1.00  0.00     0.187 C 
BRANCH  27  28
HETATM   28  C   UNL     1      38.640 -12.825  -2.396  1.00  0.00     0.070 A 
HETATM   29  O   UNL     1      38.995 -11.519  -2.591  1.00  0.00    -0.325 OA
HETATM   30  C   UNL     1      37.855 -10.838  -2.878  1.00  0.00     0.142 A 
HETATM   31  C   UNL     1      36.773 -11.685  -2.875  1.00  0.00     0.027 A 
HETATM   32  C   UNL     1      37.277 -12.968  -2.566  1.00  0.00     0.036 A 
ENDBRANCH  27  28
ENDBRANCH  24  27
ENDBRANCH  22  23
ENDBRANCH   9  22
BRANCH   1  33
HETATM   33  C   UNL     1      42.695  -9.354   9.991  1.00  0.00     0.036 A 
HETATM   34  C   UNL     1      42.459  -7.980   9.999  1.00  0.00     0.030 A 
HETATM   35  C   UNL     1      42.551  -7.245  11.188  1.00  0.00     0.010 A 
HETATM   36  C   UNL     1      42.859  -7.871  12.402  1.00  0.00    -0.055 A 
HETATM   37  C   UNL     1      43.114  -9.247  12.387  1.00  0.00     0.010 A 
HETATM   38  C   UNL     1      43.037  -9.979  11.195  1.00  0.00     0.030 A 
BRANCH  36  39
HETATM   39  C   UNL     1      42.937  -7.104  13.710  1.00  0.00     0.010 C 
HETATM   40  C   UNL     1      42.236  -7.820  14.869  1.00  0.00     0.015 C 
HETATM   41  C   UNL     1      42.387  -5.687  13.539  1.00  0.00     0.015 C 
ENDBRANCH  36  39
ENDBRANCH   1  33
TORSDOF 7
ENDMDL
MODEL 4
REMARK VINA RESULT:      -9.1      2.381      3.210
REMARK  7 active torsions:
REMARK  status: ('A' for Active; 'I' for Inactive)
REMARK    1  A    between atoms: C_2  and  C_3 
REMARK    2  A    between atoms: C_6  and  N_7 
REMARK       I    between atoms: N_7  and  C_8 
REMARK       I    between atoms: C_8  and  N_9 
REMARK    3  A    between atoms: N_13  and  C_14 
REMARK    4  A    between atoms: N_21  and  C_22 
REMARK    5  A    between atoms: C_22  and  C_23 
REMARK       I    between atoms: C_23  and  N_24 
REMARK    6  A    between atoms: N_24  and  C_25 
REMARK    7  A    between atoms: C_25  and  C_26 
ROOT
HETATM    1  N   UNL     1      43.061 -14.502   4.868  1.00  0.00    -0.309 N 
HETATM    2  C   UNL     1      41.876 -13.869   5.168  1.00  0.00     0.322 C 
HETATM    3  N   UNL     1      41.991 -12.499   5.441  1.00  0.00    -0.334 N 
HETATM    4  C   UNL     1      40.744 -11.773   5.667  1.00  0.00     0.130 C 
HETATM    5  C   UNL     1      40.897 -10.708   6.745  1.00  0.00     0.061 C 
HETATM    6  C   UNL     1      42.149  -9.835   6.549  1.00  0.00     0.118 C 
HETATM    7  N   UNL     1      42.417  -8.976   7.744  1.00  0.00    -0.346 N 
HETATM    8  C   UNL     1      41.992  -7.602   7.488  1.00  0.00     0.254 C 
HETATM    9  N   UNL     1      41.759  -7.547   6.077  1.00  0.00    -0.325 N 
HETATM   10  C   UNL     1      41.792  -8.787   5.476  1.00  0.00     0.250 C 
HETATM   11  O   UNL     1      41.532  -9.006   4.301  1.00  0.00    -0.270 OA
HETATM   12  C   UNL     1      43.408 -10.577   6.080  1.00  0.00     0.061 C 
HETATM   13  C   UNL     1      43.107 -11.644   5.031  1.00  0.00     0.130 C 
HETATM   14  O   UNL     1      40.786 -14.434   5.209  1.00  0.00    -0.247 OA
HETATM   15  H   UNL     1      43.903 -14.036   5.159  1.00  0.00     0.170 HD
ENDROOT
BRANCH   7  16
HETATM   16  C   UNL     1      42.621  -9.402   9.049  1.00  0.00     0.032 A 
HETATM   17  C   UNL     1      43.813 -10.002   9.488  1.00  0.00     0.029 A 
HETATM   18  C   UNL     1      43.999 -10.455  10.803  1.00  0.00     0.002 A 
HETATM   19  C   UNL     1      42.991 -10.301  11.742  1.00  0.00     0.000 A 
HETATM   20  C   UNL     1      41.807  -9.685  11.363  1.00  0.00     0.002 A 
HETATM   21  C   UNL     1      41.634  -9.240  10.044  1.00  0.00     0.029 A 
ENDBRANCH   7  16
BRANCH   9  22
HETATM   22  C   UNL     1      41.071  -6.416   5.478  1.00  0.00     0.230 C 
BRANCH  22  23
HETATM   23  C   UNL     1      39.581  -6.609   5.208  1.00  0.00     0.235 C 
HETATM   24  N   UNL     1      39.257  -7.054   3.950  1.00  0.00    -0.354 N 
HETATM   25  H   UNL     1      39.989  -7.277   3.286  1.00  0.00     0.162 HD
HETATM   26  O   UNL     1      38.747  -6.508   6.106  1.00  0.00    -0.272 OA
BRANCH  24  27
HETATM   27  C   UNL     1      37.913  -7.500   3.669  1.00  0.00     0.187 C 
BRANCH  27  28
HETATM   28  C   UNL     1      37.905  -8.754   2.876  1.00  0.00     0.070 A 
HETATM   29  O   UNL     1      37.361  -8.727   1.622  1.00  0.00    -0.325 OA
HETATM   30  C   UNL     1      37.465  -9.983   1.117  1.00  0.00     0.142 A 
HETATM   31  C   UNL     1      38.073 -10.819   2.024  1.00  0.00     0.027 A 
HETATM   32  C   UNL     1      38.359 -10.027   3.160  1.00  0.00     0.036 A 
ENDBRANCH  27  28
ENDBRANCH  24  27
ENDBRANCH  22  23
ENDBRANCH   9  22
BRANCH   1  33
HETATM   33  C   UNL     1      43.240 -15.807   4.359  1.00  0.00     0.036 A 
HETATM   34  C   UNL     1      42.999 -16.173   3.036  1.00  0.00     0.030 A 
HETATM   35  C   UNL     1      43.244 -17.481   2.600  1.00  0.00     0.010 A 
HETATM   36  C   UNL     1      43.759 -18.448   3.472  1.00  0.00    -0.055 A 
HETATM   37  C   UNL     1      43.981 -18.082   4.804  1.00  0.00     0.010 A 
HETATM   38  C   UNL     1      43.722 -16.778   5.244  1.00  0.00     0.030 A 
BRANCH  36  39
HETATM   39  C   UNL     1      44.061 -19.866   3.019  1.00  0.00     0.010 C 
HETATM   40  C   UNL     1      43.242 -20.294   1.797  1.00  0.00     0.015 C 
HETATM   41  C   UNL     1      43.868 -20.853   4.171  1.00  0.00     0.015 C 
ENDBRANCH  36  39
ENDBRANCH   1  33
TORSDOF 7
ENDMDL
MODEL 5
REMARK VINA RESULT:      -9.1      3.120      5.600
REMARK  7 active torsions:
REMARK  status: ('A' for Active; 'I' for Inactive)
REMARK    1  A    between atoms: C_2  and  C_3 
REMARK    2  A    between atoms: C_6  and  N_7 
REMARK       I    between atoms: N_7  and  C_8 
REMARK       I    between atoms: C_8  and  N_9 
REMARK    3  A    between atoms: N_13  and  C_14 
REMARK    4  A    between atoms: N_21  and  C_22 
REMARK    5  A    between atoms: C_22  and  C_23 
REMARK       I    between atoms: C_23  and  N_24 
REMARK    6  A    between atoms: N_24  and  C_25 
REMARK    7  A    between atoms: C_25  and  C_26 
ROOT
HETATM    1  N   UNL     1      41.661 -14.492   4.160  1.00  0.00    -0.309 N 
HETATM    2  C   UNL     1      42.319 -13.285   4.217  1.00  0.00     0.322 C 
HETATM    3  N   UNL     1      41.575 -12.231   4.766  1.00  0.00    -0.334 N 
HETATM    4  C   UNL     1      42.272 -10.959   4.934  1.00  0.00     0.130 C 
HETATM    5  C   UNL     1      41.361  -9.773   4.648  1.00  0.00     0.061 C 
HETATM    6  C   UNL     1      39.998  -9.882   5.354  1.00  0.00     0.118 C 
HETATM    7  N   UNL     1      39.034  -8.850   4.861  1.00  0.00    -0.346 N 
HETATM    8  C   UNL     1      38.920  -7.760   5.826  1.00  0.00     0.254 C 
HETATM    9  N   UNL     1      39.551  -8.252   7.013  1.00  0.00    -0.325 N 
HETATM   10  C   UNL     1      40.220  -9.440   6.814  1.00  0.00     0.250 C 
HETATM   11  O   UNL     1      40.910 -10.007   7.650  1.00  0.00    -0.270 OA
HETATM   12  C   UNL     1      39.375 -11.285   5.378  1.00  0.00     0.061 C 
HETATM   13  C   UNL     1      40.405 -12.383   5.633  1.00  0.00     0.130 C 
HETATM   14  O   UNL     1      43.468 -13.108   3.819  1.00  0.00    -0.247 OA
HETATM   15  H   UNL     1      40.658 -14.457   4.218  1.00  0.00     0.170 HD
ENDROOT
BRANCH   7  16
HETATM   16  C   UNL     1      38.614  -8.658   3.552  1.00  0.00     0.032 A 
HETATM   17  C   UNL     1      38.579  -7.398   2.931  1.00  0.00     0.029 A 
HETATM   18  C   UNL     1      38.127  -7.211   1.615  1.00  0.00     0.002 A 
HETATM   19  C   UNL     1      37.709  -8.296   0.861  1.00  0.00     0.000 A 
HETATM   20  C   UNL     1      37.755  -9.562   1.422  1.00  0.00     0.002 A 
HETATM   21  C   UNL     1      38.207  -9.735   2.738  1.00  0.00     0.029 A 
ENDBRANCH   7  16
BRANCH   9  22
HETATM   22  C   UNL     1      39.870  -7.359   8.114  1.00  0.00     0.230 C 
BRANCH  22  23
HETATM   23  C   UNL     1      41.278  -6.770   8.107  1.00  0.00     0.235 C 
HETATM   24  N   UNL     1      42.155  -7.315   9.012  1.00  0.00    -0.354 N 
HETATM   25  H   UNL     1      41.866  -8.091   9.596  1.00  0.00     0.162 HD
HETATM   26  O   UNL     1      41.633  -5.964   7.249  1.00  0.00    -0.272 OA
BRANCH  24  27
HETATM   27  C   UNL     1      43.563  -7.006   8.924  1.00  0.00     0.187 C 
BRANCH  27  28
HETATM   28  C   UNL     1      44.379  -8.224   8.693  1.00  0.00     0.070 A 
HETATM   29  O   UNL     1      45.667  -8.071   8.262  1.00  0.00    -0.325 OA
HETATM   30  C   UNL     1      46.188  -9.317   8.118  1.00  0.00     0.142 A 
HETATM   31  C   UNL     1      45.257 -10.271   8.454  1.00  0.00     0.027 A 
HETATM   32  C   UNL     1      44.089  -9.568   8.826  1.00  0.00     0.036 A 
ENDBRANCH  27  28
ENDBRANCH  24  27
ENDBRANCH  22  23
ENDBRANCH   9  22
BRANCH   1  33
HETATM   33  C   UNL     1      42.204 -15.759   3.854  1.00  0.00     0.036 A 
HETATM   34  C   UNL     1      42.046 -16.406   2.630  1.00  0.00     0.030 A 
HETATM   35  C   UNL     1      42.655 -17.645   2.392  1.00  0.00     0.010 A 
HETATM   36  C   UNL     1      43.457 -18.254   3.365  1.00  0.00    -0.055 A 
HETATM   37  C   UNL     1      43.598 -17.610   4.600  1.00  0.00     0.010 A 
HETATM   38  C   UNL     1      42.976 -16.379   4.843  1.00  0.00     0.030 A 
BRANCH  36  39
HETATM   39  C   UNL     1      44.153 -19.581   3.123  1.00  0.00     0.010 C 
HETATM   40  C   UNL     1      43.608 -20.333   1.904  1.00  0.00     0.015 C 
HETATM   41  C   UNL     1      44.087 -20.461   4.373  1.00  0.00     0.015 C 
ENDBRANCH  36  39
ENDBRANCH   1  33
TORSDOF 7
ENDMDL
MODEL 6
REMARK VINA RESULT:      -8.8      3.789      8.949
REMARK  7 active torsions:
REMARK  status: ('A' for Active; 'I' for Inactive)
REMARK    1  A    between atoms: C_2  and  C_3 
REMARK    2  A    between atoms: C_6  and  N_7 
REMARK       I    between atoms: N_7  and  C_8 
REMARK       I    between atoms: C_8  and  N_9 
REMARK    3  A    between atoms: N_13  and  C_14 
REMARK    4  A    between atoms: N_21  and  C_22 
REMARK    5  A    between atoms: C_22  and  C_23 
REMARK       I    between atoms: C_23  and  N_24 
REMARK    6  A    between atoms: N_24  and  C_25 
REMARK    7  A    between atoms: C_25  and  C_26 
ROOT
HETATM    1  N   UNL     1      42.513 -10.306   8.609  1.00  0.00    -0.309 N 
HETATM    2  C   UNL     1      43.366 -10.446   7.539  1.00  0.00     0.322 C 
HETATM    3  N   UNL     1      42.845 -11.170   6.458  1.00  0.00    -0.334 N 
HETATM    4  C   UNL     1      43.684 -11.256   5.265  1.00  0.00     0.130 C 
HETATM    5  C   UNL     1      43.573 -12.618   4.593  1.00  0.00     0.061 C 
HETATM    6  C   UNL     1      42.117 -13.080   4.416  1.00  0.00     0.118 C 
HETATM    7  N   UNL     1      42.037 -14.514   3.995  1.00  0.00    -0.346 N 
HETATM    8  C   UNL     1      41.749 -14.608   2.566  1.00  0.00     0.254 C 
HETATM    9  N   UNL     1      41.354 -13.287   2.183  1.00  0.00    -0.325 N 
HETATM   10  C   UNL     1      41.570 -12.352   3.171  1.00  0.00     0.250 C 
HETATM   11  O   UNL     1      41.400 -11.147   3.049  1.00  0.00    -0.270 OA
HETATM   12  C   UNL     1      41.176 -12.773   5.590  1.00  0.00     0.061 C 
HETATM   13  C   UNL     1      41.422 -11.395   6.197  1.00  0.00     0.130 C 
HETATM   14  O   UNL     1      44.506  -9.990   7.505  1.00  0.00    -0.247 OA
HETATM   15  H   UNL     1      41.750 -10.959   8.661  1.00  0.00     0.170 HD
ENDROOT
BRANCH   7  16
HETATM   16  C   UNL     1      42.560 -15.610   4.666  1.00  0.00     0.032 A 
HETATM   17  C   UNL     1      42.291 -15.888   6.017  1.00  0.00     0.029 A 
HETATM   18  C   UNL     1      42.846 -16.984   6.694  1.00  0.00     0.002 A 
HETATM   19  C   UNL     1      43.685 -17.863   6.028  1.00  0.00     0.000 A 
HETATM   20  C   UNL     1      43.955 -17.647   4.685  1.00  0.00     0.002 A 
HETATM   21  C   UNL     1      43.395 -16.546   4.021  1.00  0.00     0.029 A 
ENDBRANCH   7  16
BRANCH   9  22
HETATM   22  C   UNL     1      41.240 -12.919   0.782  1.00  0.00     0.230 C 
BRANCH  22  23
HETATM   23  C   UNL     1      39.910 -12.299   0.362  1.00  0.00     0.235 C 
HETATM   24  N   UNL     1      38.923 -12.305   1.317  1.00  0.00    -0.354 N 
HETATM   25  H   UNL     1      39.117 -12.662   2.246  1.00  0.00     0.162 HD
HETATM   26  O   UNL     1      39.786 -11.709  -0.710  1.00  0.00    -0.272 OA
BRANCH  24  27
HETATM   27  C   UNL     1      37.720 -11.534   1.112  1.00  0.00     0.187 C 
BRANCH  27  28
HETATM   28  C   UNL     1      37.760 -10.247   1.850  1.00  0.00     0.070 A 
HETATM   29  O   UNL     1      37.181  -9.151   1.275  1.00  0.00    -0.325 OA
HETATM   30  C   UNL     1      37.359  -8.113   2.133  1.00  0.00     0.142 A 
HETATM   31  C   UNL     1      38.039  -8.525   3.255  1.00  0.00     0.027 A 
HETATM   32  C   UNL     1      38.298  -9.903   3.075  1.00  0.00     0.036 A 
ENDBRANCH  27  28
ENDBRANCH  24  27
ENDBRANCH  22  23
ENDBRANCH   9  22
BRANCH   1  33
HETATM   33  C   UNL     1      42.671  -9.474   9.738  1.00  0.00     0.036 A 
HETATM   34  C   UNL     1      42.490  -8.091   9.726  1.00  0.00     0.030 A 
HETATM   35  C   UNL     1      42.624  -7.342  10.902  1.00  0.00     0.010 A 
HETATM   36  C   UNL     1      42.917  -7.961  12.123  1.00  0.00    -0.055 A 
HETATM   37  C   UNL     1      43.117  -9.347  12.128  1.00  0.00     0.010 A 
HETATM   38  C   UNL     1      42.998 -10.093  10.950  1.00  0.00     0.030 A 
BRANCH  36  39
HETATM   39  C   UNL     1      43.039  -7.177  13.418  1.00  0.00     0.010 C 
HETATM   40  C   UNL     1      42.435  -7.908  14.622  1.00  0.00     0.015 C 
HETATM   41  C   UNL     1      42.423  -5.786  13.267  1.00  0.00     0.015 C 
ENDBRANCH  36  39
ENDBRANCH   1  33
TORSDOF 7
ENDMDL
MODEL 7
REMARK VINA RESULT:      -8.8      3.593      6.806
REMARK  7 active torsions:
REMARK  status: ('A' for Active; 'I' for Inactive)
REMARK    1  A    between atoms: C_2  and  C_3 
REMARK    2  A    between atoms: C_6  and  N_7 
REMARK       I    between atoms: N_7  and  C_8 
REMARK       I    between atoms: C_8  and  N_9 
REMARK    3  A    between atoms: N_13  and  C_14 
REMARK    4  A    between atoms: N_21  and  C_22 
REMARK    5  A    between atoms: C_22  and  C_23 
REMARK       I    between atoms: C_23  and  N_24 
REMARK    6  A    between atoms: N_24  and  C_25 
REMARK    7  A    between atoms: C_25  and  C_26 
ROOT
HETATM    1  N   UNL     1      41.916 -14.730   4.182  1.00  0.00    -0.309 N 
HETATM    2  C   UNL     1      42.468 -13.477   4.040  1.00  0.00     0.322 C 
HETATM    3  N   UNL     1      41.733 -12.438   4.626  1.00  0.00    -0.334 N 
HETATM    4  C   UNL     1      42.335 -11.108   4.583  1.00  0.00     0.130 C 
HETATM    5  C   UNL     1      41.291 -10.021   4.366  1.00  0.00     0.061 C 
HETATM    6  C   UNL     1      40.073 -10.169   5.295  1.00  0.00     0.118 C 
HETATM    7  N   UNL     1      38.957  -9.256   4.895  1.00  0.00    -0.346 N 
HETATM    8  C   UNL     1      38.905  -8.099   5.783  1.00  0.00     0.254 C 
HETATM    9  N   UNL     1      39.757  -8.439   6.881  1.00  0.00    -0.325 N 
HETATM   10  C   UNL     1      40.487  -9.587   6.662  1.00  0.00     0.250 C 
HETATM   11  O   UNL     1      41.347 -10.027   7.410  1.00  0.00    -0.270 OA
HETATM   12  C   UNL     1      39.586 -11.606   5.525  1.00  0.00     0.061 C 
HETATM   13  C   UNL     1      40.734 -12.599   5.685  1.00  0.00     0.130 C 
HETATM   14  O   UNL     1      43.519 -13.252   3.445  1.00  0.00    -0.247 OA
HETATM   15  H   UNL     1      40.936 -14.764   4.403  1.00  0.00     0.170 HD
ENDROOT
BRANCH   7  16
HETATM   16  C   UNL     1      38.318  -9.210   3.664  1.00  0.00     0.032 A 
HETATM   17  C   UNL     1      38.252 -10.306   2.787  1.00  0.00     0.029 A 
HETATM   18  C   UNL     1      37.628 -10.240   1.532  1.00  0.00     0.002 A 
HETATM   19  C   UNL     1      37.022  -9.065   1.115  1.00  0.00     0.000 A 
HETATM   20  C   UNL     1      37.035  -7.966   1.960  1.00  0.00     0.002 A 
HETATM   21  C   UNL     1      37.665  -8.044   3.211  1.00  0.00     0.029 A 
ENDBRANCH   7  16
BRANCH   9  22
HETATM   22  C   UNL     1      40.170  -7.433   7.846  1.00  0.00     0.230 C 
BRANCH  22  23
HETATM   23  C   UNL     1      39.600  -7.586   9.253  1.00  0.00     0.235 C 
HETATM   24  N   UNL     1      40.190  -8.549  10.033  1.00  0.00    -0.354 N 
HETATM   25  H   UNL     1      40.984  -9.072   9.681  1.00  0.00     0.162 HD
HETATM   26  O   UNL     1      38.765  -6.799   9.697  1.00  0.00    -0.272 OA
BRANCH  24  27
HETATM   27  C   UNL     1      39.896  -8.611  11.446  1.00  0.00     0.187 C 
BRANCH  27  28
HETATM   28  C   UNL     1      41.117  -8.425  12.268  1.00  0.00     0.070 A 
HETATM   29  O   UNL     1      41.083  -8.815  13.578  1.00  0.00    -0.325 OA
HETATM   30  C   UNL     1      42.302  -8.534  14.107  1.00  0.00     0.142 A 
HETATM   31  C   UNL     1      43.123  -7.974  13.158  1.00  0.00     0.027 A 
HETATM   32  C   UNL     1      42.361  -7.904  11.969  1.00  0.00     0.036 A 
ENDBRANCH  27  28
ENDBRANCH  24  27
ENDBRANCH  22  23
ENDBRANCH   9  22
BRANCH   1  33
HETATM   33  C   UNL     1      42.511 -15.975   3.884  1.00  0.00     0.036 A 
HETATM   34  C   UNL     1      43.394 -16.645   4.729  1.00  0.00     0.030 A 
HETATM   35  C   UNL     1      43.907 -17.901   4.379  1.00  0.00     0.010 A 
HETATM   36  C   UNL     1      43.528 -18.527   3.185  1.00  0.00    -0.055 A 
HETATM   37  C   UNL     1      42.656 -17.843   2.330  1.00  0.00     0.010 A 
HETATM   38  C   UNL     1      42.156 -16.581   2.674  1.00  0.00     0.030 A 
BRANCH  36  39
HETATM   39  C   UNL     1      44.045 -19.900   2.793  1.00  0.00     0.010 C 
HETATM   40  C   UNL     1      43.391 -20.448   1.521  1.00  0.00     0.015 C 
HETATM   41  C   UNL     1      43.886 -20.887   3.950  1.00  0.00     0.015 C 
ENDBRANCH  36  39
ENDBRANCH   1  33
TORSDOF 7
ENDMDL
MODEL 8
REMARK VINA RESULT:      -8.5      3.407      9.004
REMARK  7 active torsions:
REMARK  status: ('A' for Active; 'I' for Inactive)
REMARK    1  A    between atoms: C_2  and  C_3 
REMARK    2  A    between atoms: C_6  and  N_7 
REMARK       I    between atoms: N_7  and  C_8 
REMARK       I    between atoms: C_8  and  N_9 
REMARK    3  A    between atoms: N_13  and  C_14 
REMARK    4  A    between atoms: N_21  and  C_22 
REMARK    5  A    between atoms: C_22  and  C_23 
REMARK       I    between atoms: C_23  and  N_24 
REMARK    6  A    between atoms: N_24  and  C_25 
REMARK    7  A    between atoms: C_25  and  C_26 
ROOT
HETATM    1  N   UNL     1      41.865 -11.009   6.679  1.00  0.00    -0.309 N 
HETATM    2  C   UNL     1      42.446 -11.113   5.436  1.00  0.00     0.322 C 
HETATM    3  N   UNL     1      41.898 -12.103   4.609  1.00  0.00    -0.334 N 
HETATM    4  C   UNL     1      42.422 -12.178   3.247  1.00  0.00     0.130 C 
HETATM    5  C   UNL     1      42.526 -13.617   2.760  1.00  0.00     0.061 C 
HETATM    6  C   UNL     1      41.249 -14.432   3.026  1.00  0.00     0.118 C 
HETATM    7  N   UNL     1      41.461 -15.892   2.778  1.00  0.00    -0.346 N 
HETATM    8  C   UNL     1      40.879 -16.279   1.496  1.00  0.00     0.254 C 
HETATM    9  N   UNL     1      40.064 -15.167   1.112  1.00  0.00    -0.325 N 
HETATM   10  C   UNL     1      40.247 -14.061   1.913  1.00  0.00     0.250 C 
HETATM   11  O   UNL     1      39.735 -12.966   1.730  1.00  0.00    -0.270 OA
HETATM   12  C   UNL     1      40.566 -14.172   4.377  1.00  0.00     0.061 C 
HETATM   13  C   UNL     1      40.568 -12.696   4.763  1.00  0.00     0.130 C 
HETATM   14  O   UNL     1      43.379 -10.412   5.052  1.00  0.00    -0.247 OA
HETATM   15  H   UNL     1      41.341 -11.807   6.996  1.00  0.00     0.170 HD
ENDROOT
BRANCH   7  16
HETATM   16  C   UNL     1      42.403 -16.713   3.382  1.00  0.00     0.032 A 
HETATM   17  C   UNL     1      43.238 -17.586   2.665  1.00  0.00     0.029 A 
HETATM   18  C   UNL     1      44.169 -18.432   3.288  1.00  0.00     0.002 A 
HETATM   19  C   UNL     1      44.311 -18.417   4.667  1.00  0.00     0.000 A 
HETATM   20  C   UNL     1      43.530 -17.548   5.413  1.00  0.00     0.002 A 
HETATM   21  C   UNL     1      42.602 -16.710   4.778  1.00  0.00     0.029 A 
ENDBRANCH   7  16
BRANCH   9  22
HETATM   22  C   UNL     1      39.526 -15.065  -0.234  1.00  0.00     0.230 C 
BRANCH  22  23
HETATM   23  C   UNL     1      39.627 -13.690  -0.889  1.00  0.00     0.235 C 
HETATM   24  N   UNL     1      40.892 -13.293  -1.246  1.00  0.00    -0.354 N 
HETATM   25  H   UNL     1      41.678 -13.919  -1.113  1.00  0.00     0.162 HD
HETATM   26  O   UNL     1      38.623 -13.052  -1.202  1.00  0.00    -0.272 OA
BRANCH  24  27
HETATM   27  C   UNL     1      41.072 -12.131  -2.085  1.00  0.00     0.187 C 
BRANCH  27  28
HETATM   28  C   UNL     1      41.213 -10.891  -1.281  1.00  0.00     0.070 A 
HETATM   29  O   UNL     1      41.539 -11.008   0.042  1.00  0.00    -0.325 OA
HETATM   30  C   UNL     1      41.597  -9.750   0.548  1.00  0.00     0.142 A 
HETATM   31  C   UNL     1      41.320  -8.822  -0.428  1.00  0.00     0.027 A 
HETATM   32  C   UNL     1      41.073  -9.557  -1.611  1.00  0.00     0.036 A 
ENDBRANCH  27  28
ENDBRANCH  24  27
ENDBRANCH  22  23
ENDBRANCH   9  22
BRANCH   1  33
HETATM   33  C   UNL     1      42.056  -9.994   7.641  1.00  0.00     0.036 A 
HETATM   34  C   UNL     1      41.112  -9.015   7.948  1.00  0.00     0.030 A 
HETATM   35  C   UNL     1      41.363  -8.068   8.948  1.00  0.00     0.010 A 
HETATM   36  C   UNL     1      42.555  -8.092   9.683  1.00  0.00    -0.055 A 
HETATM   37  C   UNL     1      43.509  -9.064   9.359  1.00  0.00     0.010 A 
HETATM   38  C   UNL     1      43.264 -10.001   8.348  1.00  0.00     0.030 A 
BRANCH  36  39
HETATM   39  C   UNL     1      42.841  -7.095  10.792  1.00  0.00     0.010 C 
HETATM   40  C   UNL     1      41.909  -7.255  11.998  1.00  0.00     0.015 C 
HETATM   41  C   UNL     1      42.791  -5.663  10.258  1.00  0.00     0.015 C 
ENDBRANCH  36  39
ENDBRANCH   1  33
TORSDOF 7
ENDMDL
MODEL 9
REMARK VINA RESULT:      -8.3      5.337      7.953
REMARK  7 active torsions:
REMARK  status: ('A' for Active; 'I' for Inactive)
REMARK    1  A    between atoms: C_2  and  C_3 
REMARK    2  A    between atoms: C_6  and  N_7 
REMARK       I    between atoms: N_7  and  C_8 
REMARK       I    between atoms: C_8  and  N_9 
REMARK    3  A    between atoms: N_13  and  C_14 
REMARK    4  A    between atoms: N_21  and  C_22 
REMARK    5  A    between atoms: C_22  and  C_23 
REMARK       I    between atoms: C_23  and  N_24 
REMARK    6  A    between atoms: N_24  and  C_25 
REMARK    7  A    between atoms: C_25  and  C_26 
ROOT
HETATM    1  N   UNL     1      41.441 -14.875   2.941  1.00  0.00    -0.309 N 
HETATM    2  C   UNL     1      41.893 -13.576   2.906  1.00  0.00     0.322 C 
HETATM    3  N   UNL     1      40.893 -12.607   2.748  1.00  0.00    -0.334 N 
HETATM    4  C   UNL     1      41.322 -11.211   2.806  1.00  0.00     0.130 C 
HETATM    5  C   UNL     1      40.550 -10.342   1.823  1.00  0.00     0.061 C 
HETATM    6  C   UNL     1      39.030 -10.572   1.886  1.00  0.00     0.118 C 
HETATM    7  N   UNL     1      38.320  -9.907   0.750  1.00  0.00    -0.346 N 
HETATM    8  C   UNL     1      37.680  -8.675   1.203  1.00  0.00     0.254 C 
HETATM    9  N   UNL     1      37.728  -8.739   2.632  1.00  0.00    -0.325 N 
HETATM   10  C   UNL     1      38.512  -9.773   3.099  1.00  0.00     0.250 C 
HETATM   11  O   UNL     1      38.781  -9.976   4.274  1.00  0.00    -0.270 OA
HETATM   12  C   UNL     1      38.589 -12.032   2.064  1.00  0.00     0.061 C 
HETATM   13  C   UNL     1      39.472 -12.800   3.044  1.00  0.00     0.130 C 
HETATM   14  O   UNL     1      43.076 -13.256   2.996  1.00  0.00    -0.247 OA
HETATM   15  H   UNL     1      40.527 -15.041   2.558  1.00  0.00     0.170 HD
ENDROOT
BRANCH   7  16
HETATM   16  C   UNL     1      38.540 -10.111  -0.605  1.00  0.00     0.032 A 
HETATM   17  C   UNL     1      38.576 -11.385  -1.197  1.00  0.00     0.029 A 
HETATM   18  C   UNL     1      38.826 -11.582  -2.564  1.00  0.00     0.002 A 
HETATM   19  C   UNL     1      39.032 -10.495  -3.399  1.00  0.00     0.000 A 
HETATM   20  C   UNL     1      38.974  -9.217  -2.865  1.00  0.00     0.002 A 
HETATM   21  C   UNL     1      38.725  -9.034  -1.497  1.00  0.00     0.029 A 
ENDBRANCH   7  16
BRANCH   9  22
HETATM   22  C   UNL     1      37.424  -7.573   3.443  1.00  0.00     0.230 C 
BRANCH  22  23
HETATM   23  C   UNL     1      36.132  -6.839   3.096  1.00  0.00     0.235 C 
HETATM   24  N   UNL     1      34.981  -7.579   3.198  1.00  0.00    -0.354 N 
HETATM   25  H   UNL     1      35.020  -8.535   3.535  1.00  0.00     0.162 HD
HETATM   26  O   UNL     1      36.120  -5.628   2.879  1.00  0.00    -0.272 OA
BRANCH  24  27
HETATM   27  C   UNL     1      33.696  -6.924   3.132  1.00  0.00     0.187 C 
BRANCH  27  28
HETATM   28  C   UNL     1      32.921  -7.107   4.384  1.00  0.00     0.070 A 
HETATM   29  O   UNL     1      33.528  -7.732   5.438  1.00  0.00    -0.325 OA
HETATM   30  C   UNL     1      32.619  -7.784   6.445  1.00  0.00     0.142 A 
HETATM   31  C   UNL     1      31.437  -7.198   6.060  1.00  0.00     0.027 A 
HETATM   32  C   UNL     1      31.630  -6.759   4.730  1.00  0.00     0.036 A 
ENDBRANCH  27  28
ENDBRANCH  24  27
ENDBRANCH  22  23
ENDBRANCH   9  22
BRANCH   1  33
HETATM   33  C   UNL     1      42.169 -16.034   3.286  1.00  0.00     0.036 A 
HETATM   34  C   UNL     1      42.625 -16.321   4.572  1.00  0.00     0.030 A 
HETATM   35  C   UNL     1      43.303 -17.516   4.842  1.00  0.00     0.010 A 
HETATM   36  C   UNL     1      43.519 -18.466   3.835  1.00  0.00    -0.055 A 
HETATM   37  C   UNL     1      43.076 -18.167   2.542  1.00  0.00     0.010 A 
HETATM   38  C   UNL     1      42.412 -16.964   2.270  1.00  0.00     0.030 A 
BRANCH  36  39
HETATM   39  C   UNL     1      44.225 -19.783   4.105  1.00  0.00     0.010 C 
HETATM   40  C   UNL     1      43.865 -20.876   3.094  1.00  0.00     0.015 C 
HETATM   41  C   UNL     1      43.954 -20.258   5.533  1.00  0.00     0.015 C 
ENDBRANCH  36  39
ENDBRANCH   1  33
TORSDOF 7
ENDMDL
MODEL 10
REMARK VINA RESULT:      -8.3      4.286      9.517
REMARK  7 active torsions:
REMARK  status: ('A' for Active; 'I' for Inactive)
REMARK    1  A    between atoms: C_2  and  C_3 
REMARK    2  A    between atoms: C_6  and  N_7 
REMARK       I    between atoms: N_7  and  C_8 
REMARK       I    between atoms: C_8  and  N_9 
REMARK    3  A    between atoms: N_13  and  C_14 
REMARK    4  A    between atoms: N_21  and  C_22 
REMARK    5  A    between atoms: C_22  and  C_23 
REMARK       I    between atoms: C_23  and  N_24 
REMARK    6  A    between atoms: N_24  and  C_25 
REMARK    7  A    between atoms: C_25  and  C_26 
ROOT
HETATM    1  N   UNL     1      39.914 -10.306   7.861  1.00  0.00    -0.309 N 
HETATM    2  C   UNL     1      40.961 -10.246   6.969  1.00  0.00     0.322 C 
HETATM    3  N   UNL     1      40.889 -11.163   5.912  1.00  0.00    -0.334 N 
HETATM    4  C   UNL     1      41.930 -11.063   4.891  1.00  0.00     0.130 C 
HETATM    5  C   UNL     1      42.349 -12.433   4.377  1.00  0.00     0.061 C 
HETATM    6  C   UNL     1      41.152 -13.331   4.019  1.00  0.00     0.118 C 
HETATM    7  N   UNL     1      41.573 -14.743   3.764  1.00  0.00    -0.346 N 
HETATM    8  C   UNL     1      41.605 -15.012   2.329  1.00  0.00     0.254 C 
HETATM    9  N   UNL     1      40.926 -13.903   1.732  1.00  0.00    -0.325 N 
HETATM   10  C   UNL     1      40.667 -12.885   2.625  1.00  0.00     0.250 C 
HETATM   11  O   UNL     1      40.182 -11.801   2.334  1.00  0.00    -0.270 OA
HETATM   12  C   UNL     1      39.956 -13.252   4.978  1.00  0.00     0.061 C 
HETATM   13  C   UNL     1      39.670 -11.828   5.449  1.00  0.00     0.130 C 
HETATM   14  O   UNL     1      41.904  -9.465   7.069  1.00  0.00    -0.247 OA
HETATM   15  H   UNL     1      39.378 -11.156   7.864  1.00  0.00     0.170 HD
ENDROOT
BRANCH   7  16
HETATM   16  C   UNL     1      42.252 -15.581   4.637  1.00  0.00     0.032 A 
HETATM   17  C   UNL     1      43.458 -16.225   4.309  1.00  0.00     0.029 A 
HETATM   18  C   UNL     1      44.122 -17.092   5.189  1.00  0.00     0.002 A 
HETATM   19  C   UNL     1      43.606 -17.333   6.453  1.00  0.00     0.000 A 
HETATM   20  C   UNL     1      42.434 -16.695   6.833  1.00  0.00     0.002 A 
HETATM   21  C   UNL     1      41.779 -15.832   5.942  1.00  0.00     0.029 A 
ENDBRANCH   7  16
BRANCH   9  22
HETATM   22  C   UNL     1      40.981 -13.678   0.298  1.00  0.00     0.230 C 
BRANCH  22  23
HETATM   23  C   UNL     1      39.665 -13.851  -0.455  1.00  0.00     0.235 C 
HETATM   24  N   UNL     1      38.884 -12.727  -0.555  1.00  0.00    -0.354 N 
HETATM   25  H   UNL     1      39.215 -11.843  -0.184  1.00  0.00     0.162 HD
HETATM   26  O   UNL     1      39.398 -14.894  -1.051  1.00  0.00    -0.272 OA
BRANCH  24  27
HETATM   27  C   UNL     1      37.748 -12.716  -1.446  1.00  0.00     0.187 C 
BRANCH  27  28
HETATM   28  C   UNL     1      37.754 -11.524  -2.330  1.00  0.00     0.070 A 
HETATM   29  O   UNL     1      38.935 -11.154  -2.912  1.00  0.00    -0.325 OA
HETATM   30  C   UNL     1      38.680 -10.045  -3.654  1.00  0.00     0.142 A 
HETATM   31  C   UNL     1      37.354  -9.697  -3.563  1.00  0.00     0.027 A 
HETATM   32  C   UNL     1      36.753 -10.652  -2.710  1.00  0.00     0.036 A 
ENDBRANCH  27  28
ENDBRANCH  24  27
ENDBRANCH  22  23
ENDBRANCH   9  22
BRANCH   1  33
HETATM   33  C   UNL     1      39.605  -9.395   8.894  1.00  0.00     0.036 A 
HETATM   34  C   UNL     1      39.796  -9.652  10.251  1.00  0.00     0.030 A 
HETATM   35  C   UNL     1      39.505  -8.675  11.212  1.00  0.00     0.010 A 
HETATM   36  C   UNL     1      39.038  -7.410  10.837  1.00  0.00    -0.055 A 
HETATM   37  C   UNL     1      38.829  -7.162   9.475  1.00  0.00     0.010 A 
HETATM   38  C   UNL     1      39.106  -8.143   8.516  1.00  0.00     0.030 A 
BRANCH  36  39
HETATM   39  C   UNL     1      38.741  -6.323  11.855  1.00  0.00     0.010 C 
HETATM   40  C   UNL     1      39.934  -6.010  12.764  1.00  0.00     0.015 C 
HETATM   41  C   UNL     1      37.509  -6.684  12.686  1.00  0.00     0.015 C 
ENDBRANCH  36  39
ENDBRANCH   1  33
TORSDOF 7
ENDMDL
