MODEL 1
REMARK VINA RESULT:      -9.1      0.000      0.000
REMARK  8 active torsions:
REMARK  status: ('A' for Active; 'I' for Inactive)
REMARK    1  A    between atoms: N_4  and  C_5 
REMARK    2  A    between atoms: C_5  and  C_6 
REMARK    3  A    between atoms: C_8  and  C_9 
REMARK       I    between atoms: C_9  and  N_17 
REMARK    4  A    between atoms: N_17  and  CA_18 
REMARK    5  A    between atoms: CA_18  and  C_19 
REMARK    6  A    between atoms: CA_18  and  CB_21 
REMARK    7  A    between atoms: C_19  and  O_20 
REMARK    8  A    between atoms: CB_21  and  CG_22 
ROOT
HETATM    1  C   UNK A   0      43.625 -12.735   6.289  1.00  0.00     0.252 C 
HETATM    2  O   UNK A   0      43.415 -12.507   5.101  1.00  0.00    -0.268 OA
ATOM      3  N   TRP A   1      43.209 -13.896   6.906  1.00  0.00    -0.350 N 
ATOM      4  H   TRP A   1      43.545 -14.137   7.830  1.00  0.00     0.163 HD
ENDROOT
BRANCH   3   5
ATOM      5  CA  TRP A   1      42.602 -14.990   6.137  1.00  0.00     0.112 C 
BRANCH   5   6
ATOM      6  C   TRP A   1      41.324 -15.456   6.855  1.00  0.00     0.189 C 
BRANCH   6   7
ATOM      7  O   TRP A   1      40.156 -15.110   6.107  1.00  0.00    -0.399 OA
ATOM      8  H   TRP A   1      40.395 -15.196   5.168  1.00  0.00     0.209 HD
ENDBRANCH   6   7
ENDBRANCH   5   6
BRANCH   5   9
ATOM      9  CB  TRP A   1      43.629 -16.125   5.938  1.00  0.00     0.068 C 
BRANCH   9  10
ATOM     10  CG  TRP A   1      43.530 -16.811   4.610  1.00  0.00    -0.028 A 
ATOM     11  CD2 TRP A   1      43.694 -18.214   4.364  1.00  0.00    -0.002 A 
ATOM     12  CE2 TRP A   1      43.505 -18.425   3.000  1.00  0.00     0.042 A 
ATOM     13  CE3 TRP A   1      43.980 -19.324   5.185  1.00  0.00     0.014 A 
ATOM     14  CZ2 TRP A   1      43.592 -19.692   2.410  1.00  0.00     0.030 A 
ATOM     15  NE1 TRP A   1      43.230 -17.202   2.434  1.00  0.00    -0.365 N 
ATOM     16  CH2 TRP A   1      43.879 -20.776   3.244  1.00  0.00     0.002 A 
ATOM     17  CZ3 TRP A   1      44.070 -20.598   4.613  1.00  0.00     0.001 A 
ATOM     18  HE1 TRP A   1      43.038 -17.057   1.453  1.00  0.00     0.165 HD
ATOM     19  CD1 TRP A   1      43.237 -16.223   3.394  1.00  0.00     0.096 A 
ENDBRANCH   9  10
ENDBRANCH   5   9
ENDBRANCH   3   5
BRANCH   1  20
HETATM   20  C   UNK A   0      44.420 -11.773   7.108  1.00  0.00     0.032 A 
HETATM   21  C   UNK A   0      43.972 -11.250   8.333  1.00  0.00     0.026 A 
HETATM   22  C   UNK A   0      44.791 -10.388   9.085  1.00  0.00    -0.037 A 
HETATM   23  C   UNK A   0      46.055 -10.045   8.566  1.00  0.00     0.009 A 
HETATM   24  C   UNK A   0      46.490 -10.536   7.336  1.00  0.00     0.002 A 
HETATM   25  C   UNK A   0      45.676 -11.399   6.611  1.00  0.00     0.017 A 
BRANCH  22  26
HETATM   26  C   UNK A   0      44.446  -9.831  10.450  1.00  0.00     0.189 C 
BRANCH  26  27
HETATM   27  N   UNK A   0      43.114  -9.252  10.612  1.00  0.00    -0.270 N 
HETATM   28  N   UNK A   0      42.158 -10.002  11.203  1.00  0.00    -0.177 NA
HETATM   29  C   UNK A   0      41.026  -9.318  11.010  1.00  0.00     0.053 A 
HETATM   30  C   UNK A   0      39.727  -9.858  11.479  1.00  0.00     0.072 C 
HETATM   31  C   UNK A   0      41.262  -8.111  10.322  1.00  0.00     0.055 A 
HETATM   32  C   UNK A   0      42.616  -8.095  10.056  1.00  0.00     0.029 A 
HETATM   33  C   UNK A   0      43.429  -7.084   9.335  1.00  0.00     0.070 C 
ENDBRANCH  26  27
ENDBRANCH  22  26
ENDBRANCH   1  20
TORSDOF 8
ENDMDL
MODEL 2
REMARK VINA RESULT:      -8.8      1.449      2.255
REMARK  8 active torsions:
REMARK  status: ('A' for Active; 'I' for Inactive)
REMARK    1  A    between atoms: N_4  and  C_5 
REMARK    2  A    between atoms: C_5  and  C_6 
REMARK    3  A    between atoms: C_8  and  C_9 
REMARK       I    between atoms: C_9  and  N_17 
REMARK    4  A    between atoms: N_17  and  CA_18 
REMARK    5  A    between atoms: CA_18  and  C_19 
REMARK    6  A    between atoms: CA_18  and  CB_21 
REMARK    7  A    between atoms: C_19  and  O_20 
REMARK    8  A    between atoms: CB_21  and  CG_22 
ROOT
HETATM    1  C   UNK A   0      43.221 -12.285   6.078  1.00  0.00     0.252 C 
HETATM    2  O   UNK A   0      43.406 -12.383   4.868  1.00  0.00    -0.268 OA
ATOM      3  N   TRP A   1      42.283 -13.040   6.747  1.00  0.00    -0.350 N 
ATOM      4  H   TRP A   1      42.272 -13.070   7.759  1.00  0.00     0.163 HD
ENDROOT
BRANCH   3   5
ATOM      5  CA  TRP A   1      41.537 -14.106   6.064  1.00  0.00     0.112 C 
BRANCH   5   6
ATOM      6  C   TRP A   1      40.073 -13.664   5.897  1.00  0.00     0.189 C 
BRANCH   6   7
ATOM      7  O   TRP A   1      39.727 -12.656   6.850  1.00  0.00    -0.399 OA
ATOM      8  H   TRP A   1      39.612 -13.111   7.703  1.00  0.00     0.209 HD
ENDBRANCH   6   7
ENDBRANCH   5   6
BRANCH   5   9
ATOM      9  CB  TRP A   1      41.680 -15.430   6.847  1.00  0.00     0.068 C 
BRANCH   9  10
ATOM     10  CG  TRP A   1      42.550 -16.446   6.171  1.00  0.00    -0.028 A 
ATOM     11  CD2 TRP A   1      42.517 -16.805   4.785  1.00  0.00    -0.002 A 
ATOM     12  CE2 TRP A   1      43.498 -17.772   4.578  1.00  0.00     0.042 A 
ATOM     13  CE3 TRP A   1      41.740 -16.387   3.684  1.00  0.00     0.014 A 
ATOM     14  CZ2 TRP A   1      43.743 -18.349   3.326  1.00  0.00     0.030 A 
ATOM     15  NE1 TRP A   1      44.113 -17.991   5.789  1.00  0.00    -0.365 N 
ATOM     16  CH2 TRP A   1      42.959 -17.920   2.251  1.00  0.00     0.002 A 
ATOM     17  CZ3 TRP A   1      41.972 -16.952   2.425  1.00  0.00     0.001 A 
ATOM     18  HE1 TRP A   1      44.875 -18.637   5.933  1.00  0.00     0.165 HD
ATOM     19  CD1 TRP A   1      43.555 -17.195   6.755  1.00  0.00     0.096 A 
ENDBRANCH   9  10
ENDBRANCH   5   9
ENDBRANCH   3   5
BRANCH   1  20
HETATM   20  C   UNK A   0      44.077 -11.376   6.896  1.00  0.00     0.032 A 
HETATM   21  C   UNK A   0      43.557 -10.468   7.834  1.00  0.00     0.026 A 
HETATM   22  C   UNK A   0      44.420  -9.674   8.614  1.00  0.00    -0.037 A 
HETATM   23  C   UNK A   0      45.808  -9.797   8.410  1.00  0.00     0.009 A 
HETATM   24  C   UNK A   0      46.326 -10.674   7.458  1.00  0.00     0.002 A 
HETATM   25  C   UNK A   0      45.462 -11.462   6.705  1.00  0.00     0.017 A 
BRANCH  22  26
HETATM   26  C   UNK A   0      43.977  -8.724   9.707  1.00  0.00     0.189 C 
BRANCH  26  27
HETATM   27  N   UNK A   0      42.751  -9.066  10.424  1.00  0.00    -0.270 N 
HETATM   28  N   UNK A   0      41.663  -8.286  10.242  1.00  0.00    -0.177 NA
HETATM   29  C   UNK A   0      40.794  -8.696  11.171  1.00  0.00     0.053 A 
HETATM   30  C   UNK A   0      39.479  -8.029  11.322  1.00  0.00     0.072 C 
HETATM   31  C   UNK A   0      41.314  -9.764  11.929  1.00  0.00     0.055 A 
HETATM   32  C   UNK A   0      42.588  -9.977  11.444  1.00  0.00     0.029 A 
HETATM   33  C   UNK A   0      43.616 -10.957  11.876  1.00  0.00     0.070 C 
ENDBRANCH  26  27
ENDBRANCH  22  26
ENDBRANCH   1  20
TORSDOF 8
ENDMDL
MODEL 3
REMARK VINA RESULT:      -8.7      1.989      2.928
REMARK  8 active torsions:
REMARK  status: ('A' for Active; 'I' for Inactive)
REMARK    1  A    between atoms: N_4  and  C_5 
REMARK    2  A    between atoms: C_5  and  C_6 
REMARK    3  A    between atoms: C_8  and  C_9 
REMARK       I    between atoms: C_9  and  N_17 
REMARK    4  A    between atoms: N_17  and  CA_18 
REMARK    5  A    between atoms: CA_18  and  C_19 
REMARK    6  A    between atoms: CA_18  and  CB_21 
REMARK    7  A    between atoms: C_19  and  O_20 
REMARK    8  A    between atoms: CB_21  and  CG_22 
ROOT
HETATM    1  C   UNK A   0      41.845 -12.781   3.870  1.00  0.00     0.252 C 
HETATM    2  O   UNK A   0      41.907 -12.289   2.747  1.00  0.00    -0.268 OA
ATOM      3  N   TRP A   1      41.633 -14.126   4.079  1.00  0.00    -0.350 N 
ATOM      4  H   TRP A   1      41.762 -14.531   4.998  1.00  0.00     0.163 HD
ENDROOT
BRANCH   3   5
ATOM      5  CA  TRP A   1      41.598 -15.074   2.957  1.00  0.00     0.112 C 
BRANCH   5   6
ATOM      6  C   TRP A   1      40.571 -16.177   3.266  1.00  0.00     0.189 C 
BRANCH   6   7
ATOM      7  O   TRP A   1      40.140 -16.113   4.627  1.00  0.00    -0.399 OA
ATOM      8  H   TRP A   1      40.663 -15.409   5.050  1.00  0.00     0.209 HD
ENDBRANCH   6   7
ENDBRANCH   5   6
BRANCH   5   9
ATOM      9  CB  TRP A   1      43.016 -15.628   2.695  1.00  0.00     0.068 C 
BRANCH   9  10
ATOM     10  CG  TRP A   1      43.424 -16.725   3.632  1.00  0.00    -0.028 A 
ATOM     11  CD2 TRP A   1      43.486 -18.123   3.325  1.00  0.00    -0.002 A 
ATOM     12  CE2 TRP A   1      43.927 -18.784   4.471  1.00  0.00     0.042 A 
ATOM     13  CE3 TRP A   1      43.211 -18.886   2.171  1.00  0.00     0.014 A 
ATOM     14  CZ2 TRP A   1      44.104 -20.172   4.524  1.00  0.00     0.030 A 
ATOM     15  NE1 TRP A   1      44.133 -17.827   5.436  1.00  0.00    -0.365 N 
ATOM     16  CH2 TRP A   1      43.823 -20.906   3.368  1.00  0.00     0.002 A 
ATOM     17  CZ3 TRP A   1      43.384 -20.274   2.207  1.00  0.00     0.001 A 
ATOM     18  HE1 TRP A   1      44.468 -18.021   6.370  1.00  0.00     0.165 HD
ATOM     19  CD1 TRP A   1      43.839 -16.583   4.942  1.00  0.00     0.096 A 
ENDBRANCH   9  10
ENDBRANCH   5   9
ENDBRANCH   3   5
BRANCH   1  20
HETATM   20  C   UNK A   0      42.077 -11.930   5.074  1.00  0.00     0.032 A 
HETATM   21  C   UNK A   0      43.223 -12.035   5.881  1.00  0.00     0.026 A 
HETATM   22  C   UNK A   0      43.410 -11.168   6.974  1.00  0.00    -0.037 A 
HETATM   23  C   UNK A   0      42.411 -10.214   7.248  1.00  0.00     0.009 A 
HETATM   24  C   UNK A   0      41.258 -10.127   6.469  1.00  0.00     0.002 A 
HETATM   25  C   UNK A   0      41.094 -10.982   5.384  1.00  0.00     0.017 A 
BRANCH  22  26
HETATM   26  C   UNK A   0      44.638 -11.137   7.860  1.00  0.00     0.189 C 
BRANCH  26  27
HETATM   27  N   UNK A   0      44.489 -10.521   9.176  1.00  0.00    -0.270 N 
HETATM   28  N   UNK A   0      43.957 -11.261  10.173  1.00  0.00    -0.177 NA
HETATM   29  C   UNK A   0      43.741 -10.389  11.162  1.00  0.00     0.053 A 
HETATM   30  C   UNK A   0      43.105 -10.824  12.428  1.00  0.00     0.072 C 
HETATM   31  C   UNK A   0      44.167  -9.092  10.810  1.00  0.00     0.055 A 
HETATM   32  C   UNK A   0      44.631  -9.193   9.515  1.00  0.00     0.029 A 
HETATM   33  C   UNK A   0      45.178  -8.145   8.619  1.00  0.00     0.070 C 
ENDBRANCH  26  27
ENDBRANCH  22  26
ENDBRANCH   1  20
TORSDOF 8
ENDMDL
MODEL 4
REMARK VINA RESULT:      -8.6      5.863      8.476
REMARK  8 active torsions:
REMARK  status: ('A' for Active; 'I' for Inactive)
REMARK    1  A    between atoms: N_4  and  C_5 
REMARK    2  A    between atoms: C_5  and  C_6 
REMARK    3  A    between atoms: C_8  and  C_9 
REMARK       I    between atoms: C_9  and  N_17 
REMARK    4  A    between atoms: N_17  and  CA_18 
REMARK    5  A    between atoms: CA_18  and  C_19 
REMARK    6  A    between atoms: CA_18  and  CB_21 
REMARK    7  A    between atoms: C_19  and  O_20 
REMARK    8  A    between atoms: CB_21  and  CG_22 
ROOT
HETATM    1  C   UNK A   0      40.233 -14.991   0.888  1.00  0.00     0.252 C 
HETATM    2  O   UNK A   0      39.623 -16.041   1.064  1.00  0.00    -0.268 OA
ATOM      3  N   TRP A   1      41.129 -14.491   1.808  1.00  0.00    -0.350 N 
ATOM      4  H   TRP A   1      41.745 -13.726   1.564  1.00  0.00     0.163 HD
ENDROOT
BRANCH   3   5
ATOM      5  CA  TRP A   1      41.503 -15.262   3.002  1.00  0.00     0.112 C 
BRANCH   5   6
ATOM      6  C   TRP A   1      41.003 -14.519   4.253  1.00  0.00     0.189 C 
BRANCH   6   7
ATOM      7  O   TRP A   1      40.173 -15.361   5.056  1.00  0.00    -0.399 OA
ATOM      8  H   TRP A   1      39.697 -15.947   4.441  1.00  0.00     0.209 HD
ENDBRANCH   6   7
ENDBRANCH   5   6
BRANCH   5   9
ATOM      9  CB  TRP A   1      43.028 -15.503   3.014  1.00  0.00     0.068 C 
BRANCH   9  10
ATOM     10  CG  TRP A   1      43.454 -16.668   3.856  1.00  0.00    -0.028 A 
ATOM     11  CD2 TRP A   1      43.498 -18.040   3.445  1.00  0.00    -0.002 A 
ATOM     12  CE2 TRP A   1      43.966 -18.786   4.526  1.00  0.00     0.042 A 
ATOM     13  CE3 TRP A   1      43.188 -18.714   2.246  1.00  0.00     0.014 A 
ATOM     14  CZ2 TRP A   1      44.135 -20.174   4.472  1.00  0.00     0.030 A 
ATOM     15  NE1 TRP A   1      44.204 -17.904   5.554  1.00  0.00    -0.365 N 
ATOM     16  CH2 TRP A   1      43.818 -20.819   3.274  1.00  0.00     0.002 A 
ATOM     17  CZ3 TRP A   1      43.352 -20.102   2.174  1.00  0.00     0.001 A 
ATOM     18  HE1 TRP A   1      44.562 -18.168   6.461  1.00  0.00     0.165 HD
ATOM     19  CD1 TRP A   1      43.905 -16.625   5.161  1.00  0.00     0.096 A 
ENDBRANCH   9  10
ENDBRANCH   5   9
ENDBRANCH   3   5
BRANCH   1  20
HETATM   20  C   UNK A   0      40.078 -14.240  -0.392  1.00  0.00     0.032 A 
HETATM   21  C   UNK A   0      40.649 -12.975  -0.617  1.00  0.00     0.026 A 
HETATM   22  C   UNK A   0      40.510 -12.340  -1.865  1.00  0.00    -0.037 A 
HETATM   23  C   UNK A   0      39.767 -12.992  -2.868  1.00  0.00     0.009 A 
HETATM   24  C   UNK A   0      39.173 -14.231  -2.639  1.00  0.00     0.002 A 
HETATM   25  C   UNK A   0      39.330 -14.854  -1.405  1.00  0.00     0.017 A 
BRANCH  22  26
HETATM   26  C   UNK A   0      41.148 -11.019  -2.244  1.00  0.00     0.189 C 
BRANCH  26  27
HETATM   27  N   UNK A   0      40.605  -9.817  -1.616  1.00  0.00    -0.270 N 
HETATM   28  N   UNK A   0      39.272  -9.754  -1.402  1.00  0.00    -0.177 NA
HETATM   29  C   UNK A   0      39.050  -8.487  -1.037  1.00  0.00     0.053 A 
HETATM   30  C   UNK A   0      37.673  -8.010  -0.765  1.00  0.00     0.072 C 
HETATM   31  C   UNK A   0      40.247  -7.746  -0.985  1.00  0.00     0.055 A 
HETATM   32  C   UNK A   0      41.241  -8.619  -1.381  1.00  0.00     0.029 A 
HETATM   33  C   UNK A   0      42.697  -8.387  -1.541  1.00  0.00     0.070 C 
ENDBRANCH  26  27
ENDBRANCH  22  26
ENDBRANCH   1  20
TORSDOF 8
ENDMDL
MODEL 5
REMARK VINA RESULT:      -8.5      4.398      7.010
REMARK  8 active torsions:
REMARK  status: ('A' for Active; 'I' for Inactive)
REMARK    1  A    between atoms: N_4  and  C_5 
REMARK    2  A    between atoms: C_5  and  C_6 
REMARK    3  A    between atoms: C_8  and  C_9 
REMARK       I    between atoms: C_9  and  N_17 
REMARK    4  A    between atoms: N_17  and  CA_18 
REMARK    5  A    between atoms: CA_18  and  C_19 
REMARK    6  A    between atoms: CA_18  and  CB_21 
REMARK    7  A    between atoms: C_19  and  O_20 
REMARK    8  A    between atoms: CB_21  and  CG_22 
ROOT
HETATM    1  C   UNK A   0      40.772 -14.690   5.099  1.00  0.00     0.252 C 
HETATM    2  O   UNK A   0      40.313 -15.749   4.681  1.00  0.00    -0.268 OA
ATOM      3  N   TRP A   1      41.845 -14.637   5.963  1.00  0.00    -0.350 N 
ATOM      4  H   TRP A   1      42.311 -13.758   6.151  1.00  0.00     0.163 HD
ENDROOT
BRANCH   3   5
ATOM      5  CA  TRP A   1      42.586 -15.851   6.330  1.00  0.00     0.112 C 
BRANCH   5   6
ATOM      6  C   TRP A   1      42.910 -15.803   7.833  1.00  0.00     0.189 C 
BRANCH   6   7
ATOM      7  O   TRP A   1      43.744 -16.899   8.216  1.00  0.00    -0.399 OA
ATOM      8  H   TRP A   1      44.264 -16.596   8.981  1.00  0.00     0.209 HD
ENDBRANCH   6   7
ENDBRANCH   5   6
BRANCH   5   9
ATOM      9  CB  TRP A   1      43.846 -15.982   5.447  1.00  0.00     0.068 C 
BRANCH   9  10
ATOM     10  CG  TRP A   1      43.641 -16.803   4.210  1.00  0.00    -0.028 A 
ATOM     11  CD2 TRP A   1      43.759 -18.228   4.107  1.00  0.00    -0.002 A 
ATOM     12  CE2 TRP A   1      43.471 -18.578   2.789  1.00  0.00     0.042 A 
ATOM     13  CE3 TRP A   1      44.080 -19.252   5.022  1.00  0.00     0.014 A 
ATOM     14  CZ2 TRP A   1      43.491 -19.902   2.335  1.00  0.00     0.030 A 
ATOM     15  NE1 TRP A   1      43.181 -17.415   2.115  1.00  0.00    -0.365 N 
ATOM     16  CH2 TRP A   1      43.815 -20.899   3.260  1.00  0.00     0.002 A 
ATOM     17  CZ3 TRP A   1      44.105 -20.581   4.585  1.00  0.00     0.001 A 
ATOM     18  HE1 TRP A   1      42.922 -17.370   1.140  1.00  0.00     0.165 HD
ATOM     19  CD1 TRP A   1      43.275 -16.340   2.960  1.00  0.00     0.096 A 
ENDBRANCH   9  10
ENDBRANCH   5   9
ENDBRANCH   3   5
BRANCH   1  20
HETATM   20  C   UNK A   0      40.217 -13.391   4.618  1.00  0.00     0.032 A 
HETATM   21  C   UNK A   0      39.729 -13.199   3.313  1.00  0.00     0.026 A 
HETATM   22  C   UNK A   0      39.169 -11.965   2.934  1.00  0.00    -0.037 A 
HETATM   23  C   UNK A   0      39.133 -10.927   3.885  1.00  0.00     0.009 A 
HETATM   24  C   UNK A   0      39.644 -11.104   5.170  1.00  0.00     0.002 A 
HETATM   25  C   UNK A   0      40.182 -12.333   5.535  1.00  0.00     0.017 A 
BRANCH  22  26
HETATM   26  C   UNK A   0      38.543 -11.672   1.586  1.00  0.00     0.189 C 
BRANCH  26  27
HETATM   27  N   UNK A   0      39.379 -11.885   0.407  1.00  0.00    -0.270 N 
HETATM   28  N   UNK A   0      39.039 -12.873  -0.448  1.00  0.00    -0.177 NA
HETATM   29  C   UNK A   0      40.081 -12.974  -1.279  1.00  0.00     0.053 A 
HETATM   30  C   UNK A   0      40.103 -14.005  -2.343  1.00  0.00     0.072 C 
HETATM   31  C   UNK A   0      41.078 -12.024  -0.975  1.00  0.00     0.055 A 
HETATM   32  C   UNK A   0      40.614 -11.341   0.131  1.00  0.00     0.029 A 
HETATM   33  C   UNK A   0      41.251 -10.248   0.906  1.00  0.00     0.070 C 
ENDBRANCH  26  27
ENDBRANCH  22  26
ENDBRANCH   1  20
TORSDOF 8
ENDMDL
MODEL 6
REMARK VINA RESULT:      -8.5      5.813      8.539
REMARK  8 active torsions:
REMARK  status: ('A' for Active; 'I' for Inactive)
REMARK    1  A    between atoms: N_4  and  C_5 
REMARK    2  A    between atoms: C_5  and  C_6 
REMARK    3  A    between atoms: C_8  and  C_9 
REMARK       I    between atoms: C_9  and  N_17 
REMARK    4  A    between atoms: N_17  and  CA_18 
REMARK    5  A    between atoms: CA_18  and  C_19 
REMARK    6  A    between atoms: CA_18  and  CB_21 
REMARK    7  A    between atoms: C_19  and  O_20 
REMARK    8  A    between atoms: CB_21  and  CG_22 
ROOT
HETATM    1  C   UNK A   0      40.054 -14.573   2.219  1.00  0.00     0.252 C 
HETATM    2  O   UNK A   0      39.792 -15.763   2.372  1.00  0.00    -0.268 OA
ATOM      3  N   TRP A   1      40.623 -13.806   3.212  1.00  0.00    -0.350 N 
ATOM      4  H   TRP A   1      40.988 -12.884   3.006  1.00  0.00     0.163 HD
ENDROOT
BRANCH   3   5
ATOM      5  CA  TRP A   1      41.069 -14.407   4.476  1.00  0.00     0.112 C 
BRANCH   5   6
ATOM      6  C   TRP A   1      40.419 -13.651   5.647  1.00  0.00     0.189 C 
BRANCH   6   7
ATOM      7  O   TRP A   1      39.588 -14.517   6.422  1.00  0.00    -0.399 OA
ATOM      8  H   TRP A   1      38.701 -14.115   6.430  1.00  0.00     0.209 HD
ENDBRANCH   6   7
ENDBRANCH   5   6
BRANCH   5   9
ATOM      9  CB  TRP A   1      42.612 -14.405   4.541  1.00  0.00     0.068 C 
BRANCH   9  10
ATOM     10  CG  TRP A   1      43.208 -15.725   4.927  1.00  0.00    -0.028 A 
ATOM     11  CD2 TRP A   1      43.310 -16.886   4.094  1.00  0.00    -0.002 A 
ATOM     12  CE2 TRP A   1      43.941 -17.882   4.838  1.00  0.00     0.042 A 
ATOM     13  CE3 TRP A   1      42.927 -17.177   2.768  1.00  0.00     0.014 A 
ATOM     14  CZ2 TRP A   1      44.205 -19.158   4.326  1.00  0.00     0.030 A 
ATOM     15  NE1 TRP A   1      44.220 -17.348   6.074  1.00  0.00    -0.365 N 
ATOM     16  CH2 TRP A   1      43.814 -19.422   3.011  1.00  0.00     0.002 A 
ATOM     17  CZ3 TRP A   1      43.184 -18.448   2.240  1.00  0.00     0.001 A 
ATOM     18  HE1 TRP A   1      44.689 -17.846   6.818  1.00  0.00     0.165 HD
ATOM     19  CD1 TRP A   1      43.788 -16.049   6.139  1.00  0.00     0.096 A 
ENDBRANCH   9  10
ENDBRANCH   5   9
ENDBRANCH   3   5
BRANCH   1  20
HETATM   20  C   UNK A   0      39.828 -13.920   0.896  1.00  0.00     0.032 A 
HETATM   21  C   UNK A   0      39.558 -12.549   0.750  1.00  0.00     0.026 A 
HETATM   22  C   UNK A   0      39.407 -11.982  -0.529  1.00  0.00    -0.037 A 
HETATM   23  C   UNK A   0      39.508 -12.827  -1.651  1.00  0.00     0.009 A 
HETATM   24  C   UNK A   0      39.745 -14.193  -1.509  1.00  0.00     0.002 A 
HETATM   25  C   UNK A   0      39.906 -14.737  -0.240  1.00  0.00     0.017 A 
BRANCH  22  26
HETATM   26  C   UNK A   0      39.194 -10.508  -0.808  1.00  0.00     0.189 C 
BRANCH  26  27
HETATM   27  N   UNK A   0      40.206  -9.836  -1.619  1.00  0.00    -0.270 N 
HETATM   28  N   UNK A   0      41.326  -9.392  -1.007  1.00  0.00    -0.177 NA
HETATM   29  C   UNK A   0      41.940  -8.643  -1.928  1.00  0.00     0.053 A 
HETATM   30  C   UNK A   0      43.199  -7.930  -1.606  1.00  0.00     0.072 C 
HETATM   31  C   UNK A   0      41.228  -8.634  -3.145  1.00  0.00     0.055 A 
HETATM   32  C   UNK A   0      40.100  -9.396  -2.919  1.00  0.00     0.029 A 
HETATM   33  C   UNK A   0      38.974  -9.716  -3.832  1.00  0.00     0.070 C 
ENDBRANCH  26  27
ENDBRANCH  22  26
ENDBRANCH   1  20
TORSDOF 8
ENDMDL
MODEL 7
REMARK VINA RESULT:      -8.5      2.500      4.282
REMARK  8 active torsions:
REMARK  status: ('A' for Active; 'I' for Inactive)
REMARK    1  A    between atoms: N_4  and  C_5 
REMARK    2  A    between atoms: C_5  and  C_6 
REMARK    3  A    between atoms: C_8  and  C_9 
REMARK       I    between atoms: C_9  and  N_17 
REMARK    4  A    between atoms: N_17  and  CA_18 
REMARK    5  A    between atoms: CA_18  and  C_19 
REMARK    6  A    between atoms: CA_18  and  CB_21 
REMARK    7  A    between atoms: C_19  and  O_20 
REMARK    8  A    between atoms: CB_21  and  CG_22 
ROOT
HETATM    1  C   UNK A   0      42.653 -13.488   2.673  1.00  0.00     0.252 C 
HETATM    2  O   UNK A   0      43.687 -13.896   2.152  1.00  0.00    -0.268 OA
ATOM      3  N   TRP A   1      41.406 -13.935   2.294  1.00  0.00    -0.350 N 
ATOM      4  H   TRP A   1      40.589 -13.719   2.852  1.00  0.00     0.163 HD
ENDROOT
BRANCH   3   5
ATOM      5  CA  TRP A   1      41.252 -15.029   1.325  1.00  0.00     0.112 C 
BRANCH   5   6
ATOM      6  C   TRP A   1      40.209 -14.620   0.271  1.00  0.00     0.189 C 
BRANCH   6   7
ATOM      7  O   TRP A   1      40.834 -14.027  -0.870  1.00  0.00    -0.399 OA
ATOM      8  H   TRP A   1      41.767 -13.884  -0.630  1.00  0.00     0.209 HD
ENDBRANCH   6   7
ENDBRANCH   5   6
BRANCH   5   9
ATOM      9  CB  TRP A   1      40.882 -16.334   2.063  1.00  0.00     0.068 C 
BRANCH   9  10
ATOM     10  CG  TRP A   1      41.962 -16.851   2.965  1.00  0.00    -0.028 A 
ATOM     11  CD2 TRP A   1      42.050 -16.656   4.382  1.00  0.00    -0.002 A 
ATOM     12  CE2 TRP A   1      43.195 -17.316   4.825  1.00  0.00     0.042 A 
ATOM     13  CE3 TRP A   1      41.253 -15.980   5.328  1.00  0.00     0.014 A 
ATOM     14  CZ2 TRP A   1      43.589 -17.331   6.168  1.00  0.00     0.030 A 
ATOM     15  NE1 TRP A   1      43.779 -17.897   3.724  1.00  0.00    -0.365 N 
ATOM     16  CH2 TRP A   1      42.783 -16.653   7.087  1.00  0.00     0.002 A 
ATOM     17  CZ3 TRP A   1      41.631 -15.986   6.676  1.00  0.00     0.001 A 
ATOM     18  HE1 TRP A   1      44.623 -18.452   3.752  1.00  0.00     0.165 HD
ATOM     19  CD1 TRP A   1      43.044 -17.629   2.599  1.00  0.00     0.096 A 
ENDBRANCH   9  10
ENDBRANCH   5   9
ENDBRANCH   3   5
BRANCH   1  20
HETATM   20  C   UNK A   0      42.717 -12.527   3.814  1.00  0.00     0.032 A 
HETATM   21  C   UNK A   0      43.196 -12.877   5.089  1.00  0.00     0.026 A 
HETATM   22  C   UNK A   0      43.281 -11.912   6.109  1.00  0.00    -0.037 A 
HETATM   23  C   UNK A   0      42.853 -10.600   5.826  1.00  0.00     0.009 A 
HETATM   24  C   UNK A   0      42.349 -10.257   4.573  1.00  0.00     0.002 A 
HETATM   25  C   UNK A   0      42.283 -11.218   3.570  1.00  0.00     0.017 A 
BRANCH  22  26
HETATM   26  C   UNK A   0      43.853 -12.155   7.490  1.00  0.00     0.189 C 
BRANCH  26  27
HETATM   27  N   UNK A   0      44.348 -10.987   8.217  1.00  0.00    -0.270 N 
HETATM   28  N   UNK A   0      43.497 -10.341   9.043  1.00  0.00    -0.177 NA
HETATM   29  C   UNK A   0      44.141  -9.219   9.380  1.00  0.00     0.053 A 
HETATM   30  C   UNK A   0      43.495  -8.207  10.249  1.00  0.00     0.072 C 
HETATM   31  C   UNK A   0      45.422  -9.163   8.793  1.00  0.00     0.055 A 
HETATM   32  C   UNK A   0      45.530 -10.307   8.029  1.00  0.00     0.029 A 
HETATM   33  C   UNK A   0      46.647 -10.771   7.169  1.00  0.00     0.070 C 
ENDBRANCH  26  27
ENDBRANCH  22  26
ENDBRANCH   1  20
TORSDOF 8
ENDMDL
MODEL 8
REMARK VINA RESULT:      -8.4      6.598     10.647
REMARK  8 active torsions:
REMARK  status: ('A' for Active; 'I' for Inactive)
REMARK    1  A    between atoms: N_4  and  C_5 
REMARK    2  A    between atoms: C_5  and  C_6 
REMARK    3  A    between atoms: C_8  and  C_9 
REMARK       I    between atoms: C_9  and  N_17 
REMARK    4  A    between atoms: N_17  and  CA_18 
REMARK    5  A    between atoms: CA_18  and  C_19 
REMARK    6  A    between atoms: CA_18  and  CB_21 
REMARK    7  A    between atoms: C_19  and  O_20 
REMARK    8  A    between atoms: CB_21  and  CG_22 
ROOT
HETATM    1  C   UNK A   0      40.607 -13.628  -0.044  1.00  0.00     0.252 C 
HETATM    2  O   UNK A   0      39.698 -14.366  -0.413  1.00  0.00    -0.268 OA
ATOM      3  N   TRP A   1      41.011 -12.530  -0.772  1.00  0.00    -0.350 N 
ATOM      4  H   TRP A   1      41.635 -11.843  -0.366  1.00  0.00     0.163 HD
ENDROOT
BRANCH   3   5
ATOM      5  CA  TRP A   1      40.283 -12.104  -1.975  1.00  0.00     0.112 C 
BRANCH   5   6
ATOM      6  C   TRP A   1      41.213 -12.233  -3.194  1.00  0.00     0.189 C 
BRANCH   6   7
ATOM      7  O   TRP A   1      41.541 -13.601  -3.450  1.00  0.00    -0.399 OA
ATOM      8  H   TRP A   1      40.917 -13.911  -4.130  1.00  0.00     0.209 HD
ENDBRANCH   6   7
ENDBRANCH   5   6
BRANCH   5   9
ATOM      9  CB  TRP A   1      39.741 -10.672  -1.780  1.00  0.00     0.068 C 
BRANCH   9  10
ATOM     10  CG  TRP A   1      40.791  -9.668  -1.410  1.00  0.00    -0.028 A 
ATOM     11  CD2 TRP A   1      41.453  -8.764  -2.303  1.00  0.00    -0.002 A 
ATOM     12  CE2 TRP A   1      42.339  -8.000  -1.545  1.00  0.00     0.042 A 
ATOM     13  CE3 TRP A   1      41.373  -8.524  -3.690  1.00  0.00     0.014 A 
ATOM     14  CZ2 TRP A   1      43.154  -7.008  -2.103  1.00  0.00     0.030 A 
ATOM     15  NE1 TRP A   1      42.217  -8.415  -0.239  1.00  0.00    -0.365 N 
ATOM     16  CH2 TRP A   1      43.058  -6.790  -3.480  1.00  0.00     0.002 A 
ATOM     17  CZ3 TRP A   1      42.181  -7.535  -4.265  1.00  0.00     0.001 A 
ATOM     18  HE1 TRP A   1      42.735  -8.023   0.535  1.00  0.00     0.165 HD
ATOM     19  CD1 TRP A   1      41.285  -9.415  -0.144  1.00  0.00     0.096 A 
ENDBRANCH   9  10
ENDBRANCH   5   9
ENDBRANCH   3   5
BRANCH   1  20
HETATM   20  C   UNK A   0      41.271 -13.858   1.272  1.00  0.00     0.032 A 
HETATM   21  C   UNK A   0      41.144 -15.054   2.000  1.00  0.00     0.026 A 
HETATM   22  C   UNK A   0      41.838 -15.231   3.211  1.00  0.00    -0.037 A 
HETATM   23  C   UNK A   0      42.638 -14.173   3.684  1.00  0.00     0.009 A 
HETATM   24  C   UNK A   0      42.742 -12.973   2.981  1.00  0.00     0.002 A 
HETATM   25  C   UNK A   0      42.062 -12.818   1.778  1.00  0.00     0.017 A 
BRANCH  22  26
HETATM   26  C   UNK A   0      41.840 -16.502   4.035  1.00  0.00     0.189 C 
BRANCH  26  27
HETATM   27  N   UNK A   0      42.891 -17.475   3.748  1.00  0.00    -0.270 N 
HETATM   28  N   UNK A   0      42.713 -18.322   2.710  1.00  0.00    -0.177 NA
HETATM   29  C   UNK A   0      43.700 -19.215   2.830  1.00  0.00     0.053 A 
HETATM   30  C   UNK A   0      43.807 -20.355   1.889  1.00  0.00     0.072 C 
HETATM   31  C   UNK A   0      44.533 -18.920   3.929  1.00  0.00     0.055 A 
HETATM   32  C   UNK A   0      43.983 -17.801   4.521  1.00  0.00     0.029 A 
HETATM   33  C   UNK A   0      44.418 -17.057   5.729  1.00  0.00     0.070 C 
ENDBRANCH  26  27
ENDBRANCH  22  26
ENDBRANCH   1  20
TORSDOF 8
ENDMDL
MODEL 9
REMARK VINA RESULT:      -8.3      1.425      2.063
REMARK  8 active torsions:
REMARK  status: ('A' for Active; 'I' for Inactive)
REMARK    1  A    between atoms: N_4  and  C_5 
REMARK    2  A    between atoms: C_5  and  C_6 
REMARK    3  A    between atoms: C_8  and  C_9 
REMARK       I    between atoms: C_9  and  N_17 
REMARK    4  A    between atoms: N_17  and  CA_18 
REMARK    5  A    between atoms: CA_18  and  C_19 
REMARK    6  A    between atoms: CA_18  and  CB_21 
REMARK    7  A    between atoms: C_19  and  O_20 
REMARK    8  A    between atoms: CB_21  and  CG_22 
ROOT
HETATM    1  C   UNK A   0      43.203 -12.303   6.107  1.00  0.00     0.252 C 
HETATM    2  O   UNK A   0      42.413 -11.907   5.254  1.00  0.00    -0.268 OA
ATOM      3  N   TRP A   1      43.375 -13.639   6.394  1.00  0.00    -0.350 N 
ATOM      4  H   TRP A   1      44.150 -13.947   6.969  1.00  0.00     0.163 HD
ENDROOT
BRANCH   3   5
ATOM      5  CA  TRP A   1      42.712 -14.680   5.598  1.00  0.00     0.112 C 
BRANCH   5   6
ATOM      6  C   TRP A   1      41.307 -14.931   6.173  1.00  0.00     0.189 C 
BRANCH   6   7
ATOM      7  O   TRP A   1      40.298 -14.372   5.330  1.00  0.00    -0.399 OA
ATOM      8  H   TRP A   1      40.738 -13.699   4.781  1.00  0.00     0.209 HD
ENDBRANCH   6   7
ENDBRANCH   5   6
BRANCH   5   9
ATOM      9  CB  TRP A   1      43.586 -15.953   5.567  1.00  0.00     0.068 C 
BRANCH   9  10
ATOM     10  CG  TRP A   1      43.458 -16.750   4.304  1.00  0.00    -0.028 A 
ATOM     11  CD2 TRP A   1      43.650 -18.164   4.170  1.00  0.00    -0.002 A 
ATOM     12  CE2 TRP A   1      43.418 -18.493   2.835  1.00  0.00     0.042 A 
ATOM     13  CE3 TRP A   1      43.995 -19.195   5.068  1.00  0.00     0.014 A 
ATOM     14  CZ2 TRP A   1      43.518 -19.802   2.349  1.00  0.00     0.030 A 
ATOM     15  NE1 TRP A   1      43.091 -17.328   2.182  1.00  0.00    -0.365 N 
ATOM     16  CH2 TRP A   1      43.863 -20.806   3.259  1.00  0.00     0.002 A 
ATOM     17  CZ3 TRP A   1      44.098 -20.510   4.599  1.00  0.00     0.001 A 
ATOM     18  HE1 TRP A   1      42.859 -17.270   1.200  1.00  0.00     0.165 HD
ATOM     19  CD1 TRP A   1      43.106 -16.273   3.056  1.00  0.00     0.096 A 
ENDBRANCH   9  10
ENDBRANCH   5   9
ENDBRANCH   3   5
BRANCH   1  20
HETATM   20  C   UNK A   0      44.077 -11.330   6.826  1.00  0.00     0.032 A 
HETATM   21  C   UNK A   0      43.575 -10.295   7.634  1.00  0.00     0.026 A 
HETATM   22  C   UNK A   0      44.451  -9.442   8.330  1.00  0.00    -0.037 A 
HETATM   23  C   UNK A   0      45.837  -9.637   8.175  1.00  0.00     0.009 A 
HETATM   24  C   UNK A   0      46.339 -10.642   7.350  1.00  0.00     0.002 A 
HETATM   25  C   UNK A   0      45.461 -11.487   6.679  1.00  0.00     0.017 A 
BRANCH  22  26
HETATM   26  C   UNK A   0      44.024  -8.349   9.288  1.00  0.00     0.189 C 
BRANCH  26  27
HETATM   27  N   UNK A   0      42.889  -7.522   8.884  1.00  0.00    -0.270 N 
HETATM   28  N   UNK A   0      42.912  -6.958   7.657  1.00  0.00    -0.177 NA
HETATM   29  C   UNK A   0      41.884  -6.104   7.659  1.00  0.00     0.053 A 
HETATM   30  C   UNK A   0      41.612  -5.244   6.483  1.00  0.00     0.072 C 
HETATM   31  C   UNK A   0      41.180  -6.145   8.880  1.00  0.00     0.055 A 
HETATM   32  C   UNK A   0      41.857  -7.055   9.667  1.00  0.00     0.029 A 
HETATM   33  C   UNK A   0      41.588  -7.487  11.061  1.00  0.00     0.070 C 
ENDBRANCH  26  27
ENDBRANCH  22  26
ENDBRANCH   1  20
TORSDOF 8
ENDMDL
MODEL 10
REMARK VINA RESULT:      -8.3      1.976      3.036
REMARK  8 active torsions:
REMARK  status: ('A' for Active; 'I' for Inactive)
REMARK    1  A    between atoms: N_4  and  C_5 
REMARK    2  A    between atoms: C_5  and  C_6 
REMARK    3  A    between atoms: C_8  and  C_9 
REMARK       I    between atoms: C_9  and  N_17 
REMARK    4  A    between atoms: N_17  and  CA_18 
REMARK    5  A    between atoms: CA_18  and  C_19 
REMARK    6  A    between atoms: CA_18  and  CB_21 
REMARK    7  A    between atoms: C_19  and  O_20 
REMARK    8  A    between atoms: CB_21  and  CG_22 
ROOT
HETATM    1  C   UNK A   0      44.674 -11.174   6.737  1.00  0.00     0.252 C 
HETATM    2  O   UNK A   0      45.794 -11.408   6.293  1.00  0.00    -0.268 OA
ATOM      3  N   TRP A   1      43.523 -11.559   6.085  1.00  0.00    -0.350 N 
ATOM      4  H   TRP A   1      42.626 -11.513   6.553  1.00  0.00     0.163 HD
ENDROOT
BRANCH   3   5
ATOM      5  CA  TRP A   1      43.575 -12.393   4.877  1.00  0.00     0.112 C 
BRANCH   5   6
ATOM      6  C   TRP A   1      43.350 -11.500   3.644  1.00  0.00     0.189 C 
BRANCH   6   7
ATOM      7  O   TRP A   1      42.602 -12.189   2.639  1.00  0.00    -0.399 OA
ATOM      8  H   TRP A   1      42.855 -13.127   2.701  1.00  0.00     0.209 HD
ENDBRANCH   6   7
ENDBRANCH   5   6
BRANCH   5   9
ATOM      9  CB  TRP A   1      42.547 -13.539   4.986  1.00  0.00     0.068 C 
BRANCH   9  10
ATOM     10  CG  TRP A   1      43.160 -14.889   5.211  1.00  0.00    -0.028 A 
ATOM     11  CD2 TRP A   1      43.251 -15.951   4.253  1.00  0.00    -0.002 A 
ATOM     12  CE2 TRP A   1      43.905 -17.016   4.870  1.00  0.00     0.042 A 
ATOM     13  CE3 TRP A   1      42.838 -16.097   2.913  1.00  0.00     0.014 A 
ATOM     14  CZ2 TRP A   1      44.165 -18.226   4.215  1.00  0.00     0.030 A 
ATOM     15  NE1 TRP A   1      44.209 -16.619   6.151  1.00  0.00    -0.365 N 
ATOM     16  CH2 TRP A   1      43.745 -18.348   2.888  1.00  0.00     0.002 A 
ATOM     17  CZ3 TRP A   1      43.092 -17.300   2.243  1.00  0.00     0.001 A 
ATOM     18  HE1 TRP A   1      44.698 -17.190   6.824  1.00  0.00     0.165 HD
ATOM     19  CD1 TRP A   1      43.770 -15.338   6.367  1.00  0.00     0.096 A 
ENDBRANCH   9  10
ENDBRANCH   5   9
ENDBRANCH   3   5
BRANCH   1  20
HETATM   20  C   UNK A   0      44.518 -10.514   8.067  1.00  0.00     0.032 A 
HETATM   21  C   UNK A   0      43.292 -10.015   8.540  1.00  0.00     0.026 A 
HETATM   22  C   UNK A   0      43.198  -9.449   9.825  1.00  0.00    -0.037 A 
HETATM   23  C   UNK A   0      44.366  -9.376  10.609  1.00  0.00     0.009 A 
HETATM   24  C   UNK A   0      45.590  -9.841  10.132  1.00  0.00     0.002 A 
HETATM   25  C   UNK A   0      45.665 -10.410   8.865  1.00  0.00     0.017 A 
BRANCH  22  26
HETATM   26  C   UNK A   0      41.918  -8.956  10.467  1.00  0.00     0.189 C 
BRANCH  26  27
HETATM   27  N   UNK A   0      42.048  -8.228  11.727  1.00  0.00    -0.270 N 
HETATM   28  N   UNK A   0      41.832  -8.900  12.879  1.00  0.00    -0.177 NA
HETATM   29  C   UNK A   0      41.799  -7.952  13.821  1.00  0.00     0.053 A 
HETATM   30  C   UNK A   0      41.524  -8.300  15.235  1.00  0.00     0.072 C 
HETATM   31  C   UNK A   0      42.027  -6.672  13.275  1.00  0.00     0.055 A 
HETATM   32  C   UNK A   0      42.168  -6.869  11.916  1.00  0.00     0.029 A 
HETATM   33  C   UNK A   0      42.400  -5.880  10.834  1.00  0.00     0.070 C 
ENDBRANCH  26  27
ENDBRANCH  22  26
ENDBRANCH   1  20
TORSDOF 8
ENDMDL
