MODEL 1
REMARK VINA RESULT:      -8.3      0.000      0.000
REMARK  9 active torsions:
REMARK  status: ('A' for Active; 'I' for Inactive)
REMARK    1  A    between atoms: C_6  and  C_7 
REMARK    2  A    between atoms: C_7  and  C_8 
REMARK       I    between atoms: C_8  and  N_9 
REMARK    3  A    between atoms: N_9  and  C_10 
REMARK    4  A    between atoms: C_10  and  C_11 
REMARK    5  A    between atoms: C_11  and  N_12 
REMARK    6  A    between atoms: C_19  and  C_20 
REMARK    7  A    between atoms: C_29  and  C_30 
REMARK    8  A    between atoms: C_30  and  O_31 
REMARK    9  A    between atoms: O_31  and  C_32 
ROOT
HETATM    1  C   UNL     1      41.095 -15.608   6.867  1.00  0.00     0.071 C 
HETATM    2  C   UNL     1      40.520 -14.657   5.843  1.00  0.00     0.048 C 
HETATM    3  N   UNL     1      39.793 -13.597   6.410  1.00  0.00    -0.229 NA
HETATM    4  C   UNL     1      39.878 -12.463   5.787  1.00  0.00     0.170 C 
HETATM    5  N   UNL     1      40.500 -12.358   4.354  1.00  0.00    -0.318 N 
HETATM    6  C   UNL     1      41.410 -11.437   4.413  1.00  0.00     0.011 C 
HETATM    7  C   UNL     1      40.174 -13.624   3.671  1.00  0.00     0.168 C 
HETATM    8  S   UNL     1      39.737 -10.903   6.503  1.00  0.00    -0.086 SA
HETATM    9  C   UNL     1      41.129 -10.340   5.434  1.00  0.00     0.135 C 
HETATM   10  C   UNL     1      40.849 -14.667   4.522  1.00  0.00     0.069 C 
ENDROOT
BRANCH   6  11
HETATM   11  C   UNL     1      42.715 -11.624   3.699  1.00  0.00     0.156 C 
BRANCH  11  12
HETATM   12  C   UNL     1      43.930 -11.629   4.593  1.00  0.00     0.223 C 
HETATM   13  N   UNL     1      43.716 -12.060   5.884  1.00  0.00    -0.359 N 
HETATM   14  H   UNL     1      42.798 -12.387   6.175  1.00  0.00     0.162 HD
HETATM   15  O   UNL     1      45.020 -11.234   4.198  1.00  0.00    -0.273 OA
BRANCH  13  16
HETATM   16  C   UNL     1      44.813 -12.166   6.843  1.00  0.00     0.150 C 
BRANCH  16  17
HETATM   17  C   UNL     1      45.081 -10.832   7.562  1.00  0.00     0.254 C 
BRANCH  17  18
HETATM   18  N   UNL     1      44.239 -10.667   8.806  1.00  0.00    -0.070 N 
HETATM   19  H   UNL     1      43.791 -11.565   9.034  1.00  0.00     0.279 HD
HETATM   20  C   UNL     1      43.136  -9.622   8.678  1.00  0.00     0.235 C 
HETATM   21  C   UNL     1      43.606  -8.471   9.541  1.00  0.00     0.029 C 
HETATM   22  C   UNL     1      44.281  -9.173  10.700  1.00  0.00     0.029 C 
HETATM   23  C   UNL     1      45.075 -10.271  10.024  1.00  0.00     0.235 C 
ENDBRANCH  17  18
ENDBRANCH  16  17
ENDBRANCH  13  16
ENDBRANCH  11  12
ENDBRANCH   6  11
BRANCH   7  24
HETATM   24  C   UNL     1      40.050 -13.752   2.156  1.00  0.00    -0.009 A 
HETATM   25  C   UNL     1      39.668 -12.754   1.238  1.00  0.00     0.042 A 
HETATM   26 CL   UNL     1      39.239 -11.145   1.693  1.00  0.00    -0.084 Cl
HETATM   27  C   UNL     1      39.513 -13.041  -0.128  1.00  0.00     0.024 A 
HETATM   28  C   UNL     1      39.658 -14.338  -0.609  1.00  0.00     0.002 A 
HETATM   29  C   UNL     1      39.935 -15.363   0.280  1.00  0.00     0.001 A 
HETATM   30  C   UNL     1      40.110 -15.075   1.635  1.00  0.00     0.011 A 
ENDBRANCH   7  24
BRANCH  10  31
HETATM   31  C   UNL     1      42.187 -15.180   4.136  1.00  0.00     0.294 C 
HETATM   32  O   UNL     1      43.069 -14.423   3.755  1.00  0.00    -0.259 OA
BRANCH  31  33
HETATM   33  O   UNL     1      42.179 -16.515   3.989  1.00  0.00    -0.313 OA
BRANCH  33  34
HETATM   34  C   UNL     1      43.398 -17.147   3.535  1.00  0.00     0.124 C 
HETATM   35  C   UNL     1      43.993 -17.952   4.678  1.00  0.00     0.040 C 
HETATM   36  C   UNL     1      43.037 -18.041   2.354  1.00  0.00     0.040 C 
ENDBRANCH  33  34
ENDBRANCH  31  33
ENDBRANCH  10  31
TORSDOF 9
ENDMDL
MODEL 2
REMARK VINA RESULT:      -7.8      2.982      5.379
REMARK  9 active torsions:
REMARK  status: ('A' for Active; 'I' for Inactive)
REMARK    1  A    between atoms: C_6  and  C_7 
REMARK    2  A    between atoms: C_7  and  C_8 
REMARK       I    between atoms: C_8  and  N_9 
REMARK    3  A    between atoms: N_9  and  C_10 
REMARK    4  A    between atoms: C_10  and  C_11 
REMARK    5  A    between atoms: C_11  and  N_12 
REMARK    6  A    between atoms: C_19  and  C_20 
REMARK    7  A    between atoms: C_29  and  C_30 
REMARK    8  A    between atoms: C_30  and  O_31 
REMARK    9  A    between atoms: O_31  and  C_32 
ROOT
HETATM    1  C   UNL     1      38.952 -12.855   2.932  1.00  0.00     0.071 C 
HETATM    2  C   UNL     1      39.845 -11.767   3.485  1.00  0.00     0.048 C 
HETATM    3  N   UNL     1      39.503 -10.481   3.034  1.00  0.00    -0.229 NA
HETATM    4  C   UNL     1      39.674  -9.523   3.892  1.00  0.00     0.170 C 
HETATM    5  N   UNL     1      40.476  -9.743   5.218  1.00  0.00    -0.318 N 
HETATM    6  C   UNL     1      39.711  -9.338   6.183  1.00  0.00     0.011 C 
HETATM    7  C   UNL     1      41.522 -10.734   4.907  1.00  0.00     0.168 C 
HETATM    8  S   UNL     1      38.773  -8.057   3.963  1.00  0.00    -0.086 SA
HETATM    9  C   UNL     1      38.756  -8.213   5.799  1.00  0.00     0.135 C 
HETATM   10  C   UNL     1      40.741 -11.953   4.492  1.00  0.00     0.069 C 
ENDROOT
BRANCH   6  11
HETATM   11  C   UNL     1      39.644 -10.114   7.465  1.00  0.00     0.156 C 
BRANCH  11  12
HETATM   12  C   UNL     1      39.999  -9.326   8.701  1.00  0.00     0.223 C 
HETATM   13  N   UNL     1      39.544  -9.851   9.891  1.00  0.00    -0.359 N 
HETATM   14  H   UNL     1      39.042 -10.736   9.908  1.00  0.00     0.162 HD
HETATM   15  O   UNL     1      40.614  -8.270   8.635  1.00  0.00    -0.273 OA
BRANCH  13  16
HETATM   16  C   UNL     1      39.860  -9.222  11.171  1.00  0.00     0.150 C 
BRANCH  16  17
HETATM   17  C   UNL     1      40.252 -10.258  12.240  1.00  0.00     0.254 C 
BRANCH  17  18
HETATM   18  N   UNL     1      41.740 -10.281  12.505  1.00  0.00    -0.070 N 
HETATM   19  H   UNL     1      42.025 -11.237  12.758  1.00  0.00     0.279 HD
HETATM   20  C   UNL     1      42.186  -9.355  13.631  1.00  0.00     0.235 C 
HETATM   21  C   UNL     1      42.912  -8.229  12.926  1.00  0.00     0.029 C 
HETATM   22  C   UNL     1      43.613  -8.940  11.788  1.00  0.00     0.029 C 
HETATM   23  C   UNL     1      42.555  -9.891  11.271  1.00  0.00     0.235 C 
ENDBRANCH  17  18
ENDBRANCH  16  17
ENDBRANCH  13  16
ENDBRANCH  11  12
ENDBRANCH   6  11
BRANCH   7  24
HETATM   24  C   UNL     1      42.846 -10.822   5.659  1.00  0.00    -0.009 A 
HETATM   25  C   UNL     1      44.082 -11.289   5.171  1.00  0.00     0.042 A 
HETATM   26 CL   UNL     1      44.318 -11.886   3.569  1.00  0.00    -0.084 Cl
HETATM   27  C   UNL     1      45.205 -11.393   6.010  1.00  0.00     0.024 A 
HETATM   28  C   UNL     1      45.113 -11.109   7.368  1.00  0.00     0.002 A 
HETATM   29  C   UNL     1      43.889 -10.744   7.903  1.00  0.00     0.001 A 
HETATM   30  C   UNL     1      42.778 -10.620   7.066  1.00  0.00     0.011 A 
ENDBRANCH   7  24
BRANCH  10  31
HETATM   31  C   UNL     1      40.473 -13.028   5.480  1.00  0.00     0.294 C 
HETATM   32  O   UNL     1      39.620 -12.893   6.347  1.00  0.00    -0.259 OA
BRANCH  31  33
HETATM   33  O   UNL     1      41.438 -13.962   5.465  1.00  0.00    -0.313 OA
BRANCH  33  34
HETATM   34  C   UNL     1      41.721 -14.654   6.703  1.00  0.00     0.124 C 
HETATM   35  C   UNL     1      41.415 -16.131   6.524  1.00  0.00     0.040 C 
HETATM   36  C   UNL     1      43.192 -14.425   7.029  1.00  0.00     0.040 C 
ENDBRANCH  33  34
ENDBRANCH  31  33
ENDBRANCH  10  31
TORSDOF 9
ENDMDL
MODEL 3
REMARK VINA RESULT:      -7.8      2.650      8.055
REMARK  9 active torsions:
REMARK  status: ('A' for Active; 'I' for Inactive)
REMARK    1  A    between atoms: C_6  and  C_7 
REMARK    2  A    between atoms: C_7  and  C_8 
REMARK       I    between atoms: C_8  and  N_9 
REMARK    3  A    between atoms: N_9  and  C_10 
REMARK    4  A    between atoms: C_10  and  C_11 
REMARK    5  A    between atoms: C_11  and  N_12 
REMARK    6  A    between atoms: C_19  and  C_20 
REMARK    7  A    between atoms: C_29  and  C_30 
REMARK    8  A    between atoms: C_30  and  O_31 
REMARK    9  A    between atoms: O_31  and  C_32 
ROOT
HETATM    1  C   UNL     1      38.729 -10.798   5.332  1.00  0.00     0.071 C 
HETATM    2  C   UNL     1      39.904 -11.519   5.953  1.00  0.00     0.048 C 
HETATM    3  N   UNL     1      39.599 -12.824   6.375  1.00  0.00    -0.229 NA
HETATM    4  C   UNL     1      40.555 -13.691   6.247  1.00  0.00     0.170 C 
HETATM    5  N   UNL     1      42.023 -13.253   5.926  1.00  0.00    -0.318 N 
HETATM    6  C   UNL     1      42.397 -13.940   4.893  1.00  0.00     0.011 C 
HETATM    7  C   UNL     1      42.213 -11.944   6.578  1.00  0.00     0.168 C 
HETATM    8  S   UNL     1      40.357 -15.383   5.993  1.00  0.00    -0.086 SA
HETATM    9  C   UNL     1      41.746 -15.315   4.783  1.00  0.00     0.135 C 
HETATM   10  C   UNL     1      41.187 -11.066   5.911  1.00  0.00     0.069 C 
ENDROOT
BRANCH   6  11
HETATM   11  C   UNL     1      43.203 -13.288   3.809  1.00  0.00     0.156 C 
BRANCH  11  12
HETATM   12  C   UNL     1      42.804 -13.675   2.406  1.00  0.00     0.223 C 
HETATM   13  N   UNL     1      41.673 -13.058   1.918  1.00  0.00    -0.359 N 
HETATM   14  H   UNL     1      41.182 -12.361   2.474  1.00  0.00     0.162 HD
HETATM   15  O   UNL     1      43.430 -14.512   1.768  1.00  0.00    -0.273 OA
BRANCH  13  16
HETATM   16  C   UNL     1      41.202 -13.297   0.556  1.00  0.00     0.150 C 
BRANCH  16  17
HETATM   17  C   UNL     1      39.895 -12.540   0.258  1.00  0.00     0.254 C 
BRANCH  17  18
HETATM   18  N   UNL     1      38.875 -13.405  -0.446  1.00  0.00    -0.070 N 
HETATM   19  H   UNL     1      38.183 -13.739   0.239  1.00  0.00     0.279 HD
HETATM   20  C   UNL     1      39.467 -14.628  -1.137  1.00  0.00     0.235 C 
HETATM   21  C   UNL     1      39.366 -14.311  -2.614  1.00  0.00     0.029 C 
HETATM   22  C   UNL     1      38.054 -13.562  -2.709  1.00  0.00     0.029 C 
HETATM   23  C   UNL     1      38.099 -12.634  -1.514  1.00  0.00     0.235 C 
ENDBRANCH  17  18
ENDBRANCH  16  17
ENDBRANCH  13  16
ENDBRANCH  11  12
ENDBRANCH   6  11
BRANCH   7  24
HETATM   24  C   UNL     1      43.572 -11.422   7.032  1.00  0.00    -0.009 A 
HETATM   25  C   UNL     1      43.833 -10.445   8.014  1.00  0.00     0.042 A 
HETATM   26 CL   UNL     1      42.601  -9.622   8.899  1.00  0.00    -0.084 Cl
HETATM   27  C   UNL     1      45.140  -9.999   8.269  1.00  0.00     0.024 A 
HETATM   28  C   UNL     1      46.213 -10.452   7.509  1.00  0.00     0.002 A 
HETATM   29  C   UNL     1      45.981 -11.336   6.469  1.00  0.00     0.001 A 
HETATM   30  C   UNL     1      44.685 -11.797   6.229  1.00  0.00     0.011 A 
ENDBRANCH   7  24
BRANCH  10  31
HETATM   31  C   UNL     1      41.587 -10.196   4.778  1.00  0.00     0.294 C 
HETATM   32  O   UNL     1      41.673 -10.637   3.640  1.00  0.00    -0.259 OA
BRANCH  31  33
HETATM   33  O   UNL     1      42.091  -9.028   5.208  1.00  0.00    -0.313 OA
BRANCH  33  34
HETATM   34  C   UNL     1      41.159  -7.965   5.510  1.00  0.00     0.124 C 
HETATM   35  C   UNL     1      41.787  -7.031   6.530  1.00  0.00     0.040 C 
HETATM   36  C   UNL     1      40.854  -7.239   4.205  1.00  0.00     0.040 C 
ENDBRANCH  33  34
ENDBRANCH  31  33
ENDBRANCH  10  31
TORSDOF 9
ENDMDL
MODEL 4
REMARK VINA RESULT:      -7.6      3.601      8.205
REMARK  9 active torsions:
REMARK  status: ('A' for Active; 'I' for Inactive)
REMARK    1  A    between atoms: C_6  and  C_7 
REMARK    2  A    between atoms: C_7  and  C_8 
REMARK       I    between atoms: C_8  and  N_9 
REMARK    3  A    between atoms: N_9  and  C_10 
REMARK    4  A    between atoms: C_10  and  C_11 
REMARK    5  A    between atoms: C_11  and  N_12 
REMARK    6  A    between atoms: C_19  and  C_20 
REMARK    7  A    between atoms: C_29  and  C_30 
REMARK    8  A    between atoms: C_30  and  O_31 
REMARK    9  A    between atoms: O_31  and  C_32 
ROOT
HETATM    1  C   UNL     1      45.643  -8.493   8.425  1.00  0.00     0.071 C 
HETATM    2  C   UNL     1      44.256  -8.139   8.911  1.00  0.00     0.048 C 
HETATM    3  N   UNL     1      43.776  -6.923   8.395  1.00  0.00    -0.229 NA
HETATM    4  C   UNL     1      42.502  -6.879   8.158  1.00  0.00     0.170 C 
HETATM    5  N   UNL     1      41.530  -7.988   8.683  1.00  0.00    -0.318 N 
HETATM    6  C   UNL     1      40.855  -8.404   7.658  1.00  0.00     0.011 C 
HETATM    7  C   UNL     1      42.090  -8.450   9.968  1.00  0.00     0.168 C 
HETATM    8  S   UNL     1      41.729  -5.915   6.958  1.00  0.00    -0.086 SA
HETATM    9  C   UNL     1      40.633  -7.348   6.581  1.00  0.00     0.135 C 
HETATM   10  C   UNL     1      43.441  -8.995   9.587  1.00  0.00     0.069 C 
ENDROOT
BRANCH   6  11
HETATM   11  C   UNL     1      40.565  -9.866   7.493  1.00  0.00     0.156 C 
BRANCH  11  12
HETATM   12  C   UNL     1      40.691 -10.379   6.080  1.00  0.00     0.223 C 
HETATM   13  N   UNL     1      39.512 -10.774   5.483  1.00  0.00    -0.359 N 
HETATM   14  H   UNL     1      38.626 -10.675   5.973  1.00  0.00     0.162 HD
HETATM   15  O   UNL     1      41.778 -10.472   5.524  1.00  0.00    -0.273 OA
BRANCH  13  16
HETATM   16  C   UNL     1      39.478 -11.240   4.100  1.00  0.00     0.150 C 
BRANCH  16  17
HETATM   17  C   UNL     1      39.420 -12.776   4.012  1.00  0.00     0.254 C 
BRANCH  17  18
HETATM   18  N   UNL     1      40.600 -13.439   4.685  1.00  0.00    -0.070 N 
HETATM   19  H   UNL     1      41.300 -12.723   4.924  1.00  0.00     0.279 HD
HETATM   20  C   UNL     1      41.294 -14.491   3.827  1.00  0.00     0.235 C 
HETATM   21  C   UNL     1      40.922 -15.808   4.475  1.00  0.00     0.029 C 
HETATM   22  C   UNL     1      40.915 -15.468   5.950  1.00  0.00     0.029 C 
HETATM   23  C   UNL     1      40.211 -14.128   5.992  1.00  0.00     0.235 C 
ENDBRANCH  17  18
ENDBRANCH  16  17
ENDBRANCH  13  16
ENDBRANCH  11  12
ENDBRANCH   6  11
BRANCH   7  24
HETATM   24  C   UNL     1      41.243  -9.054  11.083  1.00  0.00    -0.009 A 
HETATM   25  C   UNL     1      41.571  -9.159  12.449  1.00  0.00     0.042 A 
HETATM   26 CL   UNL     1      43.063  -8.612  13.123  1.00  0.00    -0.084 Cl
HETATM   27  C   UNL     1      40.723  -9.821  13.353  1.00  0.00     0.024 A 
HETATM   28  C   UNL     1      39.568 -10.461  12.916  1.00  0.00     0.002 A 
HETATM   29  C   UNL     1      39.267 -10.464  11.565  1.00  0.00     0.001 A 
HETATM   30  C   UNL     1      40.097  -9.788  10.669  1.00  0.00     0.011 A 
ENDBRANCH   7  24
BRANCH  10  31
HETATM   31  C   UNL     1      43.611 -10.452   9.361  1.00  0.00     0.294 C 
HETATM   32  O   UNL     1      44.004 -11.189  10.255  1.00  0.00    -0.259 OA
BRANCH  31  33
HETATM   33  O   UNL     1      43.565 -10.756   8.054  1.00  0.00    -0.313 OA
BRANCH  33  34
HETATM   34  C   UNL     1      44.426 -11.817   7.581  1.00  0.00     0.124 C 
HETATM   35  C   UNL     1      43.570 -13.005   7.178  1.00  0.00     0.040 C 
HETATM   36  C   UNL     1      45.216 -11.272   6.397  1.00  0.00     0.040 C 
ENDBRANCH  33  34
ENDBRANCH  31  33
ENDBRANCH  10  31
TORSDOF 9
ENDMDL
MODEL 5
REMARK VINA RESULT:      -7.5      2.932      5.562
REMARK  9 active torsions:
REMARK  status: ('A' for Active; 'I' for Inactive)
REMARK    1  A    between atoms: C_6  and  C_7 
REMARK    2  A    between atoms: C_7  and  C_8 
REMARK       I    between atoms: C_8  and  N_9 
REMARK    3  A    between atoms: N_9  and  C_10 
REMARK    4  A    between atoms: C_10  and  C_11 
REMARK    5  A    between atoms: C_11  and  N_12 
REMARK    6  A    between atoms: C_19  and  C_20 
REMARK    7  A    between atoms: C_29  and  C_30 
REMARK    8  A    between atoms: C_30  and  O_31 
REMARK    9  A    between atoms: O_31  and  C_32 
ROOT
HETATM    1  C   UNL     1      43.250 -13.929   2.674  1.00  0.00     0.071 C 
HETATM    2  C   UNL     1      43.167 -12.584   3.358  1.00  0.00     0.048 C 
HETATM    3  N   UNL     1      42.782 -11.542   2.498  1.00  0.00    -0.229 NA
HETATM    4  C   UNL     1      42.043 -10.619   3.032  1.00  0.00     0.170 C 
HETATM    5  N   UNL     1      41.845 -10.520   4.582  1.00  0.00    -0.318 N 
HETATM    6  C   UNL     1      40.567 -10.487   4.789  1.00  0.00     0.011 C 
HETATM    7  C   UNL     1      43.107 -10.986   5.188  1.00  0.00     0.168 C 
HETATM    8  S   UNL     1      40.878  -9.655   2.209  1.00  0.00    -0.086 SA
HETATM    9  C   UNL     1      39.763  -9.847   3.663  1.00  0.00     0.135 C 
HETATM   10  C   UNL     1      43.225 -12.408   4.707  1.00  0.00     0.069 C 
ENDROOT
BRANCH   6  11
HETATM   11  C   UNL     1      39.972 -11.253   5.934  1.00  0.00     0.156 C 
BRANCH  11  12
HETATM   12  C   UNL     1      39.276 -10.403   6.968  1.00  0.00     0.223 C 
HETATM   13  N   UNL     1      39.774 -10.499   8.250  1.00  0.00    -0.359 N 
HETATM   14  H   UNL     1      40.585 -11.081   8.447  1.00  0.00     0.162 HD
HETATM   15  O   UNL     1      38.308  -9.710   6.684  1.00  0.00    -0.273 OA
BRANCH  13  16
HETATM   16  C   UNL     1      39.231  -9.694   9.340  1.00  0.00     0.150 C 
BRANCH  16  17
HETATM   17  C   UNL     1      40.179  -8.546   9.735  1.00  0.00     0.254 C 
BRANCH  17  18
HETATM   18  N   UNL     1      40.629  -8.638  11.174  1.00  0.00    -0.070 N 
HETATM   19  H   UNL     1      39.816  -8.840  11.772  1.00  0.00     0.279 HD
HETATM   20  C   UNL     1      41.285  -7.367  11.704  1.00  0.00     0.235 C 
HETATM   21  C   UNL     1      42.751  -7.724  11.826  1.00  0.00     0.029 C 
HETATM   22  C   UNL     1      42.711  -9.169  12.273  1.00  0.00     0.029 C 
HETATM   23  C   UNL     1      41.631  -9.771  11.398  1.00  0.00     0.235 C 
ENDBRANCH  17  18
ENDBRANCH  16  17
ENDBRANCH  13  16
ENDBRANCH  11  12
ENDBRANCH   6  11
BRANCH   7  24
HETATM   24  C   UNL     1      43.593 -10.539   6.562  1.00  0.00    -0.009 A 
HETATM   25  C   UNL     1      43.189  -9.400   7.288  1.00  0.00     0.042 A 
HETATM   26 CL   UNL     1      42.036  -8.253   6.710  1.00  0.00    -0.084 Cl
HETATM   27  C   UNL     1      43.790  -9.067   8.513  1.00  0.00     0.024 A 
HETATM   28  C   UNL     1      44.854  -9.808   9.015  1.00  0.00     0.002 A 
HETATM   29  C   UNL     1      45.343 -10.874   8.280  1.00  0.00     0.001 A 
HETATM   30  C   UNL     1      44.733 -11.219   7.073  1.00  0.00     0.011 A 
ENDBRANCH   7  24
BRANCH  10  31
HETATM   31  C   UNL     1      42.773 -13.520   5.580  1.00  0.00     0.294 C 
HETATM   32  O   UNL     1      43.552 -14.090   6.332  1.00  0.00    -0.259 OA
BRANCH  31  33
HETATM   33  O   UNL     1      41.558 -13.965   5.222  1.00  0.00    -0.313 OA
BRANCH  33  34
HETATM   34  C   UNL     1      41.258 -15.359   5.457  1.00  0.00     0.124 C 
HETATM   35  C   UNL     1      40.211 -15.462   6.553  1.00  0.00     0.040 C 
HETATM   36  C   UNL     1      40.749 -15.945   4.145  1.00  0.00     0.040 C 
ENDBRANCH  33  34
ENDBRANCH  31  33
ENDBRANCH  10  31
TORSDOF 9
ENDMDL
MODEL 6
REMARK VINA RESULT:      -7.4      2.742      5.129
REMARK  9 active torsions:
REMARK  status: ('A' for Active; 'I' for Inactive)
REMARK    1  A    between atoms: C_6  and  C_7 
REMARK    2  A    between atoms: C_7  and  C_8 
REMARK       I    between atoms: C_8  and  N_9 
REMARK    3  A    between atoms: N_9  and  C_10 
REMARK    4  A    between atoms: C_10  and  C_11 
REMARK    5  A    between atoms: C_11  and  N_12 
REMARK    6  A    between atoms: C_19  and  C_20 
REMARK    7  A    between atoms: C_29  and  C_30 
REMARK    8  A    between atoms: C_30  and  O_31 
REMARK    9  A    between atoms: O_31  and  C_32 
ROOT
HETATM    1  C   UNL     1      39.720 -14.659  -0.892  1.00  0.00     0.071 C 
HETATM    2  C   UNL     1      39.793 -14.445   0.603  1.00  0.00     0.048 C 
HETATM    3  N   UNL     1      40.056 -15.623   1.324  1.00  0.00    -0.229 NA
HETATM    4  C   UNL     1      40.789 -15.478   2.383  1.00  0.00     0.170 C 
HETATM    5  N   UNL     1      41.108 -14.064   2.975  1.00  0.00    -0.318 N 
HETATM    6  C   UNL     1      42.396 -13.997   3.098  1.00  0.00     0.011 C 
HETATM    7  C   UNL     1      39.924 -13.228   2.702  1.00  0.00     0.168 C 
HETATM    8  S   UNL     1      41.836 -16.668   3.058  1.00  0.00    -0.086 SA
HETATM    9  C   UNL     1      43.073 -15.337   3.363  1.00  0.00     0.135 C 
HETATM   10  C   UNL     1      39.836 -13.222   1.198  1.00  0.00     0.069 C 
ENDROOT
BRANCH   6  11
HETATM   11  C   UNL     1      43.118 -12.730   2.750  1.00  0.00     0.156 C 
BRANCH  11  12
HETATM   12  C   UNL     1      43.085 -11.668   3.822  1.00  0.00     0.223 C 
HETATM   13  N   UNL     1      43.577 -12.049   5.051  1.00  0.00    -0.359 N 
HETATM   14  H   UNL     1      43.969 -12.978   5.186  1.00  0.00     0.162 HD
HETATM   15  O   UNL     1      42.611 -10.559   3.612  1.00  0.00    -0.273 OA
BRANCH  13  16
HETATM   16  C   UNL     1      43.655 -11.108   6.165  1.00  0.00     0.150 C 
BRANCH  16  17
HETATM   17  C   UNL     1      43.910 -11.822   7.505  1.00  0.00     0.254 C 
BRANCH  17  18
HETATM   18  N   UNL     1      44.976 -11.139   8.330  1.00  0.00    -0.070 N 
HETATM   19  H   UNL     1      45.434 -11.835   8.935  1.00  0.00     0.279 HD
HETATM   20  C   UNL     1      44.449 -10.026   9.229  1.00  0.00     0.235 C 
HETATM   21  C   UNL     1      44.950  -8.753   8.581  1.00  0.00     0.029 C 
HETATM   22  C   UNL     1      46.316  -9.151   8.065  1.00  0.00     0.029 C 
HETATM   23  C   UNL     1      46.072 -10.520   7.464  1.00  0.00     0.235 C 
ENDBRANCH  17  18
ENDBRANCH  16  17
ENDBRANCH  13  16
ENDBRANCH  11  12
ENDBRANCH   6  11
BRANCH   7  24
HETATM   24  C   UNL     1      39.530 -12.026   3.554  1.00  0.00    -0.009 A 
HETATM   25  C   UNL     1      39.591 -11.911   4.957  1.00  0.00     0.042 A 
HETATM   26 CL   UNL     1      40.129 -13.175   6.001  1.00  0.00    -0.084 Cl
HETATM   27  C   UNL     1      39.112 -10.766   5.615  1.00  0.00     0.024 A 
HETATM   28  C   UNL     1      38.492  -9.740   4.910  1.00  0.00     0.002 A 
HETATM   29  C   UNL     1      38.325  -9.864   3.541  1.00  0.00     0.001 A 
HETATM   30  C   UNL     1      38.820 -10.991   2.883  1.00  0.00     0.011 A 
ENDBRANCH   7  24
BRANCH  10  31
HETATM   31  C   UNL     1      40.411 -12.089   0.432  1.00  0.00     0.294 C 
HETATM   32  O   UNL     1      41.566 -11.727   0.608  1.00  0.00    -0.259 OA
BRANCH  31  33
HETATM   33  O   UNL     1      39.456 -11.391  -0.205  1.00  0.00    -0.313 OA
BRANCH  33  34
HETATM   34  C   UNL     1      39.874 -10.484  -1.250  1.00  0.00     0.124 C 
HETATM   35  C   UNL     1      39.669 -11.154  -2.598  1.00  0.00     0.040 C 
HETATM   36  C   UNL     1      39.030  -9.220  -1.124  1.00  0.00     0.040 C 
ENDBRANCH  33  34
ENDBRANCH  31  33
ENDBRANCH  10  31
TORSDOF 9
ENDMDL
MODEL 7
REMARK VINA RESULT:      -7.3      3.090      5.395
REMARK  9 active torsions:
REMARK  status: ('A' for Active; 'I' for Inactive)
REMARK    1  A    between atoms: C_6  and  C_7 
REMARK    2  A    between atoms: C_7  and  C_8 
REMARK       I    between atoms: C_8  and  N_9 
REMARK    3  A    between atoms: N_9  and  C_10 
REMARK    4  A    between atoms: C_10  and  C_11 
REMARK    5  A    between atoms: C_11  and  N_12 
REMARK    6  A    between atoms: C_19  and  C_20 
REMARK    7  A    between atoms: C_29  and  C_30 
REMARK    8  A    between atoms: C_30  and  O_31 
REMARK    9  A    between atoms: O_31  and  C_32 
ROOT
HETATM    1  C   UNL     1      38.841 -12.406   2.728  1.00  0.00     0.071 C 
HETATM    2  C   UNL     1      39.767 -11.422   3.406  1.00  0.00     0.048 C 
HETATM    3  N   UNL     1      39.465 -10.080   3.116  1.00  0.00    -0.229 NA
HETATM    4  C   UNL     1      39.664  -9.240   4.083  1.00  0.00     0.170 C 
HETATM    5  N   UNL     1      40.458  -9.643   5.371  1.00  0.00    -0.318 N 
HETATM    6  C   UNL     1      39.706  -9.335   6.380  1.00  0.00     0.011 C 
HETATM    7  C   UNL     1      41.474 -10.621   4.938  1.00  0.00     0.168 C 
HETATM    8  S   UNL     1      38.809  -7.767   4.335  1.00  0.00    -0.086 SA
HETATM    9  C   UNL     1      38.786  -8.144   6.138  1.00  0.00     0.135 C 
HETATM   10  C   UNL     1      40.656 -11.756   4.380  1.00  0.00     0.069 C 
ENDROOT
BRANCH   6  11
HETATM   11  C   UNL     1      39.614 -10.259   7.558  1.00  0.00     0.156 C 
BRANCH  11  12
HETATM   12  C   UNL     1      39.534  -9.570   8.897  1.00  0.00     0.223 C 
HETATM   13  N   UNL     1      40.734  -9.409   9.555  1.00  0.00    -0.359 N 
HETATM   14  H   UNL     1      41.606  -9.707   9.123  1.00  0.00     0.162 HD
HETATM   15  O   UNL     1      38.464  -9.219   9.376  1.00  0.00    -0.273 OA
BRANCH  13  16
HETATM   16  C   UNL     1      40.813  -8.711  10.836  1.00  0.00     0.150 C 
BRANCH  16  17
HETATM   17  C   UNL     1      41.823  -7.550  10.797  1.00  0.00     0.254 C 
BRANCH  17  18
HETATM   18  N   UNL     1      42.849  -7.639  11.903  1.00  0.00    -0.070 N 
HETATM   19  H   UNL     1      43.780  -7.423  11.520  1.00  0.00     0.279 HD
HETATM   20  C   UNL     1      42.931  -9.010  12.567  1.00  0.00     0.235 C 
HETATM   21  C   UNL     1      42.320  -8.801  13.936  1.00  0.00     0.029 C 
HETATM   22  C   UNL     1      42.784  -7.408  14.304  1.00  0.00     0.029 C 
HETATM   23  C   UNL     1      42.588  -6.629  13.020  1.00  0.00     0.235 C 
ENDBRANCH  17  18
ENDBRANCH  16  17
ENDBRANCH  13  16
ENDBRANCH  11  12
ENDBRANCH   6  11
BRANCH   7  24
HETATM   24  C   UNL     1      42.794 -10.839   5.670  1.00  0.00    -0.009 A 
HETATM   25  C   UNL     1      43.996 -11.348   5.140  1.00  0.00     0.042 A 
HETATM   26 CL   UNL     1      44.185 -11.851   3.500  1.00  0.00    -0.084 Cl
HETATM   27  C   UNL     1      45.115 -11.576   5.959  1.00  0.00     0.024 A 
HETATM   28  C   UNL     1      45.049 -11.378   7.334  1.00  0.00     0.002 A 
HETATM   29  C   UNL     1      43.853 -10.974   7.903  1.00  0.00     0.001 A 
HETATM   30  C   UNL     1      42.747 -10.727   7.088  1.00  0.00     0.011 A 
ENDBRANCH   7  24
BRANCH  10  31
HETATM   31  C   UNL     1      40.355 -12.934   5.232  1.00  0.00     0.294 C 
HETATM   32  O   UNL     1      39.385 -12.945   5.977  1.00  0.00    -0.259 OA
BRANCH  31  33
HETATM   33  O   UNL     1      41.393 -13.785   5.279  1.00  0.00    -0.313 OA
BRANCH  33  34
HETATM   34  C   UNL     1      41.724 -14.506   4.071  1.00  0.00     0.124 C 
HETATM   35  C   UNL     1      43.084 -15.161   4.243  1.00  0.00     0.040 C 
HETATM   36  C   UNL     1      40.631 -15.545   3.843  1.00  0.00     0.040 C 
ENDBRANCH  33  34
ENDBRANCH  31  33
ENDBRANCH  10  31
TORSDOF 9
ENDMDL
MODEL 8
REMARK VINA RESULT:      -7.3      3.658      8.861
REMARK  9 active torsions:
REMARK  status: ('A' for Active; 'I' for Inactive)
REMARK    1  A    between atoms: C_6  and  C_7 
REMARK    2  A    between atoms: C_7  and  C_8 
REMARK       I    between atoms: C_8  and  N_9 
REMARK    3  A    between atoms: N_9  and  C_10 
REMARK    4  A    between atoms: C_10  and  C_11 
REMARK    5  A    between atoms: C_11  and  N_12 
REMARK    6  A    between atoms: C_19  and  C_20 
REMARK    7  A    between atoms: C_29  and  C_30 
REMARK    8  A    between atoms: C_30  and  O_31 
REMARK    9  A    between atoms: O_31  and  C_32 
ROOT
HETATM    1  C   UNL     1      39.794  -5.500   7.409  1.00  0.00     0.071 C 
HETATM    2  C   UNL     1      39.851  -6.922   7.919  1.00  0.00     0.048 C 
HETATM    3  N   UNL     1      38.891  -7.765   7.334  1.00  0.00    -0.229 NA
HETATM    4  C   UNL     1      39.265  -8.991   7.142  1.00  0.00     0.170 C 
HETATM    5  N   UNL     1      40.575  -9.560   7.783  1.00  0.00    -0.318 N 
HETATM    6  C   UNL     1      41.262 -10.084   6.818  1.00  0.00     0.011 C 
HETATM    7  C   UNL     1      40.733  -8.868   9.076  1.00  0.00     0.168 C 
HETATM    8  S   UNL     1      38.690 -10.042   5.904  1.00  0.00    -0.086 SA
HETATM    9  C   UNL     1      40.418 -10.639   5.675  1.00  0.00     0.135 C 
HETATM   10  C   UNL     1      40.859  -7.419   8.687  1.00  0.00     0.069 C 
ENDROOT
BRANCH   6  11
HETATM   11  C   UNL     1      42.750  -9.903   6.771  1.00  0.00     0.156 C 
BRANCH  11  12
HETATM   12  C   UNL     1      43.521 -11.121   6.325  1.00  0.00     0.223 C 
HETATM   13  N   UNL     1      43.290 -12.269   7.051  1.00  0.00    -0.359 N 
HETATM   14  H   UNL     1      42.607 -12.276   7.806  1.00  0.00     0.162 HD
HETATM   15  O   UNL     1      44.327 -11.070   5.405  1.00  0.00    -0.273 OA
BRANCH  13  16
HETATM   16  C   UNL     1      43.927 -13.535   6.698  1.00  0.00     0.150 C 
BRANCH  16  17
HETATM   17  C   UNL     1      42.895 -14.616   6.332  1.00  0.00     0.254 C 
BRANCH  17  18
HETATM   18  N   UNL     1      42.774 -14.817   4.838  1.00  0.00    -0.070 N 
HETATM   19  H   UNL     1      43.369 -14.130   4.355  1.00  0.00     0.279 HD
HETATM   20  C   UNL     1      41.356 -14.655   4.301  1.00  0.00     0.235 C 
HETATM   21  C   UNL     1      40.927 -16.062   3.944  1.00  0.00     0.029 C 
HETATM   22  C   UNL     1      42.204 -16.680   3.415  1.00  0.00     0.029 C 
HETATM   23  C   UNL     1      43.252 -16.201   4.398  1.00  0.00     0.235 C 
ENDBRANCH  17  18
ENDBRANCH  16  17
ENDBRANCH  13  16
ENDBRANCH  11  12
ENDBRANCH   6  11
BRANCH   7  24
HETATM   24  C   UNL     1      41.478  -9.468  10.264  1.00  0.00    -0.009 A 
HETATM   25  C   UNL     1      41.050  -9.527  11.605  1.00  0.00     0.042 A 
HETATM   26 CL   UNL     1      39.549  -8.884  12.163  1.00  0.00    -0.084 Cl
HETATM   27  C   UNL     1      41.884 -10.037  12.614  1.00  0.00     0.024 A 
HETATM   28  C   UNL     1      43.189 -10.432  12.335  1.00  0.00     0.002 A 
HETATM   29  C   UNL     1      43.676 -10.294  11.046  1.00  0.00     0.001 A 
HETATM   30  C   UNL     1      42.841  -9.808  10.039  1.00  0.00     0.011 A 
ENDBRANCH   7  24
BRANCH  10  31
HETATM   31  C   UNL     1      42.204  -6.804   8.562  1.00  0.00     0.294 C 
HETATM   32  O   UNL     1      42.834  -6.866   7.515  1.00  0.00    -0.259 OA
BRANCH  31  33
HETATM   33  O   UNL     1      42.705  -6.467   9.762  1.00  0.00    -0.313 OA
BRANCH  33  34
HETATM   34  C   UNL     1      41.907  -5.604  10.603  1.00  0.00     0.124 C 
HETATM   35  C   UNL     1      42.116  -5.999  12.055  1.00  0.00     0.040 C 
HETATM   36  C   UNL     1      42.356  -4.170  10.346  1.00  0.00     0.040 C 
ENDBRANCH  33  34
ENDBRANCH  31  33
ENDBRANCH  10  31
TORSDOF 9
ENDMDL
MODEL 9
REMARK VINA RESULT:      -7.3      3.866      7.053
REMARK  9 active torsions:
REMARK  status: ('A' for Active; 'I' for Inactive)
REMARK    1  A    between atoms: C_6  and  C_7 
REMARK    2  A    between atoms: C_7  and  C_8 
REMARK       I    between atoms: C_8  and  N_9 
REMARK    3  A    between atoms: N_9  and  C_10 
REMARK    4  A    between atoms: C_10  and  C_11 
REMARK    5  A    between atoms: C_11  and  N_12 
REMARK    6  A    between atoms: C_19  and  C_20 
REMARK    7  A    between atoms: C_29  and  C_30 
REMARK    8  A    between atoms: C_30  and  O_31 
REMARK    9  A    between atoms: O_31  and  C_32 
ROOT
HETATM    1  C   UNL     1      38.991  -8.861   2.988  1.00  0.00     0.071 C 
HETATM    2  C   UNL     1      39.953  -9.797   2.294  1.00  0.00     0.048 C 
HETATM    3  N   UNL     1      41.272  -9.698   2.770  1.00  0.00    -0.229 NA
HETATM    4  C   UNL     1      41.943 -10.807   2.794  1.00  0.00     0.170 C 
HETATM    5  N   UNL     1      41.425 -12.097   2.073  1.00  0.00    -0.318 N 
HETATM    6  C   UNL     1      41.442 -13.046   2.955  1.00  0.00     0.011 C 
HETATM    7  C   UNL     1      40.689 -11.633   0.882  1.00  0.00     0.168 C 
HETATM    8  S   UNL     1      43.218 -11.194   3.886  1.00  0.00    -0.086 SA
HETATM    9  C   UNL     1      42.522 -12.895   4.021  1.00  0.00     0.135 C 
HETATM   10  C   UNL     1      39.573 -10.803   1.459  1.00  0.00     0.069 C 
ENDROOT
BRANCH   6  11
HETATM   11  C   UNL     1      40.317 -14.035   3.014  1.00  0.00     0.156 C 
BRANCH  11  12
HETATM   12  C   UNL     1      40.746 -15.482   2.993  1.00  0.00     0.223 C 
HETATM   13  N   UNL     1      42.100 -15.698   2.856  1.00  0.00    -0.359 N 
HETATM   14  H   UNL     1      42.748 -14.915   2.817  1.00  0.00     0.162 HD
HETATM   15  O   UNL     1      39.931 -16.394   3.052  1.00  0.00    -0.273 OA
BRANCH  13  16
HETATM   16  C   UNL     1      42.661 -17.046   2.874  1.00  0.00     0.150 C 
BRANCH  16  17
HETATM   17  C   UNL     1      43.384 -17.352   4.198  1.00  0.00     0.254 C 
BRANCH  17  18
HETATM   18  N   UNL     1      44.307 -18.543   4.091  1.00  0.00    -0.070 N 
HETATM   19  H   UNL     1      45.280 -18.232   4.223  1.00  0.00     0.279 HD
HETATM   20  C   UNL     1      44.235 -19.268   2.752  1.00  0.00     0.235 C 
HETATM   21  C   UNL     1      43.532 -20.571   3.068  1.00  0.00     0.029 C 
HETATM   22  C   UNL     1      44.065 -20.918   4.441  1.00  0.00     0.029 C 
HETATM   23  C   UNL     1      44.031 -19.591   5.170  1.00  0.00     0.235 C 
ENDBRANCH  17  18
ENDBRANCH  16  17
ENDBRANCH  13  16
ENDBRANCH  11  12
ENDBRANCH   6  11
BRANCH   7  24
HETATM   24  C   UNL     1      40.522 -12.472  -0.381  1.00  0.00    -0.009 A 
HETATM   25  C   UNL     1      40.743 -12.072  -1.713  1.00  0.00     0.042 A 
HETATM   26 CL   UNL     1      41.247 -10.485  -2.167  1.00  0.00    -0.084 Cl
HETATM   27  C   UNL     1      40.464 -12.932  -2.788  1.00  0.00     0.024 A 
HETATM   28  C   UNL     1      39.890 -14.181  -2.577  1.00  0.00     0.002 A 
HETATM   29  C   UNL     1      39.566 -14.568  -1.287  1.00  0.00     0.001 A 
HETATM   30  C   UNL     1      39.863 -13.722  -0.217  1.00  0.00     0.011 A 
ENDBRANCH   7  24
BRANCH  10  31
HETATM   31  C   UNL     1      38.231 -11.406   1.654  1.00  0.00     0.294 C 
HETATM   32  O   UNL     1      37.967 -12.052   2.660  1.00  0.00    -0.259 OA
BRANCH  31  33
HETATM   33  O   UNL     1      37.515 -11.394   0.518  1.00  0.00    -0.313 OA
BRANCH  33  34
HETATM   34  C   UNL     1      37.277 -10.114  -0.110  1.00  0.00     0.124 C 
HETATM   35  C   UNL     1      37.450 -10.260  -1.613  1.00  0.00     0.040 C 
HETATM   36  C   UNL     1      35.859  -9.685   0.247  1.00  0.00     0.040 C 
ENDBRANCH  33  34
ENDBRANCH  31  33
ENDBRANCH  10  31
TORSDOF 9
ENDMDL
MODEL 10
REMARK VINA RESULT:      -7.3      2.071      3.884
REMARK  9 active torsions:
REMARK  status: ('A' for Active; 'I' for Inactive)
REMARK    1  A    between atoms: C_6  and  C_7 
REMARK    2  A    between atoms: C_7  and  C_8 
REMARK       I    between atoms: C_8  and  N_9 
REMARK    3  A    between atoms: N_9  and  C_10 
REMARK    4  A    between atoms: C_10  and  C_11 
REMARK    5  A    between atoms: C_11  and  N_12 
REMARK    6  A    between atoms: C_19  and  C_20 
REMARK    7  A    between atoms: C_29  and  C_30 
REMARK    8  A    between atoms: C_30  and  O_31 
REMARK    9  A    between atoms: O_31  and  C_32 
ROOT
HETATM    1  C   UNL     1      41.306 -16.379   2.259  1.00  0.00     0.071 C 
HETATM    2  C   UNL     1      40.951 -15.371   3.328  1.00  0.00     0.048 C 
HETATM    3  N   UNL     1      40.882 -15.924   4.618  1.00  0.00    -0.229 NA
HETATM    4  C   UNL     1      41.279 -15.152   5.580  1.00  0.00     0.170 C 
HETATM    5  N   UNL     1      41.533 -13.623   5.355  1.00  0.00    -0.318 N 
HETATM    6  C   UNL     1      42.727 -13.379   5.794  1.00  0.00     0.011 C 
HETATM    7  C   UNL     1      40.562 -13.192   4.331  1.00  0.00     0.168 C 
HETATM    8  S   UNL     1      41.968 -15.668   7.072  1.00  0.00    -0.086 SA
HETATM    9  C   UNL     1      43.173 -14.280   6.940  1.00  0.00     0.135 C 
HETATM   10  C   UNL     1      40.925 -14.024   3.130  1.00  0.00     0.069 C 
ENDROOT
BRANCH   6  11
HETATM   11  C   UNL     1      43.630 -12.452   5.036  1.00  0.00     0.156 C 
BRANCH  11  12
HETATM   12  C   UNL     1      44.359 -11.442   5.887  1.00  0.00     0.223 C 
HETATM   13  N   UNL     1      43.615 -10.867   6.895  1.00  0.00    -0.359 N 
HETATM   14  H   UNL     1      42.653 -11.155   7.057  1.00  0.00     0.162 HD
HETATM   15  O   UNL     1      45.522 -11.132   5.662  1.00  0.00    -0.273 OA
BRANCH  13  16
HETATM   16  C   UNL     1      44.207  -9.914   7.829  1.00  0.00     0.150 C 
BRANCH  16  17
HETATM   17  C   UNL     1      44.482 -10.550   9.204  1.00  0.00     0.254 C 
BRANCH  17  18
HETATM   18  N   UNL     1      43.283 -10.486  10.121  1.00  0.00    -0.070 N 
HETATM   19  H   UNL     1      42.588 -11.184   9.820  1.00  0.00     0.279 HD
HETATM   20  C   UNL     1      42.590  -9.129  10.146  1.00  0.00     0.235 C 
HETATM   21  C   UNL     1      42.935  -8.556  11.504  1.00  0.00     0.029 C 
HETATM   22  C   UNL     1      42.921  -9.776  12.398  1.00  0.00     0.029 C 
HETATM   23  C   UNL     1      43.641 -10.820  11.570  1.00  0.00     0.235 C 
ENDBRANCH  17  18
ENDBRANCH  16  17
ENDBRANCH  13  16
ENDBRANCH  11  12
ENDBRANCH   6  11
BRANCH   7  24
HETATM   24  C   UNL     1      40.043 -11.763   4.216  1.00  0.00    -0.009 A 
HETATM   25  C   UNL     1      39.003 -11.291   3.392  1.00  0.00     0.042 A 
HETATM   26 CL   UNL     1      38.109 -12.292   2.307  1.00  0.00    -0.084 Cl
HETATM   27  C   UNL     1      38.689  -9.923   3.327  1.00  0.00     0.024 A 
HETATM   28  C   UNL     1      39.443  -8.980   4.018  1.00  0.00     0.002 A 
HETATM   29  C   UNL     1      40.535  -9.398   4.759  1.00  0.00     0.001 A 
HETATM   30  C   UNL     1      40.835 -10.759   4.841  1.00  0.00     0.011 A 
ENDBRANCH   7  24
BRANCH  10  31
HETATM   31  C   UNL     1      41.800 -13.453   2.075  1.00  0.00     0.294 C 
HETATM   32  O   UNL     1      43.016 -13.584   2.122  1.00  0.00    -0.259 OA
BRANCH  31  33
HETATM   33  O   UNL     1      41.132 -12.586   1.297  1.00  0.00    -0.313 OA
BRANCH  33  34
HETATM   34  C   UNL     1      41.039 -12.885  -0.114  1.00  0.00     0.124 C 
HETATM   35  C   UNL     1      40.027 -14.000  -0.317  1.00  0.00     0.040 C 
HETATM   36  C   UNL     1      40.609 -11.607  -0.825  1.00  0.00     0.040 C 
ENDBRANCH  33  34
ENDBRANCH  31  33
ENDBRANCH  10  31
TORSDOF 9
ENDMDL
