MODEL 1
REMARK VINA RESULT:      -8.4      0.000      0.000
REMARK  4 active torsions:
REMARK  status: ('A' for Active; 'I' for Inactive)
REMARK    1  A    between atoms: C_2  and  C_3 
REMARK    2  A    between atoms: C_8  and  N_9 
REMARK       I    between atoms: N_9  and  C_10 
REMARK       I    between atoms: C_10  and  N_11 
REMARK    3  A    between atoms: N_11  and  C_12 
REMARK    4  A    between atoms: C_12  and  C_13 
ROOT
HETATM    1  N   UNL     1      41.119 -13.428   0.964  1.00  0.00    -0.305 N 
HETATM    2  C   UNL     1      41.266 -14.790   1.080  1.00  0.00     0.321 C 
HETATM    3  N   UNL     1      42.592 -15.129   1.235  1.00  0.00    -0.339 N 
HETATM    4  O   UNL     1      40.372 -15.621   1.019  1.00  0.00    -0.247 OA
HETATM    5  H   UNL     1      41.937 -12.923   0.659  1.00  0.00     0.171 HD
HETATM    6  H   UNL     1      43.197 -14.433   1.642  1.00  0.00     0.164 HD
ENDROOT
BRANCH   3   7
HETATM    7  C   UNL     1      43.011 -16.508   1.382  1.00  0.00     0.163 C 
BRANCH   7   8
HETATM    8  C   UNL     1      43.316 -16.832   2.828  1.00  0.00    -0.029 A 
HETATM    9  C   UNL     1      43.539 -18.162   3.287  1.00  0.00    -0.018 A 
HETATM   10  C   UNL     1      43.812 -18.370   4.664  1.00  0.00    -0.025 A 
HETATM   11  C   UNL     1      43.509 -19.303   2.451  1.00  0.00     0.013 A 
HETATM   12  C   UNL     1      44.050 -19.667   5.148  1.00  0.00     0.012 A 
HETATM   13  C   UNL     1      43.844 -17.279   5.545  1.00  0.00     0.012 A 
HETATM   14  C   UNL     1      44.019 -20.768   4.296  1.00  0.00     0.001 A 
HETATM   15  C   UNL     1      43.747 -20.587   2.948  1.00  0.00     0.001 A 
HETATM   16  C   UNL     1      43.610 -15.985   5.091  1.00  0.00     0.002 A 
HETATM   17  C   UNL     1      43.346 -15.763   3.745  1.00  0.00     0.010 A 
ENDBRANCH   7   8
ENDBRANCH   3   7
BRANCH   1  18
HETATM   18  C   UNL     1      39.915 -12.739   0.936  1.00  0.00     0.095 A 
HETATM   19  C   UNL     1      39.205 -12.507  -0.225  1.00  0.00     0.107 A 
HETATM   20  O   UNL     1      38.085 -11.796   0.063  1.00  0.00    -0.215 OA
HETATM   21  N   UNL     1      38.037 -11.535   1.413  1.00  0.00    -0.131 NA
HETATM   22  C   UNL     1      39.136 -12.093   1.940  1.00  0.00     0.087 A 
HETATM   23  C   UNL     1      39.382 -11.921   3.392  1.00  0.00     0.075 C 
BRANCH  19  24
HETATM   24  C   UNL     1      39.382 -12.871  -1.651  1.00  0.00     0.065 C 
HETATM   25  C   UNL     1      38.960 -14.304  -1.921  1.00  0.00     0.012 C 
ENDBRANCH  19  24
ENDBRANCH   1  18
TORSDOF 4
ENDMDL
MODEL 2
REMARK VINA RESULT:      -8.3      5.510      7.084
REMARK  4 active torsions:
REMARK  status: ('A' for Active; 'I' for Inactive)
REMARK    1  A    between atoms: C_2  and  C_3 
REMARK    2  A    between atoms: C_8  and  N_9 
REMARK       I    between atoms: N_9  and  C_10 
REMARK       I    between atoms: C_10  and  N_11 
REMARK    3  A    between atoms: N_11  and  C_12 
REMARK    4  A    between atoms: C_12  and  C_13 
ROOT
HETATM    1  N   UNL     1      43.354 -11.080   7.708  1.00  0.00    -0.305 N 
HETATM    2  C   UNL     1      43.231 -11.659   6.467  1.00  0.00     0.321 C 
HETATM    3  N   UNL     1      42.449 -12.791   6.528  1.00  0.00    -0.339 N 
HETATM    4  O   UNL     1      43.760 -11.274   5.435  1.00  0.00    -0.247 OA
HETATM    5  H   UNL     1      43.192 -11.691   8.494  1.00  0.00     0.171 HD
HETATM    6  H   UNL     1      41.769 -12.837   7.272  1.00  0.00     0.164 HD
ENDROOT
BRANCH   3   7
HETATM    7  C   UNL     1      42.164 -13.583   5.349  1.00  0.00     0.163 C 
BRANCH   7   8
HETATM    8  C   UNL     1      42.968 -14.865   5.349  1.00  0.00    -0.029 A 
HETATM    9  C   UNL     1      42.869 -15.833   4.309  1.00  0.00    -0.018 A 
HETATM   10  C   UNL     1      43.657 -17.010   4.399  1.00  0.00    -0.025 A 
HETATM   11  C   UNL     1      42.030 -15.698   3.178  1.00  0.00     0.013 A 
HETATM   12  C   UNL     1      43.594 -17.980   3.384  1.00  0.00     0.012 A 
HETATM   13  C   UNL     1      44.500 -17.208   5.501  1.00  0.00     0.012 A 
HETATM   14  C   UNL     1      42.761 -17.812   2.280  1.00  0.00     0.001 A 
HETATM   15  C   UNL     1      41.978 -16.672   2.178  1.00  0.00     0.001 A 
HETATM   16  C   UNL     1      44.579 -16.264   6.520  1.00  0.00     0.002 A 
HETATM   17  C   UNL     1      43.818 -15.103   6.446  1.00  0.00     0.010 A 
ENDBRANCH   7   8
ENDBRANCH   3   7
BRANCH   1  18
HETATM   18  C   UNL     1      43.952  -9.858   7.980  1.00  0.00     0.095 A 
HETATM   19  C   UNL     1      43.236  -8.702   8.216  1.00  0.00     0.107 A 
HETATM   20  O   UNL     1      44.093  -7.673   8.433  1.00  0.00    -0.215 OA
HETATM   21  N   UNL     1      45.390  -8.123   8.334  1.00  0.00    -0.131 NA
HETATM   22  C   UNL     1      45.310  -9.433   8.057  1.00  0.00     0.087 A 
HETATM   23  C   UNL     1      46.571 -10.180   7.837  1.00  0.00     0.075 C 
BRANCH  19  24
HETATM   24  C   UNL     1      41.795  -8.363   8.303  1.00  0.00     0.065 C 
HETATM   25  C   UNL     1      41.165  -8.908   9.572  1.00  0.00     0.012 C 
ENDBRANCH  19  24
ENDBRANCH   1  18
TORSDOF 4
ENDMDL
MODEL 3
REMARK VINA RESULT:      -8.2      0.549      2.135
REMARK  4 active torsions:
REMARK  status: ('A' for Active; 'I' for Inactive)
REMARK    1  A    between atoms: C_2  and  C_3 
REMARK    2  A    between atoms: C_8  and  N_9 
REMARK       I    between atoms: N_9  and  C_10 
REMARK       I    between atoms: C_10  and  N_11 
REMARK    3  A    between atoms: N_11  and  C_12 
REMARK    4  A    between atoms: C_12  and  C_13 
ROOT
HETATM    1  N   UNL     1      41.077 -13.306   0.886  1.00  0.00    -0.305 N 
HETATM    2  C   UNL     1      41.187 -14.673   0.982  1.00  0.00     0.321 C 
HETATM    3  N   UNL     1      42.496 -15.047   1.190  1.00  0.00    -0.339 N 
HETATM    4  O   UNL     1      40.278 -15.480   0.864  1.00  0.00    -0.247 OA
HETATM    5  H   UNL     1      41.920 -12.815   0.629  1.00  0.00     0.171 HD
HETATM    6  H   UNL     1      43.098 -14.373   1.637  1.00  0.00     0.164 HD
ENDROOT
BRANCH   3   7
HETATM    7  C   UNL     1      42.875 -16.439   1.328  1.00  0.00     0.163 C 
BRANCH   7   8
HETATM    8  C   UNL     1      43.212 -16.769   2.765  1.00  0.00    -0.029 A 
HETATM    9  C   UNL     1      43.471 -18.098   3.207  1.00  0.00    -0.018 A 
HETATM   10  C   UNL     1      43.771 -18.313   4.577  1.00  0.00    -0.025 A 
HETATM   11  C   UNL     1      43.450 -19.232   2.362  1.00  0.00     0.013 A 
HETATM   12  C   UNL     1      44.045 -19.610   5.045  1.00  0.00     0.012 A 
HETATM   13  C   UNL     1      43.797 -17.231   5.469  1.00  0.00     0.012 A 
HETATM   14  C   UNL     1      44.021 -20.704   4.184  1.00  0.00     0.001 A 
HETATM   15  C   UNL     1      43.722 -20.515   2.842  1.00  0.00     0.001 A 
HETATM   16  C   UNL     1      43.528 -15.937   5.031  1.00  0.00     0.002 A 
HETATM   17  C   UNL     1      43.236 -15.709   3.692  1.00  0.00     0.010 A 
ENDBRANCH   7   8
ENDBRANCH   3   7
BRANCH   1  18
HETATM   18  C   UNL     1      39.893 -12.587   0.817  1.00  0.00     0.095 A 
HETATM   19  C   UNL     1      39.356 -11.910   1.893  1.00  0.00     0.107 A 
HETATM   20  O   UNL     1      38.190 -11.321   1.524  1.00  0.00    -0.215 OA
HETATM   21  N   UNL     1      37.927 -11.605   0.204  1.00  0.00    -0.131 NA
HETATM   22  C   UNL     1      38.943 -12.370  -0.223  1.00  0.00     0.087 A 
HETATM   23  C   UNL     1      38.898 -12.882  -1.614  1.00  0.00     0.075 C 
BRANCH  19  24
HETATM   24  C   UNL     1      39.772 -11.677   3.297  1.00  0.00     0.065 C 
HETATM   25  C   UNL     1      39.794 -12.967   4.098  1.00  0.00     0.012 C 
ENDBRANCH  19  24
ENDBRANCH   1  18
TORSDOF 4
ENDMDL
MODEL 4
REMARK VINA RESULT:      -8.2      5.162      7.184
REMARK  4 active torsions:
REMARK  status: ('A' for Active; 'I' for Inactive)
REMARK    1  A    between atoms: C_2  and  C_3 
REMARK    2  A    between atoms: C_8  and  N_9 
REMARK       I    between atoms: N_9  and  C_10 
REMARK       I    between atoms: C_10  and  N_11 
REMARK    3  A    between atoms: N_11  and  C_12 
REMARK    4  A    between atoms: C_12  and  C_13 
ROOT
HETATM    1  N   UNL     1      43.149 -12.348   7.366  1.00  0.00    -0.305 N 
HETATM    2  C   UNL     1      43.212 -13.706   7.164  1.00  0.00     0.321 C 
HETATM    3  N   UNL     1      41.969 -14.216   6.863  1.00  0.00    -0.339 N 
HETATM    4  O   UNL     1      44.208 -14.407   7.267  1.00  0.00    -0.247 OA
HETATM    5  H   UNL     1      42.243 -11.983   7.617  1.00  0.00     0.171 HD
HETATM    6  H   UNL     1      41.307 -13.586   6.438  1.00  0.00     0.164 HD
ENDROOT
BRANCH   3   7
HETATM    7  C   UNL     1      41.769 -15.627   6.603  1.00  0.00     0.163 C 
BRANCH   7   8
HETATM    8  C   UNL     1      41.657 -15.895   5.118  1.00  0.00    -0.029 A 
HETATM    9  C   UNL     1      42.500 -16.822   4.439  1.00  0.00    -0.018 A 
HETATM   10  C   UNL     1      42.326 -17.002   3.043  1.00  0.00    -0.025 A 
HETATM   11  C   UNL     1      43.508 -17.585   5.072  1.00  0.00     0.013 A 
HETATM   12  C   UNL     1      43.131 -17.918   2.344  1.00  0.00     0.012 A 
HETATM   13  C   UNL     1      41.350 -16.266   2.356  1.00  0.00     0.012 A 
HETATM   14  C   UNL     1      44.112 -18.658   2.999  1.00  0.00     0.001 A 
HETATM   15  C   UNL     1      44.302 -18.490   4.363  1.00  0.00     0.001 A 
HETATM   16  C   UNL     1      40.541 -15.352   3.024  1.00  0.00     0.002 A 
HETATM   17  C   UNL     1      40.695 -15.166   4.393  1.00  0.00     0.010 A 
ENDBRANCH   7   8
ENDBRANCH   3   7
BRANCH   1  18
HETATM   18  C   UNL     1      44.233 -11.501   7.548  1.00  0.00     0.095 A 
HETATM   19  C   UNL     1      44.420 -10.748   8.689  1.00  0.00     0.107 A 
HETATM   20  O   UNL     1      45.552 -10.010   8.566  1.00  0.00    -0.215 OA
HETATM   21  N   UNL     1      46.129 -10.250   7.340  1.00  0.00    -0.131 NA
HETATM   22  C   UNL     1      45.337 -11.139   6.723  1.00  0.00     0.087 A 
HETATM   23  C   UNL     1      45.687 -11.547   5.341  1.00  0.00     0.075 C 
BRANCH  19  24
HETATM   24  C   UNL     1      43.696 -10.597   9.974  1.00  0.00     0.065 C 
HETATM   25  C   UNL     1      44.361  -9.573  10.877  1.00  0.00     0.012 C 
ENDBRANCH  19  24
ENDBRANCH   1  18
TORSDOF 4
ENDMDL
MODEL 5
REMARK VINA RESULT:      -8.2      4.420      6.097
REMARK  4 active torsions:
REMARK  status: ('A' for Active; 'I' for Inactive)
REMARK    1  A    between atoms: C_2  and  C_3 
REMARK    2  A    between atoms: C_8  and  N_9 
REMARK       I    between atoms: N_9  and  C_10 
REMARK       I    between atoms: C_10  and  N_11 
REMARK    3  A    between atoms: N_11  and  C_12 
REMARK    4  A    between atoms: C_12  and  C_13 
ROOT
HETATM    1  N   UNL     1      43.888 -12.641   6.241  1.00  0.00    -0.305 N 
HETATM    2  C   UNL     1      43.318 -13.879   6.421  1.00  0.00     0.321 C 
HETATM    3  N   UNL     1      44.138 -14.873   5.936  1.00  0.00    -0.339 N 
HETATM    4  O   UNL     1      42.220 -14.104   6.907  1.00  0.00    -0.247 OA
HETATM    5  H   UNL     1      44.586 -12.582   5.515  1.00  0.00     0.171 HD
HETATM    6  H   UNL     1      45.126 -14.676   5.906  1.00  0.00     0.164 HD
ENDROOT
BRANCH   3   7
HETATM    7  C   UNL     1      43.763 -16.270   6.011  1.00  0.00     0.163 C 
BRANCH   7   8
HETATM    8  C   UNL     1      43.586 -16.860   4.628  1.00  0.00    -0.029 A 
HETATM    9  C   UNL     1      43.710 -18.254   4.366  1.00  0.00    -0.018 A 
HETATM   10  C   UNL     1      43.534 -18.714   3.035  1.00  0.00    -0.025 A 
HETATM   11  C   UNL     1      43.998 -19.223   5.356  1.00  0.00     0.013 A 
HETATM   12  C   UNL     1      43.636 -20.085   2.743  1.00  0.00     0.012 A 
HETATM   13  C   UNL     1      43.258 -17.801   2.008  1.00  0.00     0.012 A 
HETATM   14  C   UNL     1      43.915 -21.014   3.743  1.00  0.00     0.001 A 
HETATM   15  C   UNL     1      44.098 -20.582   5.049  1.00  0.00     0.001 A 
HETATM   16  C   UNL     1      43.154 -16.438   2.270  1.00  0.00     0.002 A 
HETATM   17  C   UNL     1      43.319 -15.971   3.568  1.00  0.00     0.010 A 
ENDBRANCH   7   8
ENDBRANCH   3   7
BRANCH   1  18
HETATM   18  C   UNL     1      43.401 -11.440   6.735  1.00  0.00     0.095 A 
HETATM   19  C   UNL     1      44.120 -10.627   7.588  1.00  0.00     0.107 A 
HETATM   20  O   UNL     1      43.377  -9.538   7.911  1.00  0.00    -0.215 OA
HETATM   21  N   UNL     1      42.151  -9.614   7.291  1.00  0.00    -0.131 NA
HETATM   22  C   UNL     1      42.159 -10.757   6.589  1.00  0.00     0.087 A 
HETATM   23  C   UNL     1      40.929 -11.135   5.852  1.00  0.00     0.075 C 
BRANCH  19  24
HETATM   24  C   UNL     1      45.478 -10.672   8.181  1.00  0.00     0.065 C 
HETATM   25  C   UNL     1      45.998  -9.282   8.500  1.00  0.00     0.012 C 
ENDBRANCH  19  24
ENDBRANCH   1  18
TORSDOF 4
ENDMDL
MODEL 6
REMARK VINA RESULT:      -8.2      5.414      6.990
REMARK  4 active torsions:
REMARK  status: ('A' for Active; 'I' for Inactive)
REMARK    1  A    between atoms: C_2  and  C_3 
REMARK    2  A    between atoms: C_8  and  N_9 
REMARK       I    between atoms: N_9  and  C_10 
REMARK       I    between atoms: C_10  and  N_11 
REMARK    3  A    between atoms: N_11  and  C_12 
REMARK    4  A    between atoms: C_12  and  C_13 
ROOT
HETATM    1  N   UNL     1      42.759 -10.767   7.481  1.00  0.00    -0.305 N 
HETATM    2  C   UNL     1      42.676 -11.376   6.252  1.00  0.00     0.321 C 
HETATM    3  N   UNL     1      42.181 -12.656   6.370  1.00  0.00    -0.339 N 
HETATM    4  O   UNL     1      43.021 -10.896   5.183  1.00  0.00    -0.247 OA
HETATM    5  H   UNL     1      42.803 -11.387   8.276  1.00  0.00     0.171 HD
HETATM    6  H   UNL     1      41.590 -12.845   7.165  1.00  0.00     0.164 HD
ENDROOT
BRANCH   3   7
HETATM    7  C   UNL     1      41.994 -13.508   5.214  1.00  0.00     0.163 C 
BRANCH   7   8
HETATM    8  C   UNL     1      42.855 -14.749   5.309  1.00  0.00    -0.029 A 
HETATM    9  C   UNL     1      42.826 -15.781   4.329  1.00  0.00    -0.018 A 
HETATM   10  C   UNL     1      43.664 -16.912   4.506  1.00  0.00    -0.025 A 
HETATM   11  C   UNL     1      42.008 -15.754   3.175  1.00  0.00     0.013 A 
HETATM   12  C   UNL     1      43.671 -17.943   3.551  1.00  0.00     0.012 A 
HETATM   13  C   UNL     1      44.491 -17.003   5.636  1.00  0.00     0.012 A 
HETATM   14  C   UNL     1      42.857 -17.882   2.423  1.00  0.00     0.001 A 
HETATM   15  C   UNL     1      42.023 -16.788   2.236  1.00  0.00     0.001 A 
HETATM   16  C   UNL     1      44.502 -15.996   6.597  1.00  0.00     0.002 A 
HETATM   17  C   UNL     1      43.690 -14.880   6.436  1.00  0.00     0.010 A 
ENDBRANCH   7   8
ENDBRANCH   3   7
BRANCH   1  18
HETATM   18  C   UNL     1      43.082  -9.437   7.710  1.00  0.00     0.095 A 
HETATM   19  C   UNL     1      44.254  -9.039   8.320  1.00  0.00     0.107 A 
HETATM   20  O   UNL     1      44.277  -7.686   8.421  1.00  0.00    -0.215 OA
HETATM   21  N   UNL     1      43.119  -7.163   7.891  1.00  0.00    -0.131 NA
HETATM   22  C   UNL     1      42.396  -8.212   7.470  1.00  0.00     0.087 A 
HETATM   23  C   UNL     1      41.054  -7.951   6.897  1.00  0.00     0.075 C 
BRANCH  19  24
HETATM   24  C   UNL     1      45.452  -9.738   8.844  1.00  0.00     0.065 C 
HETATM   25  C   UNL     1      45.353  -9.978  10.341  1.00  0.00     0.012 C 
ENDBRANCH  19  24
ENDBRANCH   1  18
TORSDOF 4
ENDMDL
MODEL 7
REMARK VINA RESULT:      -8.0      1.979      2.541
REMARK  4 active torsions:
REMARK  status: ('A' for Active; 'I' for Inactive)
REMARK    1  A    between atoms: C_2  and  C_3 
REMARK    2  A    between atoms: C_8  and  N_9 
REMARK       I    between atoms: N_9  and  C_10 
REMARK       I    between atoms: C_10  and  N_11 
REMARK    3  A    between atoms: N_11  and  C_12 
REMARK    4  A    between atoms: C_12  and  C_13 
ROOT
HETATM    1  N   UNL     1      39.030 -12.962   0.129  1.00  0.00    -0.305 N 
HETATM    2  C   UNL     1      39.830 -14.080   0.164  1.00  0.00     0.321 C 
HETATM    3  N   UNL     1      39.559 -14.844   1.277  1.00  0.00    -0.339 N 
HETATM    4  O   UNL     1      40.702 -14.369  -0.643  1.00  0.00    -0.247 OA
HETATM    5  H   UNL     1      38.649 -12.669   1.015  1.00  0.00     0.171 HD
HETATM    6  H   UNL     1      38.634 -14.768   1.668  1.00  0.00     0.164 HD
ENDROOT
BRANCH   3   7
HETATM    7  C   UNL     1      40.269 -16.079   1.542  1.00  0.00     0.163 C 
BRANCH   7   8
HETATM    8  C   UNL     1      41.119 -15.960   2.788  1.00  0.00    -0.029 A 
HETATM    9  C   UNL     1      42.168 -16.873   3.093  1.00  0.00    -0.018 A 
HETATM   10  C   UNL     1      42.907 -16.686   4.290  1.00  0.00    -0.025 A 
HETATM   11  C   UNL     1      42.528 -17.967   2.271  1.00  0.00     0.013 A 
HETATM   12  C   UNL     1      43.957 -17.561   4.615  1.00  0.00     0.012 A 
HETATM   13  C   UNL     1      42.590 -15.626   5.152  1.00  0.00     0.012 A 
HETATM   14  C   UNL     1      44.290 -18.625   3.780  1.00  0.00     0.001 A 
HETATM   15  C   UNL     1      43.574 -18.829   2.609  1.00  0.00     0.001 A 
HETATM   16  C   UNL     1      41.553 -14.747   4.854  1.00  0.00     0.002 A 
HETATM   17  C   UNL     1      40.822 -14.913   3.684  1.00  0.00     0.010 A 
ENDBRANCH   7   8
ENDBRANCH   3   7
BRANCH   1  18
HETATM   18  C   UNL     1      38.943 -12.056  -0.918  1.00  0.00     0.095 A 
HETATM   19  C   UNL     1      38.266 -12.320  -2.091  1.00  0.00     0.107 A 
HETATM   20  O   UNL     1      38.374 -11.255  -2.926  1.00  0.00    -0.215 OA
HETATM   21  N   UNL     1      39.130 -10.273  -2.329  1.00  0.00    -0.131 NA
HETATM   22  C   UNL     1      39.480 -10.752  -1.126  1.00  0.00     0.087 A 
HETATM   23  C   UNL     1      40.358  -9.920  -0.270  1.00  0.00     0.075 C 
BRANCH  19  24
HETATM   24  C   UNL     1      37.463 -13.455  -2.604  1.00  0.00     0.065 C 
HETATM   25  C   UNL     1      38.328 -14.476  -3.323  1.00  0.00     0.012 C 
ENDBRANCH  19  24
ENDBRANCH   1  18
TORSDOF 4
ENDMDL
MODEL 8
REMARK VINA RESULT:      -8.0      1.947      3.248
REMARK  4 active torsions:
REMARK  status: ('A' for Active; 'I' for Inactive)
REMARK    1  A    between atoms: C_2  and  C_3 
REMARK    2  A    between atoms: C_8  and  N_9 
REMARK       I    between atoms: N_9  and  C_10 
REMARK       I    between atoms: C_10  and  N_11 
REMARK    3  A    between atoms: N_11  and  C_12 
REMARK    4  A    between atoms: C_12  and  C_13 
ROOT
HETATM    1  N   UNL     1      41.269 -13.167  -0.620  1.00  0.00    -0.305 N 
HETATM    2  C   UNL     1      41.161 -13.241   0.749  1.00  0.00     0.321 C 
HETATM    3  N   UNL     1      42.251 -13.881   1.295  1.00  0.00    -0.339 N 
HETATM    4  O   UNL     1      40.223 -12.839   1.422  1.00  0.00    -0.247 OA
HETATM    5  H   UNL     1      41.878 -13.849  -1.048  1.00  0.00     0.171 HD
HETATM    6  H   UNL     1      43.112 -13.845   0.771  1.00  0.00     0.164 HD
ENDROOT
BRANCH   3   7
HETATM    7  C   UNL     1      42.376 -14.083   2.724  1.00  0.00     0.163 C 
BRANCH   7   8
HETATM    8  C   UNL     1      42.806 -15.500   3.036  1.00  0.00    -0.029 A 
HETATM    9  C   UNL     1      43.199 -15.914   4.341  1.00  0.00    -0.018 A 
HETATM   10  C   UNL     1      43.593 -17.262   4.537  1.00  0.00    -0.025 A 
HETATM   11  C   UNL     1      43.219 -15.060   5.469  1.00  0.00     0.013 A 
HETATM   12  C   UNL     1      43.974 -17.708   5.815  1.00  0.00     0.012 A 
HETATM   13  C   UNL     1      43.605 -18.155   3.456  1.00  0.00     0.012 A 
HETATM   14  C   UNL     1      43.977 -16.842   6.906  1.00  0.00     0.001 A 
HETATM   15  C   UNL     1      43.602 -15.518   6.733  1.00  0.00     0.001 A 
HETATM   16  C   UNL     1      43.234 -17.739   2.181  1.00  0.00     0.002 A 
HETATM   17  C   UNL     1      42.841 -16.422   1.972  1.00  0.00     0.010 A 
ENDBRANCH   7   8
ENDBRANCH   3   7
BRANCH   1  18
HETATM   18  C   UNL     1      40.421 -12.469  -1.467  1.00  0.00     0.095 A 
HETATM   19  C   UNL     1      39.342 -13.049  -2.101  1.00  0.00     0.107 A 
HETATM   20  O   UNL     1      38.718 -12.124  -2.874  1.00  0.00    -0.215 OA
HETATM   21  N   UNL     1      39.377 -10.920  -2.776  1.00  0.00    -0.131 NA
HETATM   22  C   UNL     1      40.404 -11.124  -1.937  1.00  0.00     0.087 A 
HETATM   23  C   UNL     1      41.334  -9.998  -1.683  1.00  0.00     0.075 C 
BRANCH  19  24
HETATM   24  C   UNL     1      38.729 -14.399  -2.102  1.00  0.00     0.065 C 
HETATM   25  C   UNL     1      38.291 -14.817  -3.495  1.00  0.00     0.012 C 
ENDBRANCH  19  24
ENDBRANCH   1  18
TORSDOF 4
ENDMDL
MODEL 9
REMARK VINA RESULT:      -7.9      5.391      6.845
REMARK  4 active torsions:
REMARK  status: ('A' for Active; 'I' for Inactive)
REMARK    1  A    between atoms: C_2  and  C_3 
REMARK    2  A    between atoms: C_8  and  N_9 
REMARK       I    between atoms: N_9  and  C_10 
REMARK       I    between atoms: C_10  and  N_11 
REMARK    3  A    between atoms: N_11  and  C_12 
REMARK    4  A    between atoms: C_12  and  C_13 
ROOT
HETATM    1  N   UNL     1      43.093 -11.190   7.928  1.00  0.00    -0.305 N 
HETATM    2  C   UNL     1      43.883 -12.143   7.330  1.00  0.00     0.321 C 
HETATM    3  N   UNL     1      43.207 -13.337   7.210  1.00  0.00    -0.339 N 
HETATM    4  O   UNL     1      45.043 -12.001   6.976  1.00  0.00    -0.247 OA
HETATM    5  H   UNL     1      42.332 -11.541   8.489  1.00  0.00     0.171 HD
HETATM    6  H   UNL     1      42.201 -13.289   7.164  1.00  0.00     0.164 HD
ENDROOT
BRANCH   3   7
HETATM    7  C   UNL     1      43.823 -14.502   6.608  1.00  0.00     0.163 C 
BRANCH   7   8
HETATM    8  C   UNL     1      43.163 -14.845   5.291  1.00  0.00    -0.029 A 
HETATM    9  C   UNL     1      43.379 -16.085   4.624  1.00  0.00    -0.018 A 
HETATM   10  C   UNL     1      42.722 -16.316   3.387  1.00  0.00    -0.025 A 
HETATM   11  C   UNL     1      44.213 -17.115   5.119  1.00  0.00     0.013 A 
HETATM   12  C   UNL     1      42.902 -17.533   2.709  1.00  0.00     0.012 A 
HETATM   13  C   UNL     1      41.891 -15.328   2.839  1.00  0.00     0.012 A 
HETATM   14  C   UNL     1      43.726 -18.529   3.227  1.00  0.00     0.001 A 
HETATM   15  C   UNL     1      44.383 -18.320   4.431  1.00  0.00     0.001 A 
HETATM   16  C   UNL     1      41.697 -14.114   3.490  1.00  0.00     0.002 A 
HETATM   17  C   UNL     1      42.330 -13.873   4.704  1.00  0.00     0.010 A 
ENDBRANCH   7   8
ENDBRANCH   3   7
BRANCH   1  18
HETATM   18  C   UNL     1      43.408  -9.847   8.075  1.00  0.00     0.095 A 
HETATM   19  C   UNL     1      42.742  -8.837   7.410  1.00  0.00     0.107 A 
HETATM   20  O   UNL     1      43.286  -7.639   7.742  1.00  0.00    -0.215 OA
HETATM   21  N   UNL     1      44.326  -7.831   8.621  1.00  0.00    -0.131 NA
HETATM   22  C   UNL     1      44.407  -9.155   8.819  1.00  0.00     0.087 A 
HETATM   23  C   UNL     1      45.491  -9.668   9.691  1.00  0.00     0.075 C 
BRANCH  19  24
HETATM   24  C   UNL     1      41.595  -8.781   6.472  1.00  0.00     0.065 C 
HETATM   25  C   UNL     1      40.269  -8.715   7.208  1.00  0.00     0.012 C 
ENDBRANCH  19  24
ENDBRANCH   1  18
TORSDOF 4
ENDMDL
MODEL 10
REMARK VINA RESULT:      -7.8      4.127      5.392
REMARK  4 active torsions:
REMARK  status: ('A' for Active; 'I' for Inactive)
REMARK    1  A    between atoms: C_2  and  C_3 
REMARK    2  A    between atoms: C_8  and  N_9 
REMARK       I    between atoms: N_9  and  C_10 
REMARK       I    between atoms: C_10  and  N_11 
REMARK    3  A    between atoms: N_11  and  C_12 
REMARK    4  A    between atoms: C_12  and  C_13 
ROOT
HETATM    1  N   UNL     1      43.820 -12.631   6.472  1.00  0.00    -0.305 N 
HETATM    2  C   UNL     1      43.143 -13.826   6.518  1.00  0.00     0.321 C 
HETATM    3  N   UNL     1      43.985 -14.879   6.239  1.00  0.00    -0.339 N 
HETATM    4  O   UNL     1      41.949 -13.972   6.735  1.00  0.00    -0.247 OA
HETATM    5  H   UNL     1      44.670 -12.629   5.929  1.00  0.00     0.171 HD
HETATM    6  H   UNL     1      44.964 -14.747   6.439  1.00  0.00     0.164 HD
ENDROOT
BRANCH   3   7
HETATM    7  C   UNL     1      43.512 -16.248   6.227  1.00  0.00     0.163 C 
BRANCH   7   8
HETATM    8  C   UNL     1      43.435 -16.784   4.814  1.00  0.00    -0.029 A 
HETATM    9  C   UNL     1      43.626 -18.160   4.502  1.00  0.00    -0.018 A 
HETATM   10  C   UNL     1      43.542 -18.569   3.146  1.00  0.00    -0.025 A 
HETATM   11  C   UNL     1      43.896 -19.160   5.466  1.00  0.00     0.013 A 
HETATM   12  C   UNL     1      43.712 -19.922   2.805  1.00  0.00     0.012 A 
HETATM   13  C   UNL     1      43.288 -17.623   2.143  1.00  0.00     0.012 A 
HETATM   14  C   UNL     1      43.971 -20.882   3.780  1.00  0.00     0.001 A 
HETATM   15  C   UNL     1      44.065 -20.500   5.111  1.00  0.00     0.001 A 
HETATM   16  C   UNL     1      43.117 -16.278   2.454  1.00  0.00     0.002 A 
HETATM   17  C   UNL     1      43.192 -15.861   3.777  1.00  0.00     0.010 A 
ENDBRANCH   7   8
ENDBRANCH   3   7
BRANCH   1  18
HETATM   18  C   UNL     1      43.312 -11.393   6.838  1.00  0.00     0.095 A 
HETATM   19  C   UNL     1      42.353 -10.724   6.104  1.00  0.00     0.107 A 
HETATM   20  O   UNL     1      42.072  -9.537   6.699  1.00  0.00    -0.215 OA
HETATM   21  N   UNL     1      42.844  -9.392   7.829  1.00  0.00    -0.131 NA
HETATM   22  C   UNL     1      43.595 -10.500   7.912  1.00  0.00     0.087 A 
HETATM   23  C   UNL     1      44.579 -10.598   9.016  1.00  0.00     0.075 C 
BRANCH  19  24
HETATM   24  C   UNL     1      41.580 -11.020   4.874  1.00  0.00     0.065 C 
HETATM   25  C   UNL     1      42.313 -10.560   3.626  1.00  0.00     0.012 C 
ENDBRANCH  19  24
ENDBRANCH   1  18
TORSDOF 4
ENDMDL
