MODEL 1
REMARK VINA RESULT:      -8.2      0.000      0.000
REMARK  8 active torsions:
REMARK  status: ('A' for Active; 'I' for Inactive)
REMARK    1  A    between atoms: O_1  and  C_2 
REMARK    2  A    between atoms: C_2  and  CA_3 
REMARK    3  A    between atoms: CA_3  and  N_4 
REMARK    4  A    between atoms: CA_3  and  C_23 
REMARK       I    between atoms: N_4  and  C_5 
REMARK    5  A    between atoms: C_5  and  C_7 
REMARK    6  A    between atoms: C_10  and  C_17 
REMARK    7  A    between atoms: C_11  and  O_12 
REMARK    8  A    between atoms: O_12  and  C_13 
ROOT
HETATM    1  C   UNL     1      42.319 -15.467   2.564  1.00  0.00     0.034 A 
HETATM    2  C   UNL     1      41.972 -16.635   1.881  1.00  0.00     0.018 A 
HETATM    3  C   UNL     1      42.434 -17.878   2.326  1.00  0.00     0.016 A 
HETATM    4  C   UNL     1      43.265 -17.977   3.453  1.00  0.00     0.011 A 
HETATM    5  C   UNL     1      43.645 -16.793   4.111  1.00  0.00     0.087 A 
HETATM    6  C   UNL     1      43.163 -15.548   3.678  1.00  0.00     0.054 A 
ENDROOT
BRANCH   1   7
HETATM    7  C   UNL     1      41.788 -14.165   2.065  1.00  0.00     0.252 C 
HETATM    8  N   UNL     1      40.544 -14.206   1.474  1.00  0.00    -0.346 N 
HETATM    9  H   UNL     1      40.234 -15.095   1.108  1.00  0.00     0.163 HD
HETATM   10  O   UNL     1      42.472 -13.153   2.162  1.00  0.00    -0.268 OA
BRANCH   8  11
HETATM   11  CA  UNL     1      39.934 -13.044   0.827  1.00  0.00     0.141 C 
BRANCH  11  12
HETATM   12  C   UNL     1      39.048 -12.242   1.807  1.00  0.00     0.194 C 
BRANCH  12  13
HETATM   13  O   UNL     1      38.407 -13.137   2.725  1.00  0.00    -0.399 OA
HETATM   14  H   UNL     1      39.016 -13.242   3.477  1.00  0.00     0.209 HD
ENDBRANCH  12  13
ENDBRANCH  11  12
BRANCH  11  15
HETATM   15  C   UNL     1      39.313 -13.406  -0.513  1.00  0.00    -0.033 A 
HETATM   16  C   UNL     1      39.607 -14.596  -1.194  1.00  0.00     0.009 A 
HETATM   17  C   UNL     1      39.000 -14.890  -2.418  1.00  0.00     0.001 A 
HETATM   18  C   UNL     1      38.102 -13.993  -2.989  1.00  0.00     0.000 A 
HETATM   19  C   UNL     1      37.812 -12.796  -2.339  1.00  0.00     0.001 A 
HETATM   20  C   UNL     1      38.414 -12.504  -1.113  1.00  0.00     0.009 A 
ENDBRANCH  11  15
ENDBRANCH   8  11
ENDBRANCH   1   7
BRANCH   5  21
HETATM   21  O   UNL     1      44.441 -16.867   5.227  1.00  0.00    -0.289 OA
BRANCH  21  22
HETATM   22  C   UNL     1      43.791 -16.368   6.390  1.00  0.00     0.505 C 
HETATM   23  F   UNL     1      42.623 -17.040   6.554  1.00  0.00    -0.184 F 
HETATM   24  F   UNL     1      44.569 -16.685   7.455  1.00  0.00    -0.184 F 
ENDBRANCH  21  22
ENDBRANCH   5  21
BRANCH   4  25
HETATM   25  C   UNL     1      43.712 -19.288   3.905  1.00  0.00     0.013 A 
HETATM   26  C   UNL     1      44.137 -19.742   5.176  1.00  0.00     0.152 A 
HETATM   27  N   UNL     1      44.465 -21.037   5.180  1.00  0.00    -0.187 NA
HETATM   28  N   UNL     1      44.251 -21.420   3.912  1.00  0.00    -0.289 N 
HETATM   29  H   UNL     1      44.434 -22.387   3.665  1.00  0.00     0.188 HD
HETATM   30  C   UNL     1      43.803 -20.411   3.108  1.00  0.00     0.123 A 
ENDBRANCH   4  25
TORSDOF 8
ENDMDL
MODEL 2
REMARK VINA RESULT:      -7.8      1.293      1.550
REMARK  8 active torsions:
REMARK  status: ('A' for Active; 'I' for Inactive)
REMARK    1  A    between atoms: O_1  and  C_2 
REMARK    2  A    between atoms: C_2  and  CA_3 
REMARK    3  A    between atoms: CA_3  and  N_4 
REMARK    4  A    between atoms: CA_3  and  C_23 
REMARK       I    between atoms: N_4  and  C_5 
REMARK    5  A    between atoms: C_5  and  C_7 
REMARK    6  A    between atoms: C_10  and  C_17 
REMARK    7  A    between atoms: C_11  and  O_12 
REMARK    8  A    between atoms: O_12  and  C_13 
ROOT
HETATM    1  C   UNL     1      42.883 -15.174   2.958  1.00  0.00     0.034 A 
HETATM    2  C   UNL     1      43.060 -16.171   1.994  1.00  0.00     0.018 A 
HETATM    3  C   UNL     1      43.355 -17.482   2.380  1.00  0.00     0.016 A 
HETATM    4  C   UNL     1      43.495 -17.822   3.734  1.00  0.00     0.011 A 
HETATM    5  C   UNL     1      43.357 -16.805   4.697  1.00  0.00     0.087 A 
HETATM    6  C   UNL     1      43.038 -15.495   4.312  1.00  0.00     0.054 A 
ENDROOT
BRANCH   1   7
HETATM    7  C   UNL     1      42.550 -13.794   2.502  1.00  0.00     0.252 C 
HETATM    8  N   UNL     1      41.355 -13.649   1.832  1.00  0.00    -0.346 N 
HETATM    9  H   UNL     1      40.967 -14.473   1.395  1.00  0.00     0.163 HD
HETATM   10  O   UNL     1      43.344 -12.881   2.702  1.00  0.00    -0.268 OA
BRANCH   8  11
HETATM   11  CA  UNL     1      40.939 -12.389   1.215  1.00  0.00     0.141 C 
BRANCH  11  12
HETATM   12  C   UNL     1      39.769 -11.735   1.984  1.00  0.00     0.194 C 
BRANCH  12  13
HETATM   13  O   UNL     1      38.561 -12.469   1.746  1.00  0.00    -0.399 OA
HETATM   14  H   UNL     1      38.481 -13.108   2.475  1.00  0.00     0.209 HD
ENDBRANCH  12  13
ENDBRANCH  11  12
BRANCH  11  15
HETATM   15  C   UNL     1      40.774 -12.524  -0.291  1.00  0.00    -0.033 A 
HETATM   16  C   UNL     1      41.046 -11.479  -1.185  1.00  0.00     0.009 A 
HETATM   17  C   UNL     1      40.890 -11.656  -2.563  1.00  0.00     0.001 A 
HETATM   18  C   UNL     1      40.447 -12.876  -3.067  1.00  0.00     0.000 A 
HETATM   19  C   UNL     1      40.152 -13.919  -2.194  1.00  0.00     0.001 A 
HETATM   20  C   UNL     1      40.312 -13.745  -0.818  1.00  0.00     0.009 A 
ENDBRANCH  11  15
ENDBRANCH   8  11
ENDBRANCH   1   7
BRANCH   5  21
HETATM   21  O   UNL     1      43.470 -17.119   6.029  1.00  0.00    -0.289 OA
BRANCH  21  22
HETATM   22  C   UNL     1      42.894 -16.126   6.870  1.00  0.00     0.505 C 
HETATM   23  F   UNL     1      41.592 -16.446   7.086  1.00  0.00    -0.184 F 
HETATM   24  F   UNL     1      43.514 -16.206   8.074  1.00  0.00    -0.184 F 
ENDBRANCH  21  22
ENDBRANCH   5  21
BRANCH   4  25
HETATM   25  C   UNL     1      43.780 -19.202   4.105  1.00  0.00     0.013 A 
HETATM   26  C   UNL     1      44.037 -19.796   5.363  1.00  0.00     0.152 A 
HETATM   27  N   UNL     1      44.251 -21.112   5.279  1.00  0.00    -0.187 NA
HETATM   28  N   UNL     1      44.132 -21.369   3.968  1.00  0.00    -0.289 N 
HETATM   29  H   UNL     1      44.255 -22.325   3.652  1.00  0.00     0.188 HD
HETATM   30  C   UNL     1      43.853 -20.260   3.221  1.00  0.00     0.123 A 
ENDBRANCH   4  25
TORSDOF 8
ENDMDL
MODEL 3
REMARK VINA RESULT:      -7.8      5.464      8.206
REMARK  8 active torsions:
REMARK  status: ('A' for Active; 'I' for Inactive)
REMARK    1  A    between atoms: O_1  and  C_2 
REMARK    2  A    between atoms: C_2  and  CA_3 
REMARK    3  A    between atoms: CA_3  and  N_4 
REMARK    4  A    between atoms: CA_3  and  C_23 
REMARK       I    between atoms: N_4  and  C_5 
REMARK    5  A    between atoms: C_5  and  C_7 
REMARK    6  A    between atoms: C_10  and  C_17 
REMARK    7  A    between atoms: C_11  and  O_12 
REMARK    8  A    between atoms: O_12  and  C_13 
ROOT
HETATM    1  C   UNL     1      43.024 -12.059   5.284  1.00  0.00     0.034 A 
HETATM    2  C   UNL     1      41.932 -11.244   5.595  1.00  0.00     0.018 A 
HETATM    3  C   UNL     1      41.974 -10.403   6.711  1.00  0.00     0.016 A 
HETATM    4  C   UNL     1      43.100 -10.371   7.549  1.00  0.00     0.011 A 
HETATM    5  C   UNL     1      44.178 -11.225   7.253  1.00  0.00     0.087 A 
HETATM    6  C   UNL     1      44.146 -12.051   6.121  1.00  0.00     0.054 A 
ENDROOT
BRANCH   1   7
HETATM    7  C   UNL     1      42.944 -12.926   4.073  1.00  0.00     0.252 C 
HETATM    8  N   UNL     1      42.190 -14.072   4.199  1.00  0.00    -0.346 N 
HETATM    9  H   UNL     1      42.041 -14.429   5.132  1.00  0.00     0.163 HD
HETATM   10  O   UNL     1      43.561 -12.614   3.061  1.00  0.00    -0.268 OA
BRANCH   8  11
HETATM   11  CA  UNL     1      42.108 -15.087   3.148  1.00  0.00     0.141 C 
BRANCH  11  12
HETATM   12  C   UNL     1      40.652 -15.310   2.679  1.00  0.00     0.194 C 
BRANCH  12  13
HETATM   13  O   UNL     1      39.763 -14.490   3.450  1.00  0.00    -0.399 OA
HETATM   14  H   UNL     1      39.635 -14.947   4.299  1.00  0.00     0.209 HD
ENDBRANCH  12  13
ENDBRANCH  11  12
BRANCH  11  15
HETATM   15  C   UNL     1      42.907 -16.332   3.501  1.00  0.00    -0.033 A 
HETATM   16  C   UNL     1      43.557 -16.496   4.733  1.00  0.00     0.009 A 
HETATM   17  C   UNL     1      44.270 -17.665   5.016  1.00  0.00     0.001 A 
HETATM   18  C   UNL     1      44.357 -18.680   4.067  1.00  0.00     0.000 A 
HETATM   19  C   UNL     1      43.736 -18.527   2.831  1.00  0.00     0.001 A 
HETATM   20  C   UNL     1      43.019 -17.362   2.549  1.00  0.00     0.009 A 
ENDBRANCH  11  15
ENDBRANCH   8  11
ENDBRANCH   1   7
BRANCH   5  21
HETATM   21  O   UNL     1      45.298 -11.195   8.048  1.00  0.00    -0.289 OA
BRANCH  21  22
HETATM   22  C   UNL     1      46.259 -10.251   7.594  1.00  0.00     0.505 C 
HETATM   23  F   UNL     1      46.484  -9.352   8.586  1.00  0.00    -0.184 F 
HETATM   24  F   UNL     1      47.426 -10.918   7.408  1.00  0.00    -0.184 F 
ENDBRANCH  21  22
ENDBRANCH   5  21
BRANCH   4  25
HETATM   25  C   UNL     1      43.121  -9.467   8.692  1.00  0.00     0.013 A 
HETATM   26  C   UNL     1      42.928  -9.706  10.073  1.00  0.00     0.152 A 
HETATM   27  N   UNL     1      43.033  -8.595  10.809  1.00  0.00    -0.187 NA
HETATM   28  N   UNL     1      43.295  -7.641   9.905  1.00  0.00    -0.289 N 
HETATM   29  H   UNL     1      43.419  -6.689  10.233  1.00  0.00     0.188 HD
HETATM   30  C   UNL     1      43.355  -8.109   8.623  1.00  0.00     0.123 A 
ENDBRANCH   4  25
TORSDOF 8
ENDMDL
MODEL 4
REMARK VINA RESULT:      -7.7      3.891      6.649
REMARK  8 active torsions:
REMARK  status: ('A' for Active; 'I' for Inactive)
REMARK    1  A    between atoms: O_1  and  C_2 
REMARK    2  A    between atoms: C_2  and  CA_3 
REMARK    3  A    between atoms: CA_3  and  N_4 
REMARK    4  A    between atoms: CA_3  and  C_23 
REMARK       I    between atoms: N_4  and  C_5 
REMARK    5  A    between atoms: C_5  and  C_7 
REMARK    6  A    between atoms: C_10  and  C_17 
REMARK    7  A    between atoms: C_11  and  O_12 
REMARK    8  A    between atoms: O_12  and  C_13 
ROOT
HETATM    1  C   UNL     1      43.204 -15.447   5.846  1.00  0.00     0.034 A 
HETATM    2  C   UNL     1      44.078 -16.423   6.334  1.00  0.00     0.018 A 
HETATM    3  C   UNL     1      44.237 -17.633   5.652  1.00  0.00     0.016 A 
HETATM    4  C   UNL     1      43.515 -17.901   4.478  1.00  0.00     0.011 A 
HETATM    5  C   UNL     1      42.606 -16.932   4.016  1.00  0.00     0.087 A 
HETATM    6  C   UNL     1      42.463 -15.708   4.687  1.00  0.00     0.054 A 
ENDROOT
BRANCH   1   7
HETATM    7  C   UNL     1      43.080 -14.163   6.595  1.00  0.00     0.252 C 
HETATM    8  N   UNL     1      42.731 -13.059   5.848  1.00  0.00    -0.346 N 
HETATM    9  H   UNL     1      42.917 -13.092   4.856  1.00  0.00     0.163 HD
HETATM   10  O   UNL     1      43.323 -14.135   7.795  1.00  0.00    -0.268 OA
BRANCH   8  11
HETATM   11  CA  UNL     1      42.685 -11.707   6.406  1.00  0.00     0.141 C 
BRANCH  11  12
HETATM   12  C   UNL     1      41.934 -10.729   5.474  1.00  0.00     0.194 C 
BRANCH  12  13
HETATM   13  O   UNL     1      40.998 -11.452   4.663  1.00  0.00    -0.399 OA
HETATM   14  H   UNL     1      41.414 -11.554   3.790  1.00  0.00     0.209 HD
ENDBRANCH  12  13
ENDBRANCH  11  12
BRANCH  11  15
HETATM   15  C   UNL     1      44.048 -11.257   6.910  1.00  0.00    -0.033 A 
HETATM   16  C   UNL     1      45.223 -11.397   6.157  1.00  0.00     0.009 A 
HETATM   17  C   UNL     1      46.451 -10.956   6.658  1.00  0.00     0.001 A 
HETATM   18  C   UNL     1      46.527 -10.384   7.925  1.00  0.00     0.000 A 
HETATM   19  C   UNL     1      45.374 -10.255   8.696  1.00  0.00     0.001 A 
HETATM   20  C   UNL     1      44.146 -10.690   8.193  1.00  0.00     0.009 A 
ENDBRANCH  11  15
ENDBRANCH   8  11
ENDBRANCH   1   7
BRANCH   5  21
HETATM   21  O   UNL     1      41.904 -17.164   2.859  1.00  0.00    -0.289 OA
BRANCH  21  22
HETATM   22  C   UNL     1      41.926 -16.047   1.979  1.00  0.00     0.505 C 
HETATM   23  F   UNL     1      42.942 -16.215   1.094  1.00  0.00    -0.184 F 
HETATM   24  F   UNL     1      40.779 -16.079   1.256  1.00  0.00    -0.184 F 
ENDBRANCH  21  22
ENDBRANCH   5  21
BRANCH   4  25
HETATM   25  C   UNL     1      43.720 -19.163   3.779  1.00  0.00     0.013 A 
HETATM   26  C   UNL     1      43.697 -19.479   2.400  1.00  0.00     0.152 A 
HETATM   27  N   UNL     1      43.941 -20.772   2.162  1.00  0.00    -0.187 NA
HETATM   28  N   UNL     1      44.124 -21.289   3.386  1.00  0.00    -0.289 N 
HETATM   29  H   UNL     1      44.328 -22.280   3.463  1.00  0.00     0.188 HD
HETATM   30  C   UNL     1      43.999 -20.369   4.388  1.00  0.00     0.123 A 
ENDBRANCH   4  25
TORSDOF 8
ENDMDL
MODEL 5
REMARK VINA RESULT:      -7.6      6.319      9.181
REMARK  8 active torsions:
REMARK  status: ('A' for Active; 'I' for Inactive)
REMARK    1  A    between atoms: O_1  and  C_2 
REMARK    2  A    between atoms: C_2  and  CA_3 
REMARK    3  A    between atoms: CA_3  and  N_4 
REMARK    4  A    between atoms: CA_3  and  C_23 
REMARK       I    between atoms: N_4  and  C_5 
REMARK    5  A    between atoms: C_5  and  C_7 
REMARK    6  A    between atoms: C_10  and  C_17 
REMARK    7  A    between atoms: C_11  and  O_12 
REMARK    8  A    between atoms: O_12  and  C_13 
ROOT
HETATM    1  C   UNL     1      43.996 -11.826   7.209  1.00  0.00     0.034 A 
HETATM    2  C   UNL     1      43.864 -11.061   6.047  1.00  0.00     0.018 A 
HETATM    3  C   UNL     1      43.384 -11.642   4.869  1.00  0.00     0.016 A 
HETATM    4  C   UNL     1      43.042 -13.003   4.822  1.00  0.00     0.011 A 
HETATM    5  C   UNL     1      43.217 -13.776   5.985  1.00  0.00     0.087 A 
HETATM    6  C   UNL     1      43.677 -13.189   7.172  1.00  0.00     0.054 A 
ENDROOT
BRANCH   1   7
HETATM    7  C   UNL     1      44.494 -11.161   8.447  1.00  0.00     0.252 C 
HETATM    8  N   UNL     1      43.531 -10.754   9.344  1.00  0.00    -0.346 N 
HETATM    9  H   UNL     1      42.598 -10.606   8.987  1.00  0.00     0.163 HD
HETATM   10  O   UNL     1      45.696 -10.974   8.595  1.00  0.00    -0.268 OA
BRANCH   8  11
HETATM   11  CA  UNL     1      43.843  -9.980  10.547  1.00  0.00     0.141 C 
BRANCH  11  12
HETATM   12  C   UNL     1      43.379 -10.706  11.830  1.00  0.00     0.194 C 
BRANCH  12  13
HETATM   13  O   UNL     1      43.901 -12.041  11.849  1.00  0.00    -0.399 OA
HETATM   14  H   UNL     1      43.715 -12.421  10.973  1.00  0.00     0.209 HD
ENDBRANCH  12  13
ENDBRANCH  11  12
BRANCH  11  15
HETATM   15  C   UNL     1      43.434  -8.523  10.403  1.00  0.00    -0.033 A 
HETATM   16  C   UNL     1      43.695  -7.768   9.250  1.00  0.00     0.009 A 
HETATM   17  C   UNL     1      43.288  -6.434   9.159  1.00  0.00     0.001 A 
HETATM   18  C   UNL     1      42.628  -5.829  10.225  1.00  0.00     0.000 A 
HETATM   19  C   UNL     1      42.377  -6.555  11.386  1.00  0.00     0.001 A 
HETATM   20  C   UNL     1      42.779  -7.890  11.475  1.00  0.00     0.009 A 
ENDBRANCH  11  15
ENDBRANCH   8  11
ENDBRANCH   1   7
BRANCH   5  21
HETATM   21  O   UNL     1      42.870 -15.105   5.968  1.00  0.00    -0.289 OA
BRANCH  21  22
HETATM   22  C   UNL     1      42.390 -15.555   7.229  1.00  0.00     0.505 C 
HETATM   23  F   UNL     1      41.111 -15.983   7.076  1.00  0.00    -0.184 F 
HETATM   24  F   UNL     1      43.121 -16.644   7.575  1.00  0.00    -0.184 F 
ENDBRANCH  21  22
ENDBRANCH   5  21
BRANCH   4  25
HETATM   25  C   UNL     1      42.524 -13.573   3.586  1.00  0.00     0.013 A 
HETATM   26  C   UNL     1      43.183 -14.180   2.491  1.00  0.00     0.152 A 
HETATM   27  N   UNL     1      42.337 -14.583   1.538  1.00  0.00    -0.187 NA
HETATM   28  N   UNL     1      41.133 -14.239   2.018  1.00  0.00    -0.289 N 
HETATM   29  H   UNL     1      40.314 -14.449   1.457  1.00  0.00     0.188 HD
HETATM   30  C   UNL     1      41.189 -13.628   3.239  1.00  0.00     0.123 A 
ENDBRANCH   4  25
TORSDOF 8
ENDMDL
MODEL 6
REMARK VINA RESULT:      -7.6      2.806      3.995
REMARK  8 active torsions:
REMARK  status: ('A' for Active; 'I' for Inactive)
REMARK    1  A    between atoms: O_1  and  C_2 
REMARK    2  A    between atoms: C_2  and  CA_3 
REMARK    3  A    between atoms: CA_3  and  N_4 
REMARK    4  A    between atoms: CA_3  and  C_23 
REMARK       I    between atoms: N_4  and  C_5 
REMARK    5  A    between atoms: C_5  and  C_7 
REMARK    6  A    between atoms: C_10  and  C_17 
REMARK    7  A    between atoms: C_11  and  O_12 
REMARK    8  A    between atoms: O_12  and  C_13 
ROOT
HETATM    1  C   UNL     1      40.998 -15.045   1.607  1.00  0.00     0.034 A 
HETATM    2  C   UNL     1      41.087 -14.092   2.625  1.00  0.00     0.018 A 
HETATM    3  C   UNL     1      41.637 -14.432   3.865  1.00  0.00     0.016 A 
HETATM    4  C   UNL     1      42.094 -15.734   4.120  1.00  0.00     0.011 A 
HETATM    5  C   UNL     1      41.962 -16.700   3.104  1.00  0.00     0.087 A 
HETATM    6  C   UNL     1      41.432 -16.354   1.853  1.00  0.00     0.054 A 
ENDROOT
BRANCH   1   7
HETATM    7  C   UNL     1      40.422 -14.634   0.294  1.00  0.00     0.252 C 
HETATM    8  N   UNL     1      40.841 -13.416  -0.195  1.00  0.00    -0.346 N 
HETATM    9  H   UNL     1      41.203 -12.749   0.471  1.00  0.00     0.163 HD
HETATM   10  O   UNL     1      39.599 -15.353  -0.259  1.00  0.00    -0.268 OA
BRANCH   8  11
HETATM   11  CA  UNL     1      40.283 -12.812  -1.406  1.00  0.00     0.141 C 
BRANCH  11  12
HETATM   12  C   UNL     1      41.382 -12.182  -2.290  1.00  0.00     0.194 C 
BRANCH  12  13
HETATM   13  O   UNL     1      41.665 -13.044  -3.401  1.00  0.00    -0.399 OA
HETATM   14  H   UNL     1      42.560 -13.394  -3.255  1.00  0.00     0.209 HD
ENDBRANCH  12  13
ENDBRANCH  11  12
BRANCH  11  15
HETATM   15  C   UNL     1      39.074 -11.942  -1.097  1.00  0.00    -0.033 A 
HETATM   16  C   UNL     1      38.091 -11.638  -2.050  1.00  0.00     0.009 A 
HETATM   17  C   UNL     1      36.990 -10.843  -1.715  1.00  0.00     0.001 A 
HETATM   18  C   UNL     1      36.864 -10.328  -0.427  1.00  0.00     0.000 A 
HETATM   19  C   UNL     1      37.840 -10.602   0.526  1.00  0.00     0.001 A 
HETATM   20  C   UNL     1      38.937 -11.400   0.194  1.00  0.00     0.009 A 
ENDBRANCH  11  15
ENDBRANCH   8  11
ENDBRANCH   1   7
BRANCH   5  21
HETATM   21  O   UNL     1      42.421 -17.975   3.324  1.00  0.00    -0.289 OA
BRANCH  21  22
HETATM   22  C   UNL     1      43.461 -18.339   2.425  1.00  0.00     0.505 C 
HETATM   23  F   UNL     1      44.576 -18.622   3.146  1.00  0.00    -0.184 F 
HETATM   24  F   UNL     1      43.089 -19.497   1.824  1.00  0.00    -0.184 F 
ENDBRANCH  21  22
ENDBRANCH   5  21
BRANCH   4  25
HETATM   25  C   UNL     1      42.682 -16.051   5.415  1.00  0.00     0.013 A 
HETATM   26  C   UNL     1      44.023 -16.296   5.795  1.00  0.00     0.152 A 
HETATM   27  N   UNL     1      44.151 -16.550   7.100  1.00  0.00    -0.187 NA
HETATM   28  N   UNL     1      42.896 -16.467   7.563  1.00  0.00    -0.289 N 
HETATM   29  H   UNL     1      42.737 -16.624   8.553  1.00  0.00     0.188 HD
HETATM   30  C   UNL     1      41.978 -16.173   6.595  1.00  0.00     0.123 A 
ENDBRANCH   4  25
TORSDOF 8
ENDMDL
MODEL 7
REMARK VINA RESULT:      -7.6      3.462      8.343
REMARK  8 active torsions:
REMARK  status: ('A' for Active; 'I' for Inactive)
REMARK    1  A    between atoms: O_1  and  C_2 
REMARK    2  A    between atoms: C_2  and  CA_3 
REMARK    3  A    between atoms: CA_3  and  N_4 
REMARK    4  A    between atoms: CA_3  and  C_23 
REMARK       I    between atoms: N_4  and  C_5 
REMARK    5  A    between atoms: C_5  and  C_7 
REMARK    6  A    between atoms: C_10  and  C_17 
REMARK    7  A    between atoms: C_11  and  O_12 
REMARK    8  A    between atoms: O_12  and  C_13 
ROOT
HETATM    1  C   UNL     1      40.669 -14.582   2.337  1.00  0.00     0.034 A 
HETATM    2  C   UNL     1      40.701 -15.273   1.122  1.00  0.00     0.018 A 
HETATM    3  C   UNL     1      40.221 -14.673  -0.046  1.00  0.00     0.016 A 
HETATM    4  C   UNL     1      39.683 -13.376  -0.022  1.00  0.00     0.011 A 
HETATM    5  C   UNL     1      39.614 -12.703   1.212  1.00  0.00     0.087 A 
HETATM    6  C   UNL     1      40.117 -13.296   2.379  1.00  0.00     0.054 A 
ENDROOT
BRANCH   1   7
HETATM    7  C   UNL     1      41.209 -15.254   3.553  1.00  0.00     0.252 C 
HETATM    8  N   UNL     1      42.348 -16.009   3.372  1.00  0.00    -0.346 N 
HETATM    9  H   UNL     1      42.538 -16.343   2.438  1.00  0.00     0.163 HD
HETATM   10  O   UNL     1      40.618 -15.143   4.621  1.00  0.00    -0.268 OA
BRANCH   8  11
HETATM   11  CA  UNL     1      42.935 -16.828   4.434  1.00  0.00     0.141 C 
BRANCH  11  12
HETATM   12  C   UNL     1      44.037 -16.064   5.202  1.00  0.00     0.194 C 
BRANCH  12  13
HETATM   13  O   UNL     1      43.576 -15.742   6.521  1.00  0.00    -0.399 OA
HETATM   14  H   UNL     1      43.360 -16.587   6.950  1.00  0.00     0.209 HD
ENDBRANCH  12  13
ENDBRANCH  11  12
BRANCH  11  15
HETATM   15  C   UNL     1      43.289 -18.222   3.942  1.00  0.00    -0.033 A 
HETATM   16  C   UNL     1      43.848 -19.204   4.772  1.00  0.00     0.009 A 
HETATM   17  C   UNL     1      44.145 -20.477   4.276  1.00  0.00     0.001 A 
HETATM   18  C   UNL     1      43.902 -20.783   2.940  1.00  0.00     0.000 A 
HETATM   19  C   UNL     1      43.365 -19.815   2.095  1.00  0.00     0.001 A 
HETATM   20  C   UNL     1      43.063 -18.545   2.591  1.00  0.00     0.009 A 
ENDBRANCH  11  15
ENDBRANCH   8  11
ENDBRANCH   1   7
BRANCH   5  21
HETATM   21  O   UNL     1      39.110 -11.426   1.255  1.00  0.00    -0.289 OA
BRANCH  21  22
HETATM   22  C   UNL     1      37.941 -11.333   2.059  1.00  0.00     0.505 C 
HETATM   23  F   UNL     1      37.895 -10.094   2.612  1.00  0.00    -0.184 F 
HETATM   24  F   UNL     1      36.871 -11.422   1.229  1.00  0.00    -0.184 F 
ENDBRANCH  21  22
ENDBRANCH   5  21
BRANCH   4  25
HETATM   25  C   UNL     1      39.211 -12.770  -1.260  1.00  0.00     0.013 A 
HETATM   26  C   UNL     1      39.848 -11.895  -2.172  1.00  0.00     0.152 A 
HETATM   27  N   UNL     1      39.065 -11.565  -3.204  1.00  0.00    -0.187 NA
HETATM   28  N   UNL     1      37.925 -12.227  -2.959  1.00  0.00    -0.289 N 
HETATM   29  H   UNL     1      37.162 -12.131  -3.622  1.00  0.00     0.188 HD
HETATM   30  C   UNL     1      37.959 -12.961  -1.808  1.00  0.00     0.123 A 
ENDBRANCH   4  25
TORSDOF 8
ENDMDL
MODEL 8
REMARK VINA RESULT:      -7.4      5.058      7.920
REMARK  8 active torsions:
REMARK  status: ('A' for Active; 'I' for Inactive)
REMARK    1  A    between atoms: O_1  and  C_2 
REMARK    2  A    between atoms: C_2  and  CA_3 
REMARK    3  A    between atoms: CA_3  and  N_4 
REMARK    4  A    between atoms: CA_3  and  C_23 
REMARK       I    between atoms: N_4  and  C_5 
REMARK    5  A    between atoms: C_5  and  C_7 
REMARK    6  A    between atoms: C_10  and  C_17 
REMARK    7  A    between atoms: C_11  and  O_12 
REMARK    8  A    between atoms: O_12  and  C_13 
ROOT
HETATM    1  C   UNL     1      43.362 -13.245   6.115  1.00  0.00     0.034 A 
HETATM    2  C   UNL     1      44.121 -14.133   6.883  1.00  0.00     0.018 A 
HETATM    3  C   UNL     1      44.218 -15.479   6.516  1.00  0.00     0.016 A 
HETATM    4  C   UNL     1      43.547 -15.969   5.385  1.00  0.00     0.011 A 
HETATM    5  C   UNL     1      42.751 -15.079   4.641  1.00  0.00     0.087 A 
HETATM    6  C   UNL     1      42.672 -13.724   4.995  1.00  0.00     0.054 A 
ENDROOT
BRANCH   1   7
HETATM    7  C   UNL     1      43.301 -11.814   6.533  1.00  0.00     0.252 C 
HETATM    8  N   UNL     1      44.323 -11.378   7.348  1.00  0.00    -0.346 N 
HETATM    9  H   UNL     1      44.823 -12.078   7.878  1.00  0.00     0.163 HD
HETATM   10  O   UNL     1      42.358 -11.118   6.178  1.00  0.00    -0.268 OA
BRANCH   8  11
HETATM   11  CA  UNL     1      44.349 -10.042   7.943  1.00  0.00     0.141 C 
BRANCH  11  12
HETATM   12  C   UNL     1      45.763  -9.420   7.894  1.00  0.00     0.194 C 
BRANCH  12  13
HETATM   13  O   UNL     1      46.693 -10.372   7.360  1.00  0.00    -0.399 OA
HETATM   14  H   UNL     1      47.393 -10.475   8.028  1.00  0.00     0.209 HD
ENDBRANCH  12  13
ENDBRANCH  11  12
BRANCH  11  15
HETATM   15  C   UNL     1      43.636 -10.007   9.285  1.00  0.00    -0.033 A 
HETATM   16  C   UNL     1      44.182 -10.559  10.453  1.00  0.00     0.009 A 
HETATM   17  C   UNL     1      43.493 -10.492  11.668  1.00  0.00     0.001 A 
HETATM   18  C   UNL     1      42.242  -9.886  11.731  1.00  0.00     0.000 A 
HETATM   19  C   UNL     1      41.673  -9.350  10.578  1.00  0.00     0.001 A 
HETATM   20  C   UNL     1      42.363  -9.412   9.366  1.00  0.00     0.009 A 
ENDBRANCH  11  15
ENDBRANCH   8  11
ENDBRANCH   1   7
BRANCH   5  21
HETATM   21  O   UNL     1      42.102 -15.532   3.519  1.00  0.00    -0.289 OA
BRANCH  21  22
HETATM   22  C   UNL     1      40.693 -15.601   3.700  1.00  0.00     0.505 C 
HETATM   23  F   UNL     1      40.137 -16.107   2.569  1.00  0.00    -0.184 F 
HETATM   24  F   UNL     1      40.454 -16.504   4.683  1.00  0.00    -0.184 F 
ENDBRANCH  21  22
ENDBRANCH   5  21
BRANCH   4  25
HETATM   25  C   UNL     1      43.687 -17.372   5.017  1.00  0.00     0.013 A 
HETATM   26  C   UNL     1      43.923 -17.988   3.765  1.00  0.00     0.152 A 
HETATM   27  N   UNL     1      43.991 -19.320   3.850  1.00  0.00    -0.187 NA
HETATM   28  N   UNL     1      43.801 -19.564   5.155  1.00  0.00    -0.289 N 
HETATM   29  H   UNL     1      43.811 -20.528   5.470  1.00  0.00     0.188 HD
HETATM   30  C   UNL     1      43.611 -18.432   5.897  1.00  0.00     0.123 A 
ENDBRANCH   4  25
TORSDOF 8
ENDMDL
MODEL 9
REMARK VINA RESULT:      -7.4      5.747      8.804
REMARK  8 active torsions:
REMARK  status: ('A' for Active; 'I' for Inactive)
REMARK    1  A    between atoms: O_1  and  C_2 
REMARK    2  A    between atoms: C_2  and  CA_3 
REMARK    3  A    between atoms: CA_3  and  N_4 
REMARK    4  A    between atoms: CA_3  and  C_23 
REMARK       I    between atoms: N_4  and  C_5 
REMARK    5  A    between atoms: C_5  and  C_7 
REMARK    6  A    between atoms: C_10  and  C_17 
REMARK    7  A    between atoms: C_11  and  O_12 
REMARK    8  A    between atoms: O_12  and  C_13 
ROOT
HETATM    1  C   UNL     1      43.607 -12.021   6.321  1.00  0.00     0.034 A 
HETATM    2  C   UNL     1      43.788 -11.453   5.058  1.00  0.00     0.018 A 
HETATM    3  C   UNL     1      43.433 -12.162   3.906  1.00  0.00     0.016 A 
HETATM    4  C   UNL     1      42.905 -13.460   3.991  1.00  0.00     0.011 A 
HETATM    5  C   UNL     1      42.764 -14.042   5.264  1.00  0.00     0.087 A 
HETATM    6  C   UNL     1      43.099 -13.322   6.421  1.00  0.00     0.054 A 
ENDROOT
BRANCH   1   7
HETATM    7  C   UNL     1      43.981 -11.222   7.523  1.00  0.00     0.252 C 
HETATM    8  N   UNL     1      43.934  -9.852   7.377  1.00  0.00    -0.346 N 
HETATM    9  H   UNL     1      43.997  -9.484   6.439  1.00  0.00     0.163 HD
HETATM   10  O   UNL     1      44.341 -11.794   8.545  1.00  0.00    -0.268 OA
BRANCH   8  11
HETATM   11  CA  UNL     1      44.385  -8.927   8.417  1.00  0.00     0.141 C 
BRANCH  11  12
HETATM   12  C   UNL     1      45.909  -9.030   8.652  1.00  0.00     0.194 C 
BRANCH  12  13
HETATM   13  O   UNL     1      46.610  -8.696   7.446  1.00  0.00    -0.399 OA
HETATM   14  H   UNL     1      46.759  -7.735   7.473  1.00  0.00     0.209 HD
ENDBRANCH  12  13
ENDBRANCH  11  12
BRANCH  11  15
HETATM   15  C   UNL     1      43.500  -8.991   9.652  1.00  0.00    -0.033 A 
HETATM   16  C   UNL     1      42.099  -8.966   9.588  1.00  0.00     0.009 A 
HETATM   17  C   UNL     1      41.328  -9.040  10.752  1.00  0.00     0.001 A 
HETATM   18  C   UNL     1      41.944  -9.124  11.997  1.00  0.00     0.000 A 
HETATM   19  C   UNL     1      43.333  -9.129  12.083  1.00  0.00     0.001 A 
HETATM   20  C   UNL     1      44.105  -9.061  10.921  1.00  0.00     0.009 A 
ENDBRANCH  11  15
ENDBRANCH   8  11
ENDBRANCH   1   7
BRANCH   5  21
HETATM   21  O   UNL     1      42.230 -15.302   5.373  1.00  0.00    -0.289 OA
BRANCH  21  22
HETATM   22  C   UNL     1      40.954 -15.298   6.001  1.00  0.00     0.505 C 
HETATM   23  F   UNL     1      40.189 -14.340   5.417  1.00  0.00    -0.184 F 
HETATM   24  F   UNL     1      40.362 -16.486   5.721  1.00  0.00    -0.184 F 
ENDBRANCH  21  22
ENDBRANCH   5  21
BRANCH   4  25
HETATM   25  C   UNL     1      42.524 -14.163   2.774  1.00  0.00     0.013 A 
HETATM   26  C   UNL     1      41.277 -14.277   2.114  1.00  0.00     0.152 A 
HETATM   27  N   UNL     1      41.346 -15.020   1.005  1.00  0.00    -0.187 NA
HETATM   28  N   UNL     1      42.636 -15.383   0.947  1.00  0.00    -0.289 N 
HETATM   29  H   UNL     1      42.937 -15.965   0.173  1.00  0.00     0.188 HD
HETATM   30  C   UNL     1      43.383 -14.900   1.984  1.00  0.00     0.123 A 
ENDBRANCH   4  25
TORSDOF 8
ENDMDL
MODEL 10
REMARK VINA RESULT:      -7.3      4.667      7.080
REMARK  8 active torsions:
REMARK  status: ('A' for Active; 'I' for Inactive)
REMARK    1  A    between atoms: O_1  and  C_2 
REMARK    2  A    between atoms: C_2  and  CA_3 
REMARK    3  A    between atoms: CA_3  and  N_4 
REMARK    4  A    between atoms: CA_3  and  C_23 
REMARK       I    between atoms: N_4  and  C_5 
REMARK    5  A    between atoms: C_5  and  C_7 
REMARK    6  A    between atoms: C_10  and  C_17 
REMARK    7  A    between atoms: C_11  and  O_12 
REMARK    8  A    between atoms: O_12  and  C_13 
ROOT
HETATM    1  C   UNL     1      41.955 -13.968   5.377  1.00  0.00     0.034 A 
HETATM    2  C   UNL     1      43.116 -14.540   5.902  1.00  0.00     0.018 A 
HETATM    3  C   UNL     1      43.569 -15.778   5.434  1.00  0.00     0.016 A 
HETATM    4  C   UNL     1      42.861 -16.477   4.444  1.00  0.00     0.011 A 
HETATM    5  C   UNL     1      41.669 -15.914   3.950  1.00  0.00     0.087 A 
HETATM    6  C   UNL     1      41.228 -14.662   4.402  1.00  0.00     0.054 A 
ENDROOT
BRANCH   1   7
HETATM    7  C   UNL     1      41.520 -12.637   5.892  1.00  0.00     0.252 C 
HETATM    8  N   UNL     1      42.512 -11.691   6.035  1.00  0.00    -0.346 N 
HETATM    9  H   UNL     1      43.461 -12.024   6.125  1.00  0.00     0.163 HD
HETATM   10  O   UNL     1      40.347 -12.457   6.194  1.00  0.00    -0.268 OA
BRANCH   8  11
HETATM   11  CA  UNL     1      42.275 -10.379   6.640  1.00  0.00     0.141 C 
BRANCH  11  12
HETATM   12  C   UNL     1      41.737  -9.362   5.608  1.00  0.00     0.194 C 
BRANCH  12  13
HETATM   13  O   UNL     1      40.307  -9.445   5.545  1.00  0.00    -0.399 OA
HETATM   14  H   UNL     1      40.034  -8.897   4.789  1.00  0.00     0.209 HD
ENDBRANCH  12  13
ENDBRANCH  11  12
BRANCH  11  15
HETATM   15  C   UNL     1      43.452  -9.929   7.490  1.00  0.00    -0.033 A 
HETATM   16  C   UNL     1      43.532  -8.653   8.067  1.00  0.00     0.009 A 
HETATM   17  C   UNL     1      44.630  -8.290   8.853  1.00  0.00     0.001 A 
HETATM   18  C   UNL     1      45.672  -9.190   9.060  1.00  0.00     0.000 A 
HETATM   19  C   UNL     1      45.621 -10.453   8.479  1.00  0.00     0.001 A 
HETATM   20  C   UNL     1      44.522 -10.819   7.699  1.00  0.00     0.009 A 
ENDBRANCH  11  15
ENDBRANCH   8  11
ENDBRANCH   1   7
BRANCH   5  21
HETATM   21  O   UNL     1      40.971 -16.571   2.966  1.00  0.00    -0.289 OA
BRANCH  21  22
HETATM   22  C   UNL     1      40.654 -15.724   1.869  1.00  0.00     0.505 C 
HETATM   23  F   UNL     1      41.748 -15.622   1.072  1.00  0.00    -0.184 F 
HETATM   24  F   UNL     1      39.702 -16.352   1.135  1.00  0.00    -0.184 F 
ENDBRANCH  21  22
ENDBRANCH   5  21
BRANCH   4  25
HETATM   25  C   UNL     1      43.370 -17.754   3.961  1.00  0.00     0.013 A 
HETATM   26  C   UNL     1      43.825 -18.899   4.657  1.00  0.00     0.152 A 
HETATM   27  N   UNL     1      44.213 -19.881   3.838  1.00  0.00    -0.187 NA
HETATM   28  N   UNL     1      44.006 -19.372   2.614  1.00  0.00    -0.289 N 
HETATM   29  H   UNL     1      44.231 -19.948   1.810  1.00  0.00     0.188 HD
HETATM   30  C   UNL     1      43.505 -18.101   2.633  1.00  0.00     0.123 A 
ENDBRANCH   4  25
TORSDOF 8
ENDMDL
