MODEL 1
REMARK VINA RESULT:      -8.2      0.000      0.000
REMARK  6 active torsions:
REMARK  status: ('A' for Active; 'I' for Inactive)
REMARK    1  A    between atoms: C_2  and  C_3 
REMARK    2  A    between atoms: C_7  and  C_8 
REMARK       I    between atoms: C_8  and  N_9 
REMARK    3  A    between atoms: N_9  and  C_10 
REMARK    4  A    between atoms: C_10  and  C_11 
REMARK    5  A    between atoms: C_10  and  C_19 
REMARK    6  A    between atoms: C_14  and  O_15 
ROOT
HETATM    1  C   UNL     1      41.870 -15.456   4.166  1.00  0.00     0.151 C 
ENDROOT
BRANCH   1   2
HETATM    2  N   UNL     1      42.596 -14.349   4.761  1.00  0.00    -0.343 N 
HETATM    3  C   UNL     1      42.154 -13.702   5.884  1.00  0.00     0.270 C 
HETATM    4  O   UNL     1      41.098 -13.978   6.446  1.00  0.00    -0.266 OA
HETATM    5  H   UNL     1      43.341 -13.939   4.220  1.00  0.00     0.163 HD
BRANCH   3   6
HETATM    6  C   UNL     1      43.038 -12.683   6.380  1.00  0.00     0.119 A 
HETATM    7  N   UNL     1      42.566 -11.515   6.916  1.00  0.00    -0.273 N 
HETATM    8  N   UNL     1      43.523 -10.702   7.394  1.00  0.00    -0.179 NA
HETATM    9  H   UNL     1      41.594 -11.233   6.997  1.00  0.00     0.189 HD
HETATM   10  C   UNL     1      44.657 -11.372   7.167  1.00  0.00     0.056 A 
HETATM   11  C   UNL     1      44.412 -12.603   6.512  1.00  0.00     0.065 A 
BRANCH  10  12
HETATM   12  C   UNL     1      45.968 -10.821   7.616  1.00  0.00     0.056 C 
HETATM   13  C   UNL     1      45.821  -9.448   8.257  1.00  0.00     0.011 C 
ENDBRANCH  10  12
ENDBRANCH   3   6
ENDBRANCH   1   2
BRANCH   1  14
HETATM   14  C   UNL     1      41.363 -15.032   2.790  1.00  0.00    -0.031 A 
HETATM   15  C   UNL     1      41.889 -13.916   2.122  1.00  0.00     0.012 A 
HETATM   16  C   UNL     1      41.429 -13.571   0.848  1.00  0.00     0.037 A 
HETATM   17  C   UNL     1      40.435 -14.324   0.219  1.00  0.00     0.068 A 
HETATM   18  C   UNL     1      39.884 -15.417   0.888  1.00  0.00     0.037 A 
HETATM   19  C   UNL     1      40.341 -15.764   2.165  1.00  0.00     0.012 A 
BRANCH  17  20
HETATM   20  O   UNL     1      40.090 -13.891  -1.031  1.00  0.00    -0.356 OA
HETATM   21  C   UNL     1      39.147 -14.681  -1.744  1.00  0.00     0.210 C 
ENDBRANCH  17  20
ENDBRANCH   1  14
BRANCH   1  22
HETATM   22  C   UNL     1      42.700 -16.746   4.157  1.00  0.00    -0.031 A 
HETATM   23  C   UNL     1      43.134 -17.344   2.960  1.00  0.00     0.009 A 
HETATM   24  C   UNL     1      43.917 -18.504   2.975  1.00  0.00     0.001 A 
HETATM   25  C   UNL     1      44.297 -19.074   4.185  1.00  0.00     0.000 A 
HETATM   26  C   UNL     1      43.909 -18.480   5.383  1.00  0.00     0.001 A 
HETATM   27  C   UNL     1      43.126 -17.322   5.369  1.00  0.00     0.009 A 
ENDBRANCH   1  22
TORSDOF 6
ENDMDL
MODEL 2
REMARK VINA RESULT:      -8.1      2.729      7.276
REMARK  6 active torsions:
REMARK  status: ('A' for Active; 'I' for Inactive)
REMARK    1  A    between atoms: C_2  and  C_3 
REMARK    2  A    between atoms: C_7  and  C_8 
REMARK       I    between atoms: C_8  and  N_9 
REMARK    3  A    between atoms: N_9  and  C_10 
REMARK    4  A    between atoms: C_10  and  C_11 
REMARK    5  A    between atoms: C_10  and  C_19 
REMARK    6  A    between atoms: C_14  and  O_15 
ROOT
HETATM    1  C   UNL     1      41.896 -14.861   3.974  1.00  0.00     0.151 C 
ENDROOT
BRANCH   1   2
HETATM    2  N   UNL     1      41.358 -14.708   2.634  1.00  0.00    -0.343 N 
HETATM    3  C   UNL     1      40.192 -14.032   2.386  1.00  0.00     0.270 C 
HETATM    4  O   UNL     1      39.496 -13.545   3.272  1.00  0.00    -0.266 OA
HETATM    5  H   UNL     1      41.763 -15.273   1.905  1.00  0.00     0.163 HD
BRANCH   3   6
HETATM    6  C   UNL     1      39.851 -13.910   0.994  1.00  0.00     0.119 A 
HETATM    7  N   UNL     1      39.039 -12.909   0.536  1.00  0.00    -0.273 N 
HETATM    8  N   UNL     1      38.878 -12.899  -0.798  1.00  0.00    -0.179 NA
HETATM    9  H   UNL     1      38.584 -12.192   1.093  1.00  0.00     0.189 HD
HETATM   10  C   UNL     1      39.620 -13.927  -1.220  1.00  0.00     0.056 A 
HETATM   11  C   UNL     1      40.228 -14.608  -0.138  1.00  0.00     0.065 A 
BRANCH  10  12
HETATM   12  C   UNL     1      39.755 -14.220  -2.676  1.00  0.00     0.056 C 
HETATM   13  C   UNL     1      38.428 -14.619  -3.305  1.00  0.00     0.011 C 
ENDBRANCH  10  12
ENDBRANCH   3   6
ENDBRANCH   1   2
BRANCH   1  14
HETATM   14  C   UNL     1      42.639 -16.192   4.058  1.00  0.00    -0.031 A 
HETATM   15  C   UNL     1      42.940 -16.793   5.289  1.00  0.00     0.012 A 
HETATM   16  C   UNL     1      43.591 -18.029   5.334  1.00  0.00     0.037 A 
HETATM   17  C   UNL     1      43.958 -18.686   4.158  1.00  0.00     0.068 A 
HETATM   18  C   UNL     1      43.691 -18.083   2.930  1.00  0.00     0.037 A 
HETATM   19  C   UNL     1      43.041 -16.844   2.881  1.00  0.00     0.012 A 
BRANCH  17  20
HETATM   20  O   UNL     1      44.570 -19.895   4.343  1.00  0.00    -0.356 OA
HETATM   21  C   UNL     1      44.034 -20.733   5.359  1.00  0.00     0.210 C 
ENDBRANCH  17  20
ENDBRANCH   1  14
BRANCH   1  22
HETATM   22  C   UNL     1      42.735 -13.648   4.396  1.00  0.00    -0.031 A 
HETATM   23  C   UNL     1      43.081 -13.413   5.738  1.00  0.00     0.009 A 
HETATM   24  C   UNL     1      43.873 -12.318   6.099  1.00  0.00     0.001 A 
HETATM   25  C   UNL     1      44.351 -11.450   5.122  1.00  0.00     0.000 A 
HETATM   26  C   UNL     1      44.051 -11.683   3.782  1.00  0.00     0.001 A 
HETATM   27  C   UNL     1      43.259 -12.776   3.422  1.00  0.00     0.009 A 
ENDBRANCH   1  22
TORSDOF 6
ENDMDL
MODEL 3
REMARK VINA RESULT:      -7.7      2.541      4.832
REMARK  6 active torsions:
REMARK  status: ('A' for Active; 'I' for Inactive)
REMARK    1  A    between atoms: C_2  and  C_3 
REMARK    2  A    between atoms: C_7  and  C_8 
REMARK       I    between atoms: C_8  and  N_9 
REMARK    3  A    between atoms: N_9  and  C_10 
REMARK    4  A    between atoms: C_10  and  C_11 
REMARK    5  A    between atoms: C_10  and  C_19 
REMARK    6  A    between atoms: C_14  and  O_15 
ROOT
HETATM    1  C   UNL     1      42.886 -13.597   3.103  1.00  0.00     0.151 C 
ENDROOT
BRANCH   1   2
HETATM    2  N   UNL     1      43.189 -13.064   4.419  1.00  0.00    -0.343 N 
HETATM    3  C   UNL     1      43.849 -11.876   4.594  1.00  0.00     0.270 C 
HETATM    4  O   UNL     1      44.269 -11.197   3.661  1.00  0.00    -0.266 OA
HETATM    5  H   UNL     1      43.071 -13.680   5.207  1.00  0.00     0.163 HD
BRANCH   3   6
HETATM    6  C   UNL     1      43.993 -11.464   5.964  1.00  0.00     0.119 A 
HETATM    7  N   UNL     1      44.999 -11.941   6.760  1.00  0.00    -0.273 N 
HETATM    8  N   UNL     1      45.030 -11.402   7.989  1.00  0.00    -0.179 NA
HETATM    9  H   UNL     1      45.705 -12.624   6.503  1.00  0.00     0.189 HD
HETATM   10  C   UNL     1      44.010 -10.537   7.988  1.00  0.00     0.056 A 
HETATM   11  C   UNL     1      43.315 -10.556   6.756  1.00  0.00     0.065 A 
BRANCH  10  12
HETATM   12  C   UNL     1      43.742  -9.678   9.177  1.00  0.00     0.056 C 
HETATM   13  C   UNL     1      44.935  -9.616  10.119  1.00  0.00     0.011 C 
ENDBRANCH  10  12
ENDBRANCH   3   6
ENDBRANCH   1   2
BRANCH   1  14
HETATM   14  C   UNL     1      43.096 -15.109   3.122  1.00  0.00    -0.031 A 
HETATM   15  C   UNL     1      43.258 -15.816   4.323  1.00  0.00     0.012 A 
HETATM   16  C   UNL     1      43.415 -17.205   4.312  1.00  0.00     0.037 A 
HETATM   17  C   UNL     1      43.419 -17.914   3.109  1.00  0.00     0.068 A 
HETATM   18  C   UNL     1      43.290 -17.216   1.909  1.00  0.00     0.037 A 
HETATM   19  C   UNL     1      43.135 -15.826   1.915  1.00  0.00     0.012 A 
BRANCH  17  20
HETATM   20  O   UNL     1      43.561 -19.268   3.241  1.00  0.00    -0.356 OA
HETATM   21  C   UNL     1      43.357 -20.048   2.070  1.00  0.00     0.210 C 
ENDBRANCH  17  20
ENDBRANCH   1  14
BRANCH   1  22
HETATM   22  C   UNL     1      41.498 -13.164   2.615  1.00  0.00    -0.031 A 
HETATM   23  C   UNL     1      40.346 -13.328   3.406  1.00  0.00     0.009 A 
HETATM   24  C   UNL     1      39.094 -12.898   2.956  1.00  0.00     0.001 A 
HETATM   25  C   UNL     1      38.973 -12.278   1.717  1.00  0.00     0.000 A 
HETATM   26  C   UNL     1      40.104 -12.073   0.931  1.00  0.00     0.001 A 
HETATM   27  C   UNL     1      41.355 -12.503   1.380  1.00  0.00     0.009 A 
ENDBRANCH   1  22
TORSDOF 6
ENDMDL
MODEL 4
REMARK VINA RESULT:      -7.3      4.370      7.342
REMARK  6 active torsions:
REMARK  status: ('A' for Active; 'I' for Inactive)
REMARK    1  A    between atoms: C_2  and  C_3 
REMARK    2  A    between atoms: C_7  and  C_8 
REMARK       I    between atoms: C_8  and  N_9 
REMARK    3  A    between atoms: N_9  and  C_10 
REMARK    4  A    between atoms: C_10  and  C_11 
REMARK    5  A    between atoms: C_10  and  C_19 
REMARK    6  A    between atoms: C_14  and  O_15 
ROOT
HETATM    1  C   UNL     1      39.707 -12.869   0.120  1.00  0.00     0.151 C 
ENDROOT
BRANCH   1   2
HETATM    2  N   UNL     1      40.687 -13.842   0.567  1.00  0.00    -0.343 N 
HETATM    3  C   UNL     1      40.501 -14.606   1.689  1.00  0.00     0.270 C 
HETATM    4  O   UNL     1      39.521 -14.499   2.420  1.00  0.00    -0.266 OA
HETATM    5  H   UNL     1      41.598 -13.813   0.139  1.00  0.00     0.163 HD
BRANCH   3   6
HETATM    6  C   UNL     1      41.536 -15.573   1.937  1.00  0.00     0.119 A 
HETATM    7  N   UNL     1      42.736 -15.531   1.280  1.00  0.00    -0.273 N 
HETATM    8  N   UNL     1      43.614 -16.465   1.679  1.00  0.00    -0.179 NA
HETATM    9  H   UNL     1      43.012 -14.868   0.561  1.00  0.00     0.189 HD
HETATM   10  C   UNL     1      42.963 -17.133   2.636  1.00  0.00     0.056 A 
HETATM   11  C   UNL     1      41.651 -16.632   2.818  1.00  0.00     0.065 A 
BRANCH  10  12
HETATM   12  C   UNL     1      43.634 -18.234   3.386  1.00  0.00     0.056 C 
HETATM   13  C   UNL     1      43.750 -19.504   2.555  1.00  0.00     0.011 C 
ENDBRANCH  10  12
ENDBRANCH   3   6
ENDBRANCH   1   2
BRANCH   1  14
HETATM   14  C   UNL     1      40.399 -11.521  -0.067  1.00  0.00    -0.031 A 
HETATM   15  C   UNL     1      41.100 -11.208  -1.241  1.00  0.00     0.012 A 
HETATM   16  C   UNL     1      41.696  -9.954  -1.398  1.00  0.00     0.037 A 
HETATM   17  C   UNL     1      41.611  -8.992  -0.389  1.00  0.00     0.068 A 
HETATM   18  C   UNL     1      40.943  -9.305   0.794  1.00  0.00     0.037 A 
HETATM   19  C   UNL     1      40.347 -10.560   0.955  1.00  0.00     0.012 A 
BRANCH  17  20
HETATM   20  O   UNL     1      42.220  -7.802  -0.678  1.00  0.00    -0.356 OA
HETATM   21  C   UNL     1      43.265  -7.837  -1.641  1.00  0.00     0.210 C 
ENDBRANCH  17  20
ENDBRANCH   1  14
BRANCH   1  22
HETATM   22  C   UNL     1      38.939 -13.355  -1.116  1.00  0.00    -0.031 A 
HETATM   23  C   UNL     1      37.814 -12.672  -1.612  1.00  0.00     0.009 A 
HETATM   24  C   UNL     1      37.147 -13.115  -2.758  1.00  0.00     0.001 A 
HETATM   25  C   UNL     1      37.605 -14.236  -3.442  1.00  0.00     0.000 A 
HETATM   26  C   UNL     1      38.736 -14.909  -2.991  1.00  0.00     0.001 A 
HETATM   27  C   UNL     1      39.403 -14.468  -1.845  1.00  0.00     0.009 A 
ENDBRANCH   1  22
TORSDOF 6
ENDMDL
MODEL 5
REMARK VINA RESULT:      -7.2      3.539      6.178
REMARK  6 active torsions:
REMARK  status: ('A' for Active; 'I' for Inactive)
REMARK    1  A    between atoms: C_2  and  C_3 
REMARK    2  A    between atoms: C_7  and  C_8 
REMARK       I    between atoms: C_8  and  N_9 
REMARK    3  A    between atoms: N_9  and  C_10 
REMARK    4  A    between atoms: C_10  and  C_11 
REMARK    5  A    between atoms: C_10  and  C_19 
REMARK    6  A    between atoms: C_14  and  O_15 
ROOT
HETATM    1  C   UNL     1      41.248 -13.241   1.972  1.00  0.00     0.151 C 
ENDROOT
BRANCH   1   2
HETATM    2  N   UNL     1      41.710 -14.562   2.358  1.00  0.00    -0.343 N 
HETATM    3  C   UNL     1      43.027 -14.931   2.274  1.00  0.00     0.270 C 
HETATM    4  O   UNL     1      43.904 -14.195   1.832  1.00  0.00    -0.266 OA
HETATM    5  H   UNL     1      41.011 -15.270   2.513  1.00  0.00     0.163 HD
BRANCH   3   6
HETATM    6  C   UNL     1      43.316 -16.248   2.774  1.00  0.00     0.119 A 
HETATM    7  N   UNL     1      43.612 -16.470   4.092  1.00  0.00    -0.273 N 
HETATM    8  N   UNL     1      43.789 -17.765   4.404  1.00  0.00    -0.179 NA
HETATM    9  H   UNL     1      43.687 -15.771   4.825  1.00  0.00     0.189 HD
HETATM   10  C   UNL     1      43.591 -18.406   3.248  1.00  0.00     0.056 A 
HETATM   11  C   UNL     1      43.319 -17.502   2.193  1.00  0.00     0.065 A 
BRANCH  10  12
HETATM   12  C   UNL     1      43.640 -19.895   3.187  1.00  0.00     0.056 C 
HETATM   13  C   UNL     1      43.593 -20.410   1.755  1.00  0.00     0.011 C 
ENDBRANCH  10  12
ENDBRANCH   3   6
ENDBRANCH   1   2
BRANCH   1  14
HETATM   14  C   UNL     1      40.328 -13.374   0.761  1.00  0.00    -0.031 A 
HETATM   15  C   UNL     1      39.510 -12.317   0.336  1.00  0.00     0.012 A 
HETATM   16  C   UNL     1      38.702 -12.457  -0.796  1.00  0.00     0.037 A 
HETATM   17  C   UNL     1      38.691 -13.650  -1.522  1.00  0.00     0.068 A 
HETATM   18  C   UNL     1      39.478 -14.717  -1.090  1.00  0.00     0.037 A 
HETATM   19  C   UNL     1      40.285 -14.581   0.045  1.00  0.00     0.012 A 
BRANCH  17  20
HETATM   20  O   UNL     1      37.873 -13.647  -2.619  1.00  0.00    -0.356 OA
HETATM   21  C   UNL     1      38.121 -14.642  -3.603  1.00  0.00     0.210 C 
ENDBRANCH  17  20
ENDBRANCH   1  14
BRANCH   1  22
HETATM   22  C   UNL     1      40.624 -12.485   3.152  1.00  0.00    -0.031 A 
HETATM   23  C   UNL     1      39.831 -13.132   4.115  1.00  0.00     0.009 A 
HETATM   24  C   UNL     1      39.296 -12.431   5.201  1.00  0.00     0.001 A 
HETATM   25  C   UNL     1      39.563 -11.074   5.355  1.00  0.00     0.000 A 
HETATM   26  C   UNL     1      40.374 -10.419   4.433  1.00  0.00     0.001 A 
HETATM   27  C   UNL     1      40.908 -11.119   3.347  1.00  0.00     0.009 A 
ENDBRANCH   1  22
TORSDOF 6
ENDMDL
MODEL 6
REMARK VINA RESULT:      -7.0      2.598      6.446
REMARK  6 active torsions:
REMARK  status: ('A' for Active; 'I' for Inactive)
REMARK    1  A    between atoms: C_2  and  C_3 
REMARK    2  A    between atoms: C_7  and  C_8 
REMARK       I    between atoms: C_8  and  N_9 
REMARK    3  A    between atoms: N_9  and  C_10 
REMARK    4  A    between atoms: C_10  and  C_11 
REMARK    5  A    between atoms: C_10  and  C_19 
REMARK    6  A    between atoms: C_14  and  O_15 
ROOT
HETATM    1  C   UNL     1      42.695 -13.419   6.366  1.00  0.00     0.151 C 
ENDROOT
BRANCH   1   2
HETATM    2  N   UNL     1      41.784 -12.861   5.383  1.00  0.00    -0.343 N 
HETATM    3  C   UNL     1      40.423 -12.949   5.512  1.00  0.00     0.270 C 
HETATM    4  O   UNL     1      39.873 -13.537   6.438  1.00  0.00    -0.266 OA
HETATM    5  H   UNL     1      42.176 -12.569   4.502  1.00  0.00     0.163 HD
BRANCH   3   6
HETATM    6  C   UNL     1      39.676 -12.271   4.487  1.00  0.00     0.119 A 
HETATM    7  N   UNL     1      39.388 -10.935   4.568  1.00  0.00    -0.273 N 
HETATM    8  N   UNL     1      38.744 -10.446   3.496  1.00  0.00    -0.179 NA
HETATM    9  H   UNL     1      39.629 -10.306   5.329  1.00  0.00     0.189 HD
HETATM   10  C   UNL     1      38.616 -11.502   2.686  1.00  0.00     0.056 A 
HETATM   11  C   UNL     1      39.159 -12.672   3.269  1.00  0.00     0.065 A 
BRANCH  10  12
HETATM   12  C   UNL     1      37.994 -11.355   1.339  1.00  0.00     0.056 C 
HETATM   13  C   UNL     1      38.867 -11.942   0.239  1.00  0.00     0.011 C 
ENDBRANCH  10  12
ENDBRANCH   3   6
ENDBRANCH   1   2
BRANCH   1  14
HETATM   14  C   UNL     1      43.201 -14.768   5.861  1.00  0.00    -0.031 A 
HETATM   15  C   UNL     1      43.914 -15.646   6.690  1.00  0.00     0.012 A 
HETATM   16  C   UNL     1      44.336 -16.888   6.209  1.00  0.00     0.037 A 
HETATM   17  C   UNL     1      44.060 -17.278   4.897  1.00  0.00     0.068 A 
HETATM   18  C   UNL     1      43.379 -16.399   4.056  1.00  0.00     0.037 A 
HETATM   19  C   UNL     1      42.957 -15.153   4.533  1.00  0.00     0.012 A 
BRANCH  17  20
HETATM   20  O   UNL     1      44.511 -18.525   4.561  1.00  0.00    -0.356 OA
HETATM   21  C   UNL     1      44.147 -19.010   3.275  1.00  0.00     0.210 C 
ENDBRANCH  17  20
ENDBRANCH   1  14
BRANCH   1  22
HETATM   22  C   UNL     1      43.809 -12.432   6.740  1.00  0.00    -0.031 A 
HETATM   23  C   UNL     1      44.871 -12.141   5.865  1.00  0.00     0.009 A 
HETATM   24  C   UNL     1      45.860 -11.216   6.212  1.00  0.00     0.001 A 
HETATM   25  C   UNL     1      45.794 -10.548   7.431  1.00  0.00     0.000 A 
HETATM   26  C   UNL     1      44.734 -10.794   8.299  1.00  0.00     0.001 A 
HETATM   27  C   UNL     1      43.746 -11.720   7.953  1.00  0.00     0.009 A 
ENDBRANCH   1  22
TORSDOF 6
ENDMDL
MODEL 7
REMARK VINA RESULT:      -7.0     10.836     15.330
REMARK  6 active torsions:
REMARK  status: ('A' for Active; 'I' for Inactive)
REMARK    1  A    between atoms: C_2  and  C_3 
REMARK    2  A    between atoms: C_7  and  C_8 
REMARK       I    between atoms: C_8  and  N_9 
REMARK    3  A    between atoms: N_9  and  C_10 
REMARK    4  A    between atoms: C_10  and  C_11 
REMARK    5  A    between atoms: C_10  and  C_19 
REMARK    6  A    between atoms: C_14  and  O_15 
ROOT
HETATM    1  C   UNL     1      41.703  -6.848  16.434  1.00  0.00     0.151 C 
ENDROOT
BRANCH   1   2
HETATM    2  N   UNL     1      41.595  -7.812  17.514  1.00  0.00    -0.343 N 
HETATM    3  C   UNL     1      42.120  -7.581  18.759  1.00  0.00     0.270 C 
HETATM    4  O   UNL     1      42.753  -6.568  19.043  1.00  0.00    -0.266 OA
HETATM    5  H   UNL     1      41.287  -8.741  17.277  1.00  0.00     0.163 HD
BRANCH   3   6
HETATM    6  C   UNL     1      41.849  -8.608  19.727  1.00  0.00     0.119 A 
HETATM    7  N   UNL     1      40.679  -9.319  19.717  1.00  0.00    -0.273 N 
HETATM    8  N   UNL     1      40.617 -10.287  20.646  1.00  0.00    -0.179 NA
HETATM    9  H   UNL     1      39.898  -9.195  19.080  1.00  0.00     0.189 HD
HETATM   10  C   UNL     1      41.792 -10.206  21.277  1.00  0.00     0.056 A 
HETATM   11  C   UNL     1      42.588  -9.157  20.759  1.00  0.00     0.065 A 
BRANCH  10  12
HETATM   12  C   UNL     1      42.142 -11.170  22.359  1.00  0.00     0.056 C 
HETATM   13  C   UNL     1      43.581 -11.653  22.251  1.00  0.00     0.011 C 
ENDBRANCH  10  12
ENDBRANCH   3   6
ENDBRANCH   1   2
BRANCH   1  14
HETATM   14  C   UNL     1      42.042  -7.589  15.143  1.00  0.00    -0.031 A 
HETATM   15  C   UNL     1      41.391  -8.777  14.782  1.00  0.00     0.012 A 
HETATM   16  C   UNL     1      41.699  -9.416  13.578  1.00  0.00     0.037 A 
HETATM   17  C   UNL     1      42.661  -8.888  12.715  1.00  0.00     0.068 A 
HETATM   18  C   UNL     1      43.336  -7.724  13.080  1.00  0.00     0.037 A 
HETATM   19  C   UNL     1      43.032  -7.083  14.286  1.00  0.00     0.012 A 
BRANCH  17  20
HETATM   20  O   UNL     1      42.852  -9.600  11.563  1.00  0.00    -0.356 OA
HETATM   21  C   UNL     1      43.641 -10.778  11.663  1.00  0.00     0.210 C 
ENDBRANCH  17  20
ENDBRANCH   1  14
BRANCH   1  22
HETATM   22  C   UNL     1      40.459  -5.956  16.336  1.00  0.00    -0.031 A 
HETATM   23  C   UNL     1      39.424  -6.219  15.422  1.00  0.00     0.009 A 
HETATM   24  C   UNL     1      38.283  -5.411  15.369  1.00  0.00     0.001 A 
HETATM   25  C   UNL     1      38.148  -4.338  16.244  1.00  0.00     0.000 A 
HETATM   26  C   UNL     1      39.143  -4.078  17.181  1.00  0.00     0.001 A 
HETATM   27  C   UNL     1      40.284  -4.884  17.233  1.00  0.00     0.009 A 
ENDBRANCH   1  22
TORSDOF 6
ENDMDL
MODEL 8
REMARK VINA RESULT:      -6.9     15.273     17.745
REMARK  6 active torsions:
REMARK  status: ('A' for Active; 'I' for Inactive)
REMARK    1  A    between atoms: C_2  and  C_3 
REMARK    2  A    between atoms: C_7  and  C_8 
REMARK       I    between atoms: C_8  and  N_9 
REMARK    3  A    between atoms: N_9  and  C_10 
REMARK    4  A    between atoms: C_10  and  C_11 
REMARK    5  A    between atoms: C_10  and  C_19 
REMARK    6  A    between atoms: C_14  and  O_15 
ROOT
HETATM    1  C   UNL     1      44.626 -29.084   0.326  1.00  0.00     0.151 C 
ENDROOT
BRANCH   1   2
HETATM    2  N   UNL     1      43.796 -30.169   0.817  1.00  0.00    -0.343 N 
HETATM    3  C   UNL     1      42.511 -29.971   1.250  1.00  0.00     0.270 C 
HETATM    4  O   UNL     1      41.982 -28.864   1.296  1.00  0.00    -0.266 OA
HETATM    5  H   UNL     1      44.248 -31.048   1.011  1.00  0.00     0.163 HD
BRANCH   3   6
HETATM    6  C   UNL     1      41.810 -31.168   1.625  1.00  0.00     0.119 A 
HETATM    7  N   UNL     1      41.971 -32.343   0.941  1.00  0.00    -0.273 N 
HETATM    8  N   UNL     1      41.296 -33.380   1.464  1.00  0.00    -0.179 NA
HETATM    9  H   UNL     1      42.548 -32.493   0.119  1.00  0.00     0.189 HD
HETATM   10  C   UNL     1      40.682 -32.861   2.531  1.00  0.00     0.056 A 
HETATM   11  C   UNL     1      40.949 -31.477   2.662  1.00  0.00     0.065 A 
BRANCH  10  12
HETATM   12  C   UNL     1      39.865 -33.724   3.432  1.00  0.00     0.056 C 
HETATM   13  C   UNL     1      38.482 -33.139   3.683  1.00  0.00     0.011 C 
ENDBRANCH  10  12
ENDBRANCH   3   6
ENDBRANCH   1   2
BRANCH   1  14
HETATM   14  C   UNL     1      46.020 -29.215   0.936  1.00  0.00    -0.031 A 
HETATM   15  C   UNL     1      46.412 -28.458   2.049  1.00  0.00     0.012 A 
HETATM   16  C   UNL     1      47.683 -28.623   2.606  1.00  0.00     0.037 A 
HETATM   17  C   UNL     1      48.587 -29.540   2.065  1.00  0.00     0.068 A 
HETATM   18  C   UNL     1      48.217 -30.275   0.939  1.00  0.00     0.037 A 
HETATM   19  C   UNL     1      46.946 -30.110   0.377  1.00  0.00     0.012 A 
BRANCH  17  20
HETATM   20  O   UNL     1      49.787 -29.617   2.717  1.00  0.00    -0.356 OA
HETATM   21  C   UNL     1      50.677 -30.643   2.297  1.00  0.00     0.210 C 
ENDBRANCH  17  20
ENDBRANCH   1  14
BRANCH   1  22
HETATM   22  C   UNL     1      44.618 -29.005  -1.206  1.00  0.00    -0.031 A 
HETATM   23  C   UNL     1      45.166 -27.910  -1.898  1.00  0.00     0.009 A 
HETATM   24  C   UNL     1      45.176 -27.870  -3.296  1.00  0.00     0.001 A 
HETATM   25  C   UNL     1      44.657 -28.934  -4.027  1.00  0.00     0.000 A 
HETATM   26  C   UNL     1      44.141 -30.044  -3.365  1.00  0.00     0.001 A 
HETATM   27  C   UNL     1      44.130 -30.083  -1.968  1.00  0.00     0.009 A 
ENDBRANCH   1  22
TORSDOF 6
ENDMDL
MODEL 9
REMARK VINA RESULT:      -6.8      1.985      2.677
REMARK  6 active torsions:
REMARK  status: ('A' for Active; 'I' for Inactive)
REMARK    1  A    between atoms: C_2  and  C_3 
REMARK    2  A    between atoms: C_7  and  C_8 
REMARK       I    between atoms: C_8  and  N_9 
REMARK    3  A    between atoms: N_9  and  C_10 
REMARK    4  A    between atoms: C_10  and  C_11 
REMARK    5  A    between atoms: C_10  and  C_19 
REMARK    6  A    between atoms: C_14  and  O_15 
ROOT
HETATM    1  C   UNL     1      41.084 -13.413   3.368  1.00  0.00     0.151 C 
ENDROOT
BRANCH   1   2
HETATM    2  N   UNL     1      41.860 -12.609   4.295  1.00  0.00    -0.343 N 
HETATM    3  C   UNL     1      41.933 -12.898   5.632  1.00  0.00     0.270 C 
HETATM    4  O   UNL     1      41.321 -13.825   6.153  1.00  0.00    -0.266 OA
HETATM    5  H   UNL     1      42.195 -11.718   3.966  1.00  0.00     0.163 HD
BRANCH   3   6
HETATM    6  C   UNL     1      42.811 -12.044   6.385  1.00  0.00     0.119 A 
HETATM    7  N   UNL     1      42.360 -10.906   6.997  1.00  0.00    -0.273 N 
HETATM    8  N   UNL     1      43.294 -10.261   7.716  1.00  0.00    -0.179 NA
HETATM    9  H   UNL     1      41.415 -10.535   6.972  1.00  0.00     0.189 HD
HETATM   10  C   UNL     1      44.390 -11.014   7.570  1.00  0.00     0.056 A 
HETATM   11  C   UNL     1      44.148 -12.125   6.727  1.00  0.00     0.065 A 
BRANCH  10  12
HETATM   12  C   UNL     1      45.654 -10.660   8.278  1.00  0.00     0.056 C 
HETATM   13  C   UNL     1      45.391 -10.042   9.644  1.00  0.00     0.011 C 
ENDBRANCH  10  12
ENDBRANCH   3   6
ENDBRANCH   1   2
BRANCH   1  14
HETATM   14  C   UNL     1      40.636 -12.532   2.205  1.00  0.00    -0.031 A 
HETATM   15  C   UNL     1      41.246 -11.298   1.937  1.00  0.00     0.012 A 
HETATM   16  C   UNL     1      40.836 -10.527   0.846  1.00  0.00     0.037 A 
HETATM   17  C   UNL     1      39.812 -10.967   0.005  1.00  0.00     0.068 A 
HETATM   18  C   UNL     1      39.179 -12.178   0.281  1.00  0.00     0.037 A 
HETATM   19  C   UNL     1      39.584 -12.951   1.375  1.00  0.00     0.012 A 
BRANCH  17  20
HETATM   20  O   UNL     1      39.523 -10.128  -1.036  1.00  0.00    -0.356 OA
HETATM   21  C   UNL     1      40.605  -9.773  -1.889  1.00  0.00     0.210 C 
ENDBRANCH  17  20
ENDBRANCH   1  14
BRANCH   1  22
HETATM   22  C   UNL     1      41.836 -14.680   2.940  1.00  0.00    -0.031 A 
HETATM   23  C   UNL     1      41.438 -15.961   3.362  1.00  0.00     0.009 A 
HETATM   24  C   UNL     1      42.119 -17.106   2.936  1.00  0.00     0.001 A 
HETATM   25  C   UNL     1      43.197 -16.993   2.064  1.00  0.00     0.000 A 
HETATM   26  C   UNL     1      43.588 -15.738   1.605  1.00  0.00     0.001 A 
HETATM   27  C   UNL     1      42.908 -14.594   2.032  1.00  0.00     0.009 A 
ENDBRANCH   1  22
TORSDOF 6
ENDMDL
MODEL 10
REMARK VINA RESULT:      -6.8      2.561      5.305
REMARK  6 active torsions:
REMARK  status: ('A' for Active; 'I' for Inactive)
REMARK    1  A    between atoms: C_2  and  C_3 
REMARK    2  A    between atoms: C_7  and  C_8 
REMARK       I    between atoms: C_8  and  N_9 
REMARK    3  A    between atoms: N_9  and  C_10 
REMARK    4  A    between atoms: C_10  and  C_11 
REMARK    5  A    between atoms: C_10  and  C_19 
REMARK    6  A    between atoms: C_14  and  O_15 
ROOT
HETATM    1  C   UNL     1      43.076 -13.780   4.635  1.00  0.00     0.151 C 
ENDROOT
BRANCH   1   2
HETATM    2  N   UNL     1      43.186 -12.964   5.832  1.00  0.00    -0.343 N 
HETATM    3  C   UNL     1      43.904 -11.798   5.860  1.00  0.00     0.270 C 
HETATM    4  O   UNL     1      44.538 -11.377   4.897  1.00  0.00    -0.266 OA
HETATM    5  H   UNL     1      42.877 -13.371   6.700  1.00  0.00     0.163 HD
BRANCH   3   6
HETATM    6  C   UNL     1      43.837 -11.080   7.103  1.00  0.00     0.119 A 
HETATM    7  N   UNL     1      43.971 -11.712   8.310  1.00  0.00    -0.273 N 
HETATM    8  N   UNL     1      43.953 -10.886   9.369  1.00  0.00    -0.179 NA
HETATM    9  H   UNL     1      44.097 -12.708   8.463  1.00  0.00     0.189 HD
HETATM   10  C   UNL     1      43.811  -9.672   8.828  1.00  0.00     0.056 A 
HETATM   11  C   UNL     1      43.708  -9.740   7.418  1.00  0.00     0.065 A 
BRANCH  10  12
HETATM   12  C   UNL     1      43.807  -8.453   9.688  1.00  0.00     0.056 C 
HETATM   13  C   UNL     1      42.599  -7.567   9.417  1.00  0.00     0.011 C 
ENDBRANCH  10  12
ENDBRANCH   3   6
ENDBRANCH   1   2
BRANCH   1  14
HETATM   14  C   UNL     1      43.180 -15.251   5.030  1.00  0.00    -0.031 A 
HETATM   15  C   UNL     1      43.361 -16.260   4.073  1.00  0.00     0.012 A 
HETATM   16  C   UNL     1      43.487 -17.595   4.466  1.00  0.00     0.037 A 
HETATM   17  C   UNL     1      43.430 -17.951   5.816  1.00  0.00     0.068 A 
HETATM   18  C   UNL     1      43.219 -16.958   6.772  1.00  0.00     0.037 A 
HETATM   19  C   UNL     1      43.090 -15.620   6.381  1.00  0.00     0.012 A 
BRANCH  17  20
HETATM   20  O   UNL     1      43.586 -19.286   6.065  1.00  0.00    -0.356 OA
HETATM   21  C   UNL     1      44.249 -20.049   5.064  1.00  0.00     0.210 C 
ENDBRANCH  17  20
ENDBRANCH   1  14
BRANCH   1  22
HETATM   22  C   UNL     1      41.821 -13.437   3.822  1.00  0.00    -0.031 A 
HETATM   23  C   UNL     1      40.565 -13.261   4.429  1.00  0.00     0.009 A 
HETATM   24  C   UNL     1      39.439 -12.919   3.674  1.00  0.00     0.001 A 
HETATM   25  C   UNL     1      39.552 -12.724   2.301  1.00  0.00     0.000 A 
HETATM   26  C   UNL     1      40.792 -12.859   1.683  1.00  0.00     0.001 A 
HETATM   27  C   UNL     1      41.917 -13.202   2.437  1.00  0.00     0.009 A 
ENDBRANCH   1  22
TORSDOF 6
ENDMDL
