MODEL 1
REMARK VINA RESULT:      -8.9      0.000      0.000
REMARK  3 active torsions:
REMARK  status: ('A' for Active; 'I' for Inactive)
REMARK    1  A    between atoms: C_9  and  C_10 
REMARK       I    between atoms: C_10  and  N_11 
REMARK    2  A    between atoms: N_11  and  C_12 
REMARK    3  A    between atoms: C_14  and  C_15 
ROOT
HETATM    1  C   UNL     1      42.326 -13.529   2.888  1.00  0.00     0.252 C 
HETATM    2  N   UNL     1      41.895 -14.748   3.378  1.00  0.00    -0.325 N 
HETATM    3  O   UNL     1      43.494 -13.188   2.713  1.00  0.00    -0.270 OA
HETATM    4  H   UNL     1      40.896 -14.915   3.296  1.00  0.00     0.169 HD
ENDROOT
BRANCH   2   5
HETATM    5  C   UNL     1      42.634 -15.703   4.098  1.00  0.00     0.035 A 
HETATM    6  C   UNL     1      42.787 -17.031   3.694  1.00  0.00     0.042 A 
HETATM    7  C   UNL     1      43.625 -17.909   4.401  1.00  0.00    -0.021 A 
HETATM    8  C   UNL     1      44.300 -17.436   5.535  1.00  0.00     0.012 A 
HETATM    9  C   UNL     1      44.141 -16.115   5.953  1.00  0.00     0.003 A 
HETATM   10  C   UNL     1      43.314 -15.252   5.235  1.00  0.00     0.029 A 
BRANCH   7  11
HETATM   11  C   UNL     1      43.827 -19.276   3.952  1.00  0.00     0.010 A 
HETATM   12  C   UNL     1      43.728 -19.853   2.663  1.00  0.00     0.152 A 
HETATM   13  N   UNL     1      43.992 -21.162   2.658  1.00  0.00    -0.187 NA
HETATM   14  N   UNL     1      44.257 -21.432   3.947  1.00  0.00    -0.289 N 
HETATM   15  H   UNL     1      44.489 -22.386   4.201  1.00  0.00     0.188 HD
HETATM   16  C   UNL     1      44.174 -20.340   4.759  1.00  0.00     0.123 A 
ENDBRANCH   7  11
ENDBRANCH   2   5
BRANCH   1  17
HETATM   17  C   UNL     1      41.167 -12.530   2.651  1.00  0.00     0.225 C 
HETATM   18  C   UNL     1      39.919 -13.311   2.212  1.00  0.00     0.083 C 
HETATM   19  C   UNL     1      40.069 -13.156   0.745  1.00  0.00    -0.021 A 
HETATM   20  C   UNL     1      40.915 -12.094   0.487  1.00  0.00     0.076 A 
HETATM   21  C   UNL     1      39.520 -13.890  -0.288  1.00  0.00     0.017 A 
HETATM   22  C   UNL     1      41.237 -11.703  -0.795  1.00  0.00     0.044 A 
HETATM   23  O   UNL     1      41.469 -11.550   1.623  1.00  0.00    -0.336 OA
HETATM   24  C   UNL     1      40.708 -12.440  -1.867  1.00  0.00    -0.053 A 
HETATM   25  C   UNL     1      39.855 -13.548  -1.611  1.00  0.00    -0.055 A 
HETATM   26  C   UNL     1      41.098 -12.064  -3.271  1.00  0.00     0.049 C 
HETATM   27  C   UNL     1      39.325 -14.398  -2.737  1.00  0.00     0.049 C 
ENDBRANCH   1  17
TORSDOF 3
ENDMDL
MODEL 2
REMARK VINA RESULT:      -8.7      5.427      8.916
REMARK  3 active torsions:
REMARK  status: ('A' for Active; 'I' for Inactive)
REMARK    1  A    between atoms: C_9  and  C_10 
REMARK       I    between atoms: C_10  and  N_11 
REMARK    2  A    between atoms: N_11  and  C_12 
REMARK    3  A    between atoms: C_14  and  C_15 
ROOT
HETATM    1  C   UNL     1      42.607 -12.967   6.064  1.00  0.00     0.252 C 
HETATM    2  N   UNL     1      43.305 -12.690   7.226  1.00  0.00    -0.325 N 
HETATM    3  O   UNL     1      42.734 -12.390   4.986  1.00  0.00    -0.270 OA
HETATM    4  H   UNL     1      43.193 -13.375   7.967  1.00  0.00     0.169 HD
ENDROOT
BRANCH   2   5
HETATM    5  C   UNL     1      44.015 -11.522   7.552  1.00  0.00     0.035 A 
HETATM    6  C   UNL     1      43.467 -10.454   8.267  1.00  0.00     0.042 A 
HETATM    7  C   UNL     1      44.260  -9.361   8.653  1.00  0.00    -0.021 A 
HETATM    8  C   UNL     1      45.615  -9.346   8.296  1.00  0.00     0.012 A 
HETATM    9  C   UNL     1      46.167 -10.402   7.571  1.00  0.00     0.003 A 
HETATM   10  C   UNL     1      45.370 -11.486   7.204  1.00  0.00     0.029 A 
BRANCH   7  11
HETATM   11  C   UNL     1      43.703  -8.274   9.442  1.00  0.00     0.010 A 
HETATM   12  C   UNL     1      43.221  -8.247  10.772  1.00  0.00     0.152 A 
HETATM   13  N   UNL     1      42.783  -7.040  11.142  1.00  0.00    -0.187 NA
HETATM   14  N   UNL     1      42.980  -6.288  10.046  1.00  0.00    -0.289 N 
HETATM   15  H   UNL     1      42.716  -5.309  10.079  1.00  0.00     0.188 HD
HETATM   16  C   UNL     1      43.529  -6.977   9.004  1.00  0.00     0.123 A 
ENDBRANCH   7  11
ENDBRANCH   2   5
BRANCH   1  17
HETATM   17  C   UNL     1      41.526 -14.058   6.255  1.00  0.00     0.225 C 
HETATM   18  C   UNL     1      42.139 -15.237   7.026  1.00  0.00     0.083 C 
HETATM   19  C   UNL     1      42.495 -16.093   5.868  1.00  0.00    -0.021 A 
HETATM   20  C   UNL     1      41.763 -15.690   4.767  1.00  0.00     0.076 A 
HETATM   21  C   UNL     1      43.394 -17.137   5.777  1.00  0.00     0.017 A 
HETATM   22  C   UNL     1      41.875 -16.311   3.541  1.00  0.00     0.044 A 
HETATM   23  O   UNL     1      41.007 -14.564   4.997  1.00  0.00    -0.336 OA
HETATM   24  C   UNL     1      42.795 -17.364   3.411  1.00  0.00    -0.053 A 
HETATM   25  C   UNL     1      43.568 -17.772   4.533  1.00  0.00    -0.055 A 
HETATM   26  C   UNL     1      42.973 -18.012   2.065  1.00  0.00     0.049 C 
HETATM   27  C   UNL     1      44.608 -18.854   4.409  1.00  0.00     0.049 C 
ENDBRANCH   1  17
TORSDOF 3
ENDMDL
MODEL 3
REMARK VINA RESULT:      -8.3      2.202      3.561
REMARK  3 active torsions:
REMARK  status: ('A' for Active; 'I' for Inactive)
REMARK    1  A    between atoms: C_9  and  C_10 
REMARK       I    between atoms: C_10  and  N_11 
REMARK    2  A    between atoms: N_11  and  C_12 
REMARK    3  A    between atoms: C_14  and  C_15 
ROOT
HETATM    1  C   UNL     1      40.070 -13.947   0.008  1.00  0.00     0.252 C 
HETATM    2  N   UNL     1      41.271 -14.610   0.177  1.00  0.00    -0.325 N 
HETATM    3  O   UNL     1      39.473 -13.295   0.863  1.00  0.00    -0.270 OA
HETATM    4  H   UNL     1      41.698 -14.951  -0.679  1.00  0.00     0.169 HD
ENDROOT
BRANCH   2   5
HETATM    5  C   UNL     1      41.887 -14.993   1.381  1.00  0.00     0.035 A 
HETATM    6  C   UNL     1      42.240 -16.310   1.687  1.00  0.00     0.042 A 
HETATM    7  C   UNL     1      42.948 -16.613   2.862  1.00  0.00    -0.021 A 
HETATM    8  C   UNL     1      43.285 -15.573   3.739  1.00  0.00     0.012 A 
HETATM    9  C   UNL     1      42.923 -14.258   3.447  1.00  0.00     0.003 A 
HETATM   10  C   UNL     1      42.230 -13.970   2.272  1.00  0.00     0.029 A 
BRANCH   7  11
HETATM   11  C   UNL     1      43.363 -17.975   3.155  1.00  0.00     0.010 A 
HETATM   12  C   UNL     1      43.970 -18.531   4.306  1.00  0.00     0.152 A 
HETATM   13  N   UNL     1      44.200 -19.842   4.190  1.00  0.00    -0.187 NA
HETATM   14  N   UNL     1      43.744 -20.131   2.960  1.00  0.00    -0.289 N 
HETATM   15  H   UNL     1      43.813 -21.089   2.633  1.00  0.00     0.188 HD
HETATM   16  C   UNL     1      43.232 -19.051   2.302  1.00  0.00     0.123 A 
ENDBRANCH   7  11
ENDBRANCH   2   5
BRANCH   1  17
HETATM   17  C   UNL     1      39.447 -14.173  -1.391  1.00  0.00     0.225 C 
HETATM   18  C   UNL     1      40.502 -13.857  -2.462  1.00  0.00     0.083 C 
HETATM   19  C   UNL     1      40.108 -12.456  -2.750  1.00  0.00    -0.021 A 
HETATM   20  C   UNL     1      38.814 -12.251  -2.308  1.00  0.00     0.076 A 
HETATM   21  C   UNL     1      40.824 -11.434  -3.341  1.00  0.00     0.017 A 
HETATM   22  C   UNL     1      38.171 -11.041  -2.449  1.00  0.00     0.044 A 
HETATM   23  O   UNL     1      38.290 -13.332  -1.637  1.00  0.00    -0.336 OA
HETATM   24  C   UNL     1      38.879  -9.975  -3.030  1.00  0.00    -0.053 A 
HETATM   25  C   UNL     1      40.218 -10.171  -3.467  1.00  0.00    -0.055 A 
HETATM   26  C   UNL     1      38.213  -8.630  -3.135  1.00  0.00     0.049 C 
HETATM   27  C   UNL     1      41.025  -9.032  -4.034  1.00  0.00     0.049 C 
ENDBRANCH   1  17
TORSDOF 3
ENDMDL
MODEL 4
REMARK VINA RESULT:      -8.3      2.622      3.322
REMARK  3 active torsions:
REMARK  status: ('A' for Active; 'I' for Inactive)
REMARK    1  A    between atoms: C_9  and  C_10 
REMARK       I    between atoms: C_10  and  N_11 
REMARK    2  A    between atoms: N_11  and  C_12 
REMARK    3  A    between atoms: C_14  and  C_15 
ROOT
HETATM    1  C   UNL     1      41.391 -14.369   5.418  1.00  0.00     0.252 C 
HETATM    2  N   UNL     1      42.598 -14.498   4.754  1.00  0.00    -0.325 N 
HETATM    3  O   UNL     1      40.540 -15.245   5.555  1.00  0.00    -0.270 OA
HETATM    4  H   UNL     1      43.246 -13.727   4.888  1.00  0.00     0.169 HD
ENDROOT
BRANCH   2   5
HETATM    5  C   UNL     1      42.970 -15.476   3.816  1.00  0.00     0.035 A 
HETATM    6  C   UNL     1      43.261 -16.801   4.151  1.00  0.00     0.042 A 
HETATM    7  C   UNL     1      43.524 -17.756   3.155  1.00  0.00    -0.021 A 
HETATM    8  C   UNL     1      43.506 -17.358   1.811  1.00  0.00     0.012 A 
HETATM    9  C   UNL     1      43.230 -16.034   1.470  1.00  0.00     0.003 A 
HETATM   10  C   UNL     1      42.960 -15.099   2.469  1.00  0.00     0.029 A 
BRANCH   7  11
HETATM   11  C   UNL     1      43.775 -19.146   3.499  1.00  0.00     0.010 A 
HETATM   12  C   UNL     1      43.678 -20.325   2.722  1.00  0.00     0.152 A 
HETATM   13  N   UNL     1      43.996 -21.427   3.407  1.00  0.00    -0.187 NA
HETATM   14  N   UNL     1      44.296 -20.957   4.630  1.00  0.00    -0.289 N 
HETATM   15  H   UNL     1      44.572 -21.621   5.346  1.00  0.00     0.188 HD
HETATM   16  C   UNL     1      44.182 -19.602   4.736  1.00  0.00     0.123 A 
ENDBRANCH   7  11
ENDBRANCH   2   5
BRANCH   1  17
HETATM   17  C   UNL     1      41.133 -12.930   5.926  1.00  0.00     0.225 C 
HETATM   18  C   UNL     1      39.677 -12.547   5.619  1.00  0.00     0.083 C 
HETATM   19  C   UNL     1      39.905 -11.827   4.343  1.00  0.00    -0.021 A 
HETATM   20  C   UNL     1      41.236 -11.461   4.262  1.00  0.00     0.076 A 
HETATM   21  C   UNL     1      39.025 -11.521   3.324  1.00  0.00     0.017 A 
HETATM   22  C   UNL     1      41.745 -10.765   3.187  1.00  0.00     0.044 A 
HETATM   23  O   UNL     1      41.998 -11.946   5.300  1.00  0.00    -0.336 OA
HETATM   24  C   UNL     1      40.879 -10.456   2.125  1.00  0.00    -0.053 A 
HETATM   25  C   UNL     1      39.513 -10.847   2.189  1.00  0.00    -0.055 A 
HETATM   26  C   UNL     1      41.432  -9.750   0.916  1.00  0.00     0.049 C 
HETATM   27  C   UNL     1      38.575 -10.586   1.039  1.00  0.00     0.049 C 
ENDBRANCH   1  17
TORSDOF 3
ENDMDL
MODEL 5
REMARK VINA RESULT:      -8.2      3.647      5.804
REMARK  3 active torsions:
REMARK  status: ('A' for Active; 'I' for Inactive)
REMARK    1  A    between atoms: C_9  and  C_10 
REMARK       I    between atoms: C_10  and  N_11 
REMARK    2  A    between atoms: N_11  and  C_12 
REMARK    3  A    between atoms: C_14  and  C_15 
ROOT
HETATM    1  C   UNL     1      41.769 -13.873   4.847  1.00  0.00     0.252 C 
HETATM    2  N   UNL     1      42.921 -14.555   5.197  1.00  0.00    -0.325 N 
HETATM    3  O   UNL     1      40.617 -14.285   4.966  1.00  0.00    -0.270 OA
HETATM    4  H   UNL     1      43.769 -13.997   5.187  1.00  0.00     0.169 HD
ENDROOT
BRANCH   2   5
HETATM    5  C   UNL     1      43.079 -15.934   5.413  1.00  0.00     0.035 A 
HETATM    6  C   UNL     1      43.155 -16.877   4.385  1.00  0.00     0.042 A 
HETATM    7  C   UNL     1      43.420 -18.229   4.663  1.00  0.00    -0.021 A 
HETATM    8  C   UNL     1      43.591 -18.626   5.997  1.00  0.00     0.012 A 
HETATM    9  C   UNL     1      43.502 -17.693   7.029  1.00  0.00     0.003 A 
HETATM   10  C   UNL     1      43.250 -16.353   6.738  1.00  0.00     0.029 A 
BRANCH   7  11
HETATM   11  C   UNL     1      43.552 -19.201   3.592  1.00  0.00     0.010 A 
HETATM   12  C   UNL     1      43.952 -20.559   3.616  1.00  0.00     0.152 A 
HETATM   13  N   UNL     1      43.946 -21.124   2.405  1.00  0.00    -0.187 NA
HETATM   14  N   UNL     1      43.545 -20.128   1.598  1.00  0.00    -0.289 N 
HETATM   15  H   UNL     1      43.464 -20.316   0.605  1.00  0.00     0.188 HD
HETATM   16  C   UNL     1      43.295 -18.960   2.258  1.00  0.00     0.123 A 
ENDBRANCH   7  11
ENDBRANCH   2   5
BRANCH   1  17
HETATM   17  C   UNL     1      42.056 -12.511   4.170  1.00  0.00     0.225 C 
HETATM   18  C   UNL     1      43.574 -12.348   4.004  1.00  0.00     0.083 C 
HETATM   19  C   UNL     1      43.843 -11.554   5.227  1.00  0.00    -0.021 A 
HETATM   20  C   UNL     1      42.662 -10.984   5.665  1.00  0.00     0.076 A 
HETATM   21  C   UNL     1      45.024 -11.351   5.915  1.00  0.00     0.017 A 
HETATM   22  C   UNL     1      42.602 -10.179   6.782  1.00  0.00     0.044 A 
HETATM   23  O   UNL     1      41.563 -11.383   4.940  1.00  0.00    -0.336 OA
HETATM   24  C   UNL     1      43.783  -9.968   7.513  1.00  0.00    -0.053 A 
HETATM   25  C   UNL     1      44.999 -10.568   7.083  1.00  0.00    -0.055 A 
HETATM   26  C   UNL     1      43.723  -9.141   8.769  1.00  0.00     0.049 C 
HETATM   27  C   UNL     1      46.267 -10.413   7.882  1.00  0.00     0.049 C 
ENDBRANCH   1  17
TORSDOF 3
ENDMDL
MODEL 6
REMARK VINA RESULT:      -8.2      3.105      8.699
REMARK  3 active torsions:
REMARK  status: ('A' for Active; 'I' for Inactive)
REMARK    1  A    between atoms: C_9  and  C_10 
REMARK       I    between atoms: C_10  and  N_11 
REMARK    2  A    between atoms: N_11  and  C_12 
REMARK    3  A    between atoms: C_14  and  C_15 
ROOT
HETATM    1  C   UNL     1      41.436 -14.562   1.816  1.00  0.00     0.252 C 
HETATM    2  N   UNL     1      41.222 -14.373   0.462  1.00  0.00    -0.325 N 
HETATM    3  O   UNL     1      40.568 -14.667   2.680  1.00  0.00    -0.270 OA
HETATM    4  H   UNL     1      42.047 -14.478  -0.121  1.00  0.00     0.169 HD
ENDROOT
BRANCH   2   5
HETATM    5  C   UNL     1      40.057 -13.914  -0.175  1.00  0.00     0.035 A 
HETATM    6  C   UNL     1      39.337 -12.791   0.240  1.00  0.00     0.042 A 
HETATM    7  C   UNL     1      38.240 -12.321  -0.502  1.00  0.00    -0.021 A 
HETATM    8  C   UNL     1      37.864 -13.008  -1.665  1.00  0.00     0.012 A 
HETATM    9  C   UNL     1      38.569 -14.139  -2.078  1.00  0.00     0.003 A 
HETATM   10  C   UNL     1      39.662 -14.587  -1.337  1.00  0.00     0.029 A 
BRANCH   7  11
HETATM   11  C   UNL     1      37.523 -11.123  -0.101  1.00  0.00     0.010 A 
HETATM   12  C   UNL     1      37.239  -9.931  -0.811  1.00  0.00     0.152 A 
HETATM   13  N   UNL     1      36.545  -9.048  -0.087  1.00  0.00    -0.187 NA
HETATM   14  N   UNL     1      36.385  -9.670   1.093  1.00  0.00    -0.289 N 
HETATM   15  H   UNL     1      35.879  -9.186   1.827  1.00  0.00     0.188 HD
HETATM   16  C   UNL     1      36.949 -10.911   1.135  1.00  0.00     0.123 A 
ENDBRANCH   7  11
ENDBRANCH   2   5
BRANCH   1  17
HETATM   17  C   UNL     1      42.935 -14.536   2.200  1.00  0.00     0.225 C 
HETATM   18  C   UNL     1      43.668 -15.638   1.419  1.00  0.00     0.083 C 
HETATM   19  C   UNL     1      43.640 -16.697   2.457  1.00  0.00    -0.021 A 
HETATM   20  C   UNL     1      43.408 -16.115   3.689  1.00  0.00     0.076 A 
HETATM   21  C   UNL     1      43.793 -18.064   2.338  1.00  0.00     0.017 A 
HETATM   22  C   UNL     1      43.339 -16.853   4.851  1.00  0.00     0.044 A 
HETATM   23  O   UNL     1      43.159 -14.764   3.616  1.00  0.00    -0.336 OA
HETATM   24  C   UNL     1      43.473 -18.248   4.761  1.00  0.00    -0.053 A 
HETATM   25  C   UNL     1      43.689 -18.858   3.494  1.00  0.00    -0.055 A 
HETATM   26  C   UNL     1      43.339 -19.075   6.011  1.00  0.00     0.049 C 
HETATM   27  C   UNL     1      43.772 -20.356   3.357  1.00  0.00     0.049 C 
ENDBRANCH   1  17
TORSDOF 3
ENDMDL
MODEL 7
REMARK VINA RESULT:      -8.1      6.125      9.006
REMARK  3 active torsions:
REMARK  status: ('A' for Active; 'I' for Inactive)
REMARK    1  A    between atoms: C_9  and  C_10 
REMARK       I    between atoms: C_10  and  N_11 
REMARK    2  A    between atoms: N_11  and  C_12 
REMARK    3  A    between atoms: C_14  and  C_15 
ROOT
HETATM    1  C   UNL     1      43.623 -10.949   7.425  1.00  0.00     0.252 C 
HETATM    2  N   UNL     1      44.001 -12.279   7.440  1.00  0.00    -0.325 N 
HETATM    3  O   UNL     1      42.527 -10.509   7.083  1.00  0.00    -0.270 OA
HETATM    4  H   UNL     1      44.879 -12.470   7.911  1.00  0.00     0.169 HD
ENDROOT
BRANCH   2   5
HETATM    5  C   UNL     1      43.403 -13.357   6.765  1.00  0.00     0.035 A 
HETATM    6  C   UNL     1      43.162 -13.372   5.389  1.00  0.00     0.042 A 
HETATM    7  C   UNL     1      42.658 -14.522   4.757  1.00  0.00    -0.021 A 
HETATM    8  C   UNL     1      42.383 -15.657   5.533  1.00  0.00     0.012 A 
HETATM    9  C   UNL     1      42.608 -15.644   6.909  1.00  0.00     0.003 A 
HETATM   10  C   UNL     1      43.118 -14.500   7.521  1.00  0.00     0.029 A 
BRANCH   7  11
HETATM   11  C   UNL     1      42.456 -14.557   3.318  1.00  0.00     0.010 A 
HETATM   12  C   UNL     1      41.431 -14.008   2.512  1.00  0.00     0.152 A 
HETATM   13  N   UNL     1      41.602 -14.260   1.211  1.00  0.00    -0.187 NA
HETATM   14  N   UNL     1      42.737 -14.978   1.179  1.00  0.00    -0.289 N 
HETATM   15  H   UNL     1      43.079 -15.298   0.279  1.00  0.00     0.188 HD
HETATM   16  C   UNL     1      43.287 -15.181   2.410  1.00  0.00     0.123 A 
ENDBRANCH   7  11
ENDBRANCH   2   5
BRANCH   1  17
HETATM   17  C   UNL     1      44.776  -9.989   7.805  1.00  0.00     0.225 C 
HETATM   18  C   UNL     1      45.266 -10.335   9.220  1.00  0.00     0.083 C 
HETATM   19  C   UNL     1      44.472  -9.335   9.975  1.00  0.00    -0.021 A 
HETATM   20  C   UNL     1      44.053  -8.342   9.109  1.00  0.00     0.076 A 
HETATM   21  C   UNL     1      44.130  -9.297  11.313  1.00  0.00     0.017 A 
HETATM   22  C   UNL     1      43.301  -7.267   9.530  1.00  0.00     0.044 A 
HETATM   23  O   UNL     1      44.376  -8.594   7.795  1.00  0.00    -0.336 OA
HETATM   24  C   UNL     1      42.921  -7.209  10.881  1.00  0.00    -0.053 A 
HETATM   25  C   UNL     1      43.328  -8.238  11.775  1.00  0.00    -0.055 A 
HETATM   26  C   UNL     1      42.048  -6.074  11.343  1.00  0.00     0.049 C 
HETATM   27  C   UNL     1      42.883  -8.237  13.214  1.00  0.00     0.049 C 
ENDBRANCH   1  17
TORSDOF 3
ENDMDL
MODEL 8
REMARK VINA RESULT:      -8.0      6.666      9.187
REMARK  3 active torsions:
REMARK  status: ('A' for Active; 'I' for Inactive)
REMARK    1  A    between atoms: C_9  and  C_10 
REMARK       I    between atoms: C_10  and  N_11 
REMARK    2  A    between atoms: N_11  and  C_12 
REMARK    3  A    between atoms: C_14  and  C_15 
ROOT
HETATM    1  C   UNL     1      43.779 -10.179   7.646  1.00  0.00     0.252 C 
HETATM    2  N   UNL     1      44.386 -11.374   7.305  1.00  0.00    -0.325 N 
HETATM    3  O   UNL     1      42.593  -9.896   7.489  1.00  0.00    -0.270 OA
HETATM    4  H   UNL     1      45.329 -11.493   7.661  1.00  0.00     0.169 HD
ENDROOT
BRANCH   2   5
HETATM    5  C   UNL     1      43.921 -12.359   6.417  1.00  0.00     0.035 A 
HETATM    6  C   UNL     1      43.981 -13.730   6.679  1.00  0.00     0.042 A 
HETATM    7  C   UNL     1      43.403 -14.659   5.797  1.00  0.00    -0.021 A 
HETATM    8  C   UNL     1      42.774 -14.192   4.635  1.00  0.00     0.012 A 
HETATM    9  C   UNL     1      42.723 -12.825   4.360  1.00  0.00     0.003 A 
HETATM   10  C   UNL     1      43.291 -11.914   5.249  1.00  0.00     0.029 A 
BRANCH   7  11
HETATM   11  C   UNL     1      43.418 -16.082   6.094  1.00  0.00     0.010 A 
HETATM   12  C   UNL     1      43.700 -17.198   5.271  1.00  0.00     0.152 A 
HETATM   13  N   UNL     1      43.608 -18.361   5.922  1.00  0.00    -0.187 NA
HETATM   14  N   UNL     1      43.262 -17.994   7.167  1.00  0.00    -0.289 N 
HETATM   15  H   UNL     1      43.127 -18.720   7.863  1.00  0.00     0.188 HD
HETATM   16  C   UNL     1      43.138 -16.645   7.322  1.00  0.00     0.123 A 
ENDBRANCH   7  11
ENDBRANCH   2   5
BRANCH   1  17
HETATM   17  C   UNL     1      44.778  -9.127   8.186  1.00  0.00     0.225 C 
HETATM   18  C   UNL     1      45.268  -9.572   9.573  1.00  0.00     0.083 C 
HETATM   19  C   UNL     1      44.322  -8.786  10.401  1.00  0.00    -0.021 A 
HETATM   20  C   UNL     1      43.797  -7.760   9.636  1.00  0.00     0.076 A 
HETATM   21  C   UNL     1      43.938  -8.955  11.716  1.00  0.00     0.017 A 
HETATM   22  C   UNL     1      42.892  -6.853  10.143  1.00  0.00     0.044 A 
HETATM   23  O   UNL     1      44.191  -7.806   8.319  1.00  0.00    -0.336 OA
HETATM   24  C   UNL     1      42.467  -7.009  11.473  1.00  0.00    -0.053 A 
HETATM   25  C   UNL     1      42.984  -8.075  12.260  1.00  0.00    -0.055 A 
HETATM   26  C   UNL     1      41.433  -6.064  12.022  1.00  0.00     0.049 C 
HETATM   27  C   UNL     1      42.501  -8.307  13.668  1.00  0.00     0.049 C 
ENDBRANCH   1  17
TORSDOF 3
ENDMDL
MODEL 9
REMARK VINA RESULT:      -7.9      6.597      9.663
REMARK  3 active torsions:
REMARK  status: ('A' for Active; 'I' for Inactive)
REMARK    1  A    between atoms: C_9  and  C_10 
REMARK       I    between atoms: C_10  and  N_11 
REMARK    2  A    between atoms: N_11  and  C_12 
REMARK    3  A    between atoms: C_14  and  C_15 
ROOT
HETATM    1  C   UNL     1      44.131 -10.704   7.700  1.00  0.00     0.252 C 
HETATM    2  N   UNL     1      43.258 -10.281   6.714  1.00  0.00    -0.325 N 
HETATM    3  O   UNL     1      44.142 -11.810   8.235  1.00  0.00    -0.270 OA
HETATM    4  H   UNL     1      43.504  -9.401   6.272  1.00  0.00     0.169 HD
ENDROOT
BRANCH   2   5
HETATM    5  C   UNL     1      42.016 -10.836   6.362  1.00  0.00     0.035 A 
HETATM    6  C   UNL     1      41.873 -11.971   5.561  1.00  0.00     0.042 A 
HETATM    7  C   UNL     1      40.608 -12.538   5.332  1.00  0.00    -0.021 A 
HETATM    8  C   UNL     1      39.480 -11.937   5.908  1.00  0.00     0.012 A 
HETATM    9  C   UNL     1      39.614 -10.795   6.698  1.00  0.00     0.003 A 
HETATM   10  C   UNL     1      40.877 -10.250   6.925  1.00  0.00     0.029 A 
BRANCH   7  11
HETATM   11  C   UNL     1      40.463 -13.750   4.542  1.00  0.00     0.010 A 
HETATM   12  C   UNL     1      40.838 -15.086   4.817  1.00  0.00     0.152 A 
HETATM   13  N   UNL     1      40.530 -15.928   3.826  1.00  0.00    -0.187 NA
HETATM   14  N   UNL     1      39.959 -15.131   2.908  1.00  0.00    -0.289 N 
HETATM   15  H   UNL     1      39.636 -15.549   2.042  1.00  0.00     0.188 HD
HETATM   16  C   UNL     1      39.892 -13.823   3.288  1.00  0.00     0.123 A 
ENDBRANCH   7  11
ENDBRANCH   2   5
BRANCH   1  17
HETATM   17  C   UNL     1      45.092  -9.587   8.174  1.00  0.00     0.225 C 
HETATM   18  C   UNL     1      45.516  -9.877   9.622  1.00  0.00     0.083 C 
HETATM   19  C   UNL     1      44.522  -9.022  10.316  1.00  0.00    -0.021 A 
HETATM   20  C   UNL     1      44.027  -8.090   9.423  1.00  0.00     0.076 A 
HETATM   21  C   UNL     1      44.075  -9.057  11.622  1.00  0.00     0.017 A 
HETATM   22  C   UNL     1      43.089  -7.148   9.786  1.00  0.00     0.044 A 
HETATM   23  O   UNL     1      44.486  -8.268   8.138  1.00  0.00    -0.336 OA
HETATM   24  C   UNL     1      42.600  -7.170  11.103  1.00  0.00    -0.053 A 
HETATM   25  C   UNL     1      43.087  -8.139  12.023  1.00  0.00    -0.055 A 
HETATM   26  C   UNL     1      41.531  -6.187  11.499  1.00  0.00     0.049 C 
HETATM   27  C   UNL     1      42.536  -8.229  13.422  1.00  0.00     0.049 C 
ENDBRANCH   1  17
TORSDOF 3
ENDMDL
MODEL 10
REMARK VINA RESULT:      -7.8      5.894      8.685
REMARK  3 active torsions:
REMARK  status: ('A' for Active; 'I' for Inactive)
REMARK    1  A    between atoms: C_9  and  C_10 
REMARK       I    between atoms: C_10  and  N_11 
REMARK    2  A    between atoms: N_11  and  C_12 
REMARK    3  A    between atoms: C_14  and  C_15 
ROOT
HETATM    1  C   UNL     1      42.199 -11.101   5.725  1.00  0.00     0.252 C 
HETATM    2  N   UNL     1      42.833 -11.538   6.874  1.00  0.00    -0.325 N 
HETATM    3  O   UNL     1      42.472 -10.087   5.085  1.00  0.00    -0.270 OA
HETATM    4  H   UNL     1      42.588 -12.478   7.168  1.00  0.00     0.169 HD
ENDROOT
BRANCH   2   5
HETATM    5  C   UNL     1      43.646 -10.797   7.749  1.00  0.00     0.035 A 
HETATM    6  C   UNL     1      43.147  -9.943   8.735  1.00  0.00     0.042 A 
HETATM    7  C   UNL     1      44.009  -9.313   9.648  1.00  0.00    -0.021 A 
HETATM    8  C   UNL     1      45.388  -9.540   9.547  1.00  0.00     0.012 A 
HETATM    9  C   UNL     1      45.895 -10.381   8.556  1.00  0.00     0.003 A 
HETATM   10  C   UNL     1      45.027 -11.008   7.664  1.00  0.00     0.029 A 
BRANCH   7  11
HETATM   11  C   UNL     1      43.487  -8.466  10.708  1.00  0.00     0.010 A 
HETATM   12  C   UNL     1      42.807  -7.226  10.653  1.00  0.00     0.152 A 
HETATM   13  N   UNL     1      42.485  -6.756  11.862  1.00  0.00    -0.187 NA
HETATM   14  N   UNL     1      42.963  -7.693  12.698  1.00  0.00    -0.289 N 
HETATM   15  H   UNL     1      42.841  -7.556  13.696  1.00  0.00     0.188 HD
HETATM   16  C   UNL     1      43.568  -8.735  12.059  1.00  0.00     0.123 A 
ENDBRANCH   7  11
ENDBRANCH   2   5
BRANCH   1  17
HETATM   17  C   UNL     1      40.988 -11.982   5.332  1.00  0.00     0.225 C 
HETATM   18  C   UNL     1      41.048 -13.294   6.128  1.00  0.00     0.083 C 
HETATM   19  C   UNL     1      41.721 -14.137   5.109  1.00  0.00    -0.021 A 
HETATM   20  C   UNL     1      41.577 -13.545   3.867  1.00  0.00     0.076 A 
HETATM   21  C   UNL     1      42.414 -15.323   5.251  1.00  0.00     0.017 A 
HETATM   22  C   UNL     1      42.092 -14.108   2.720  1.00  0.00     0.044 A 
HETATM   23  O   UNL     1      40.967 -12.313   3.918  1.00  0.00    -0.336 OA
HETATM   24  C   UNL     1      42.818 -15.305   2.834  1.00  0.00    -0.053 A 
HETATM   25  C   UNL     1      42.991 -15.909   4.110  1.00  0.00    -0.055 A 
HETATM   26  C   UNL     1      43.440 -15.900   1.599  1.00  0.00     0.049 C 
HETATM   27  C   UNL     1      43.818 -17.157   4.273  1.00  0.00     0.049 C 
ENDBRANCH   1  17
TORSDOF 3
ENDMDL
