MODEL 1
REMARK VINA RESULT:      -8.9      0.000      0.000
REMARK  7 active torsions:
REMARK  status: ('A' for Active; 'I' for Inactive)
REMARK       I    between atoms: C_2  and  N_3 
REMARK    1  A    between atoms: N_3  and  C_4 
REMARK    2  A    between atoms: C_6  and  N_7 
REMARK       I    between atoms: N_7  and  C_8 
REMARK       I    between atoms: C_8  and  N_9 
REMARK    3  A    between atoms: N_9  and  C_10 
REMARK    4  A    between atoms: C_10  and  C_11 
REMARK    5  A    between atoms: C_11  and  C_12 
REMARK    6  A    between atoms: N_14  and  C_16 
REMARK    7  A    between atoms: C_16  and  C_17 
ROOT
HETATM    1  N   UNL     1      42.817 -11.247   5.468  1.00  0.00    -0.309 N 
HETATM    2  C   UNL     1      41.730 -12.060   5.363  1.00  0.00     0.320 C 
HETATM    3  N   UNL     1      41.511 -12.953   6.363  1.00  0.00    -0.343 N 
HETATM    4  O   UNL     1      40.995 -11.977   4.378  1.00  0.00    -0.247 OA
HETATM    5  H   UNL     1      43.037 -10.805   4.584  1.00  0.00     0.170 HD
HETATM    6  H   UNL     1      42.331 -13.180   6.914  1.00  0.00     0.164 HD
ENDROOT
BRANCH   3   7
HETATM    7  C   UNL     1      40.511 -13.996   6.290  1.00  0.00     0.125 C 
BRANCH   7   8
HETATM    8  C   UNL     1      41.083 -15.416   6.341  1.00  0.00     0.026 C 
BRANCH   8   9
HETATM    9  C   UNL     1      41.521 -16.088   5.033  1.00  0.00     0.014 C 
HETATM   10  C   UNL     1      42.719 -15.468   4.326  1.00  0.00     0.240 C 
HETATM   11  N   UNL     1      42.595 -15.922   2.884  1.00  0.00    -0.067 N 
HETATM   12  H   UNL     1      42.558 -15.055   2.329  1.00  0.00     0.280 HD
HETATM   13  C   UNL     1      41.256 -16.609   2.729  1.00  0.00     0.235 C 
HETATM   14  C   UNL     1      40.460 -16.197   3.949  1.00  0.00     0.034 C 
BRANCH  11  15
HETATM   15  C   UNL     1      43.736 -16.748   2.367  1.00  0.00     0.273 C 
BRANCH  15  16
HETATM   16  C   UNL     1      43.745 -18.167   2.865  1.00  0.00    -0.033 A 
HETATM   17  C   UNL     1      43.319 -19.219   2.038  1.00  0.00     0.009 A 
HETATM   18  C   UNL     1      43.352 -20.538   2.494  1.00  0.00     0.001 A 
HETATM   19  C   UNL     1      43.809 -20.820   3.778  1.00  0.00     0.000 A 
HETATM   20  C   UNL     1      44.233 -19.786   4.609  1.00  0.00     0.001 A 
HETATM   21  C   UNL     1      44.199 -18.465   4.159  1.00  0.00     0.009 A 
ENDBRANCH  15  16
ENDBRANCH  11  15
ENDBRANCH   8   9
ENDBRANCH   7   8
ENDBRANCH   3   7
BRANCH   1  22
HETATM   22  C   UNL     1      43.667 -10.922   6.547  1.00  0.00     0.038 A 
HETATM   23  C   UNL     1      43.250 -10.269   7.714  1.00  0.00     0.059 A 
HETATM   24  C   UNL     1      44.150  -9.998   8.752  1.00  0.00     0.036 A 
HETATM   25  C   UNL     1      45.496 -10.347   8.591  1.00  0.00     0.029 A 
HETATM   26  C   UNL     1      45.933 -10.955   7.416  1.00  0.00     0.004 A 
HETATM   27  C   UNL     1      45.022 -11.237   6.397  1.00  0.00     0.029 A 
BRANCH  24  28
HETATM   28  N   UNL     1      43.791  -9.381   9.969  1.00  0.00    -0.327 N 
HETATM   29  C   UNL     1      43.668  -9.975  11.212  1.00  0.00     0.218 C 
HETATM   30  C   UNL     1      43.286  -8.994  12.297  1.00  0.00     0.117 C 
HETATM   31  O   UNL     1      43.863 -11.156  11.480  1.00  0.00    -0.274 OA
HETATM   32  H   UNL     1      43.648  -8.377   9.928  1.00  0.00     0.169 HD
ENDBRANCH  24  28
ENDBRANCH   1  22
TORSDOF 7
ENDMDL
MODEL 2
REMARK VINA RESULT:      -8.8      3.220      7.012
REMARK  7 active torsions:
REMARK  status: ('A' for Active; 'I' for Inactive)
REMARK       I    between atoms: C_2  and  N_3 
REMARK    1  A    between atoms: N_3  and  C_4 
REMARK    2  A    between atoms: C_6  and  N_7 
REMARK       I    between atoms: N_7  and  C_8 
REMARK       I    between atoms: C_8  and  N_9 
REMARK    3  A    between atoms: N_9  and  C_10 
REMARK    4  A    between atoms: C_10  and  C_11 
REMARK    5  A    between atoms: C_11  and  C_12 
REMARK    6  A    between atoms: N_14  and  C_16 
REMARK    7  A    between atoms: C_16  and  C_17 
ROOT
HETATM    1  N   UNL     1      39.171 -13.139   3.886  1.00  0.00    -0.309 N 
HETATM    2  C   UNL     1      39.776 -12.590   4.975  1.00  0.00     0.320 C 
HETATM    3  N   UNL     1      41.105 -12.822   5.142  1.00  0.00    -0.343 N 
HETATM    4  O   UNL     1      39.116 -11.924   5.773  1.00  0.00    -0.247 OA
HETATM    5  H   UNL     1      38.162 -13.127   3.977  1.00  0.00     0.170 HD
HETATM    6  H   UNL     1      41.455 -13.640   4.658  1.00  0.00     0.164 HD
ENDROOT
BRANCH   3   7
HETATM    7  C   UNL     1      41.827 -12.462   6.343  1.00  0.00     0.125 C 
BRANCH   7   8
HETATM    8  C   UNL     1      43.292 -12.912   6.350  1.00  0.00     0.026 C 
BRANCH   8   9
HETATM    9  C   UNL     1      43.609 -14.404   6.522  1.00  0.00     0.014 C 
HETATM   10  C   UNL     1      43.475 -15.268   5.274  1.00  0.00     0.240 C 
HETATM   11  N   UNL     1      43.294 -16.679   5.800  1.00  0.00    -0.067 N 
HETATM   12  H   UNL     1      42.397 -17.001   5.407  1.00  0.00     0.280 HD
HETATM   13  C   UNL     1      43.122 -16.596   7.300  1.00  0.00     0.235 C 
HETATM   14  C   UNL     1      42.804 -15.142   7.579  1.00  0.00     0.034 C 
BRANCH  11  15
HETATM   15  C   UNL     1      44.351 -17.663   5.388  1.00  0.00     0.273 C 
BRANCH  15  16
HETATM   16  C   UNL     1      43.942 -18.570   4.261  1.00  0.00    -0.033 A 
HETATM   17  C   UNL     1      43.333 -18.049   3.108  1.00  0.00     0.009 A 
HETATM   18  C   UNL     1      42.976 -18.890   2.052  1.00  0.00     0.001 A 
HETATM   19  C   UNL     1      43.224 -20.257   2.136  1.00  0.00     0.000 A 
HETATM   20  C   UNL     1      43.826 -20.788   3.275  1.00  0.00     0.001 A 
HETATM   21  C   UNL     1      44.181 -19.951   4.335  1.00  0.00     0.009 A 
ENDBRANCH  15  16
ENDBRANCH  11  15
ENDBRANCH   8   9
ENDBRANCH   7   8
ENDBRANCH   3   7
BRANCH   1  22
HETATM   22  C   UNL     1      39.675 -13.704   2.696  1.00  0.00     0.038 A 
HETATM   23  C   UNL     1      40.021 -12.969   1.555  1.00  0.00     0.059 A 
HETATM   24  C   UNL     1      40.535 -13.601   0.415  1.00  0.00     0.036 A 
HETATM   25  C   UNL     1      40.658 -14.996   0.410  1.00  0.00     0.029 A 
HETATM   26  C   UNL     1      40.275 -15.742   1.523  1.00  0.00     0.004 A 
HETATM   27  C   UNL     1      39.782 -15.099   2.658  1.00  0.00     0.029 A 
BRANCH  24  28
HETATM   28  N   UNL     1      40.941 -12.919  -0.752  1.00  0.00    -0.327 N 
HETATM   29  C   UNL     1      40.279 -12.855  -1.965  1.00  0.00     0.218 C 
HETATM   30  C   UNL     1      41.005 -12.010  -2.985  1.00  0.00     0.117 C 
HETATM   31  O   UNL     1      39.204 -13.380  -2.240  1.00  0.00    -0.274 OA
HETATM   32  H   UNL     1      41.797 -12.381  -0.671  1.00  0.00     0.169 HD
ENDBRANCH  24  28
ENDBRANCH   1  22
TORSDOF 7
ENDMDL
MODEL 3
REMARK VINA RESULT:      -8.3      2.354      3.810
REMARK  7 active torsions:
REMARK  status: ('A' for Active; 'I' for Inactive)
REMARK       I    between atoms: C_2  and  N_3 
REMARK    1  A    between atoms: N_3  and  C_4 
REMARK    2  A    between atoms: C_6  and  N_7 
REMARK       I    between atoms: N_7  and  C_8 
REMARK       I    between atoms: C_8  and  N_9 
REMARK    3  A    between atoms: N_9  and  C_10 
REMARK    4  A    between atoms: C_10  and  C_11 
REMARK    5  A    between atoms: C_11  and  C_12 
REMARK    6  A    between atoms: N_14  and  C_16 
REMARK    7  A    between atoms: C_16  and  C_17 
ROOT
HETATM    1  N   UNL     1      45.164  -9.577   9.278  1.00  0.00    -0.309 N 
HETATM    2  C   UNL     1      45.471 -10.372   8.217  1.00  0.00     0.320 C 
HETATM    3  N   UNL     1      44.458 -11.064   7.633  1.00  0.00    -0.343 N 
HETATM    4  O   UNL     1      46.638 -10.456   7.831  1.00  0.00    -0.247 OA
HETATM    5  H   UNL     1      45.993  -9.308   9.794  1.00  0.00     0.170 HD
HETATM    6  H   UNL     1      43.646 -11.203   8.222  1.00  0.00     0.164 HD
ENDROOT
BRANCH   3   7
HETATM    7  C   UNL     1      44.670 -12.082   6.626  1.00  0.00     0.125 C 
BRANCH   7   8
HETATM    8  C   UNL     1      43.436 -12.943   6.339  1.00  0.00     0.026 C 
BRANCH   8   9
HETATM    9  C   UNL     1      43.537 -14.465   6.509  1.00  0.00     0.014 C 
HETATM   10  C   UNL     1      43.690 -15.276   5.229  1.00  0.00     0.240 C 
HETATM   11  N   UNL     1      43.220 -16.671   5.596  1.00  0.00    -0.067 N 
HETATM   12  H   UNL     1      42.451 -16.878   4.942  1.00  0.00     0.280 HD
HETATM   13  C   UNL     1      42.622 -16.607   6.984  1.00  0.00     0.235 C 
HETATM   14  C   UNL     1      42.384 -15.134   7.241  1.00  0.00     0.034 C 
BRANCH  11  15
HETATM   15  C   UNL     1      44.246 -17.757   5.454  1.00  0.00     0.273 C 
BRANCH  15  16
HETATM   16  C   UNL     1      43.962 -18.730   4.342  1.00  0.00    -0.033 A 
HETATM   17  C   UNL     1      44.136 -20.110   4.537  1.00  0.00     0.009 A 
HETATM   18  C   UNL     1      43.849 -21.012   3.511  1.00  0.00     0.001 A 
HETATM   19  C   UNL     1      43.385 -20.548   2.284  1.00  0.00     0.000 A 
HETATM   20  C   UNL     1      43.209 -19.181   2.077  1.00  0.00     0.001 A 
HETATM   21  C   UNL     1      43.499 -18.274   3.098  1.00  0.00     0.009 A 
ENDBRANCH  15  16
ENDBRANCH  11  15
ENDBRANCH   8   9
ENDBRANCH   7   8
ENDBRANCH   3   7
BRANCH   1  22
HETATM   22  C   UNL     1      43.941  -9.078   9.776  1.00  0.00     0.038 A 
HETATM   23  C   UNL     1      42.929  -9.873  10.331  1.00  0.00     0.059 A 
HETATM   24  C   UNL     1      41.749  -9.301  10.824  1.00  0.00     0.036 A 
HETATM   25  C   UNL     1      41.568  -7.918  10.713  1.00  0.00     0.029 A 
HETATM   26  C   UNL     1      42.547  -7.122  10.122  1.00  0.00     0.004 A 
HETATM   27  C   UNL     1      43.726  -7.701   9.653  1.00  0.00     0.029 A 
BRANCH  24  28
HETATM   28  N   UNL     1      40.709 -10.036  11.430  1.00  0.00    -0.327 N 
HETATM   29  C   UNL     1      40.440 -10.161  12.781  1.00  0.00     0.218 C 
HETATM   30  C   UNL     1      39.225 -11.014  13.062  1.00  0.00     0.117 C 
HETATM   31  O   UNL     1      41.062  -9.640  13.701  1.00  0.00    -0.274 OA
HETATM   32  H   UNL     1      40.061 -10.489  10.793  1.00  0.00     0.169 HD
ENDBRANCH  24  28
ENDBRANCH   1  22
TORSDOF 7
ENDMDL
MODEL 4
REMARK VINA RESULT:      -8.3      2.468      3.589
REMARK  7 active torsions:
REMARK  status: ('A' for Active; 'I' for Inactive)
REMARK       I    between atoms: C_2  and  N_3 
REMARK    1  A    between atoms: N_3  and  C_4 
REMARK    2  A    between atoms: C_6  and  N_7 
REMARK       I    between atoms: N_7  and  C_8 
REMARK       I    between atoms: C_8  and  N_9 
REMARK    3  A    between atoms: N_9  and  C_10 
REMARK    4  A    between atoms: C_10  and  C_11 
REMARK    5  A    between atoms: C_11  and  C_12 
REMARK    6  A    between atoms: N_14  and  C_16 
REMARK    7  A    between atoms: C_16  and  C_17 
ROOT
HETATM    1  N   UNL     1      44.863 -10.739   8.687  1.00  0.00    -0.309 N 
HETATM    2  C   UNL     1      44.470 -11.244   7.485  1.00  0.00     0.320 C 
HETATM    3  N   UNL     1      43.139 -11.273   7.217  1.00  0.00    -0.343 N 
HETATM    4  O   UNL     1      45.314 -11.668   6.693  1.00  0.00    -0.247 OA
HETATM    5  H   UNL     1      45.822 -10.985   8.898  1.00  0.00     0.170 HD
HETATM    6  H   UNL     1      42.542 -11.244   8.035  1.00  0.00     0.164 HD
ENDROOT
BRANCH   3   7
HETATM    7  C   UNL     1      42.575 -11.950   6.069  1.00  0.00     0.125 C 
BRANCH   7   8
HETATM    8  C   UNL     1      41.981 -13.326   6.384  1.00  0.00     0.026 C 
BRANCH   8   9
HETATM    9  C   UNL     1      42.915 -14.542   6.453  1.00  0.00     0.014 C 
HETATM   10  C   UNL     1      42.739 -15.588   5.359  1.00  0.00     0.240 C 
HETATM   11  N   UNL     1      43.333 -16.857   5.940  1.00  0.00    -0.067 N 
HETATM   12  H   UNL     1      42.570 -17.550   5.913  1.00  0.00     0.280 HD
HETATM   13  C   UNL     1      43.650 -16.596   7.395  1.00  0.00     0.235 C 
HETATM   14  C   UNL     1      42.880 -15.340   7.746  1.00  0.00     0.034 C 
BRANCH  11  15
HETATM   15  C   UNL     1      44.496 -17.430   5.184  1.00  0.00     0.273 C 
BRANCH  15  16
HETATM   16  C   UNL     1      44.125 -18.526   4.222  1.00  0.00    -0.033 A 
HETATM   17  C   UNL     1      44.250 -19.875   4.592  1.00  0.00     0.009 A 
HETATM   18  C   UNL     1      43.882 -20.890   3.708  1.00  0.00     0.001 A 
HETATM   19  C   UNL     1      43.386 -20.570   2.447  1.00  0.00     0.000 A 
HETATM   20  C   UNL     1      43.258 -19.237   2.067  1.00  0.00     0.001 A 
HETATM   21  C   UNL     1      43.628 -18.218   2.947  1.00  0.00     0.009 A 
ENDBRANCH  15  16
ENDBRANCH  11  15
ENDBRANCH   8   9
ENDBRANCH   7   8
ENDBRANCH   3   7
BRANCH   1  22
HETATM   22  C   UNL     1      44.198  -9.964   9.661  1.00  0.00     0.038 A 
HETATM   23  C   UNL     1      43.899  -8.602   9.519  1.00  0.00     0.059 A 
HETATM   24  C   UNL     1      43.217  -7.904  10.524  1.00  0.00     0.036 A 
HETATM   25  C   UNL     1      42.874  -8.575  11.704  1.00  0.00     0.029 A 
HETATM   26  C   UNL     1      43.207  -9.918  11.875  1.00  0.00     0.004 A 
HETATM   27  C   UNL     1      43.870 -10.606  10.859  1.00  0.00     0.029 A 
BRANCH  24  28
HETATM   28  N   UNL     1      42.849  -6.545  10.432  1.00  0.00    -0.327 N 
HETATM   29  C   UNL     1      41.852  -5.993   9.648  1.00  0.00     0.218 C 
HETATM   30  C   UNL     1      41.727  -4.497   9.824  1.00  0.00     0.117 C 
HETATM   31  O   UNL     1      41.097  -6.597   8.892  1.00  0.00    -0.274 OA
HETATM   32  H   UNL     1      43.349  -5.911  11.045  1.00  0.00     0.169 HD
ENDBRANCH  24  28
ENDBRANCH   1  22
TORSDOF 7
ENDMDL
MODEL 5
REMARK VINA RESULT:      -8.2      1.090      1.765
REMARK  7 active torsions:
REMARK  status: ('A' for Active; 'I' for Inactive)
REMARK       I    between atoms: C_2  and  N_3 
REMARK    1  A    between atoms: N_3  and  C_4 
REMARK    2  A    between atoms: C_6  and  N_7 
REMARK       I    between atoms: N_7  and  C_8 
REMARK       I    between atoms: C_8  and  N_9 
REMARK    3  A    between atoms: N_9  and  C_10 
REMARK    4  A    between atoms: C_10  and  C_11 
REMARK    5  A    between atoms: C_11  and  C_12 
REMARK    6  A    between atoms: N_14  and  C_16 
REMARK    7  A    between atoms: C_16  and  C_17 
ROOT
HETATM    1  N   UNL     1      43.833 -11.077   5.464  1.00  0.00    -0.309 N 
HETATM    2  C   UNL     1      42.573 -11.172   4.959  1.00  0.00     0.320 C 
HETATM    3  N   UNL     1      41.543 -11.253   5.842  1.00  0.00    -0.343 N 
HETATM    4  O   UNL     1      42.401 -11.196   3.739  1.00  0.00    -0.247 OA
HETATM    5  H   UNL     1      44.532 -11.274   4.758  1.00  0.00     0.170 HD
HETATM    6  H   UNL     1      41.803 -11.577   6.765  1.00  0.00     0.164 HD
ENDROOT
BRANCH   3   7
HETATM    7  C   UNL     1      40.181 -11.544   5.448  1.00  0.00     0.125 C 
BRANCH   7   8
HETATM    8  C   UNL     1      39.713 -12.956   5.813  1.00  0.00     0.026 C 
BRANCH   8   9
HETATM    9  C   UNL     1      40.703 -14.122   5.689  1.00  0.00     0.014 C 
HETATM   10  C   UNL     1      41.073 -14.543   4.273  1.00  0.00     0.240 C 
HETATM   11  N   UNL     1      41.568 -15.970   4.410  1.00  0.00    -0.067 N 
HETATM   12  H   UNL     1      40.962 -16.528   3.791  1.00  0.00     0.280 HD
HETATM   13  C   UNL     1      41.294 -16.420   5.828  1.00  0.00     0.235 C 
HETATM   14  C   UNL     1      40.298 -15.419   6.372  1.00  0.00     0.034 C 
BRANCH  11  15
HETATM   15  C   UNL     1      42.990 -16.204   3.989  1.00  0.00     0.273 C 
BRANCH  15  16
HETATM   16  C   UNL     1      43.305 -17.636   3.656  1.00  0.00    -0.033 A 
HETATM   17  C   UNL     1      43.932 -18.469   4.597  1.00  0.00     0.009 A 
HETATM   18  C   UNL     1      44.201 -19.804   4.294  1.00  0.00     0.001 A 
HETATM   19  C   UNL     1      43.848 -20.323   3.051  1.00  0.00     0.000 A 
HETATM   20  C   UNL     1      43.226 -19.508   2.108  1.00  0.00     0.001 A 
HETATM   21  C   UNL     1      42.958 -18.170   2.405  1.00  0.00     0.009 A 
ENDBRANCH  15  16
ENDBRANCH  11  15
ENDBRANCH   8   9
ENDBRANCH   7   8
ENDBRANCH   3   7
BRANCH   1  22
HETATM   22  C   UNL     1      44.327 -10.771   6.750  1.00  0.00     0.038 A 
HETATM   23  C   UNL     1      43.522 -10.436   7.847  1.00  0.00     0.059 A 
HETATM   24  C   UNL     1      44.086 -10.163   9.100  1.00  0.00     0.036 A 
HETATM   25  C   UNL     1      45.479 -10.182   9.237  1.00  0.00     0.029 A 
HETATM   26  C   UNL     1      46.292 -10.468   8.141  1.00  0.00     0.004 A 
HETATM   27  C   UNL     1      45.717 -10.756   6.903  1.00  0.00     0.029 A 
BRANCH  24  28
HETATM   28  N   UNL     1      43.335  -9.860  10.256  1.00  0.00    -0.327 N 
HETATM   29  C   UNL     1      43.353 -10.520  11.471  1.00  0.00     0.218 C 
HETATM   30  C   UNL     1      42.428  -9.898  12.491  1.00  0.00     0.117 C 
HETATM   31  O   UNL     1      44.042 -11.492  11.765  1.00  0.00    -0.274 OA
HETATM   32  H   UNL     1      42.747  -9.036  10.194  1.00  0.00     0.169 HD
ENDBRANCH  24  28
ENDBRANCH   1  22
TORSDOF 7
ENDMDL
MODEL 6
REMARK VINA RESULT:      -8.2      2.264      9.878
REMARK  7 active torsions:
REMARK  status: ('A' for Active; 'I' for Inactive)
REMARK       I    between atoms: C_2  and  N_3 
REMARK    1  A    between atoms: N_3  and  C_4 
REMARK    2  A    between atoms: C_6  and  N_7 
REMARK       I    between atoms: N_7  and  C_8 
REMARK       I    between atoms: C_8  and  N_9 
REMARK    3  A    between atoms: N_9  and  C_10 
REMARK    4  A    between atoms: C_10  and  C_11 
REMARK    5  A    between atoms: C_11  and  C_12 
REMARK    6  A    between atoms: N_14  and  C_16 
REMARK    7  A    between atoms: C_16  and  C_17 
ROOT
HETATM    1  N   UNL     1      41.031 -15.027   6.150  1.00  0.00    -0.309 N 
HETATM    2  C   UNL     1      40.748 -13.697   6.092  1.00  0.00     0.320 C 
HETATM    3  N   UNL     1      41.785 -12.839   5.908  1.00  0.00    -0.343 N 
HETATM    4  O   UNL     1      39.585 -13.311   6.221  1.00  0.00    -0.247 OA
HETATM    5  H   UNL     1      40.256 -15.555   6.534  1.00  0.00     0.170 HD
HETATM    6  H   UNL     1      42.691 -13.209   6.168  1.00  0.00     0.164 HD
ENDROOT
BRANCH   3   7
HETATM    7  C   UNL     1      41.653 -11.401   6.014  1.00  0.00     0.125 C 
BRANCH   7   8
HETATM    8  C   UNL     1      42.976 -10.669   6.262  1.00  0.00     0.026 C 
BRANCH   8   9
HETATM    9  C   UNL     1      43.645 -10.787   7.638  1.00  0.00     0.014 C 
HETATM   10  C   UNL     1      42.970 -10.040   8.780  1.00  0.00     0.240 C 
HETATM   11  N   UNL     1      44.059  -9.856   9.820  1.00  0.00    -0.067 N 
HETATM   12  H   UNL     1      44.123  -8.838   9.968  1.00  0.00     0.280 HD
HETATM   13  C   UNL     1      45.366 -10.302   9.203  1.00  0.00     0.235 C 
HETATM   14  C   UNL     1      45.100 -10.354   7.714  1.00  0.00     0.034 C 
BRANCH  11  15
HETATM   15  C   UNL     1      43.795 -10.496  11.152  1.00  0.00     0.273 C 
BRANCH  15  16
HETATM   16  C   UNL     1      43.107  -9.597  12.141  1.00  0.00    -0.033 A 
HETATM   17  C   UNL     1      41.970 -10.036  12.838  1.00  0.00     0.009 A 
HETATM   18  C   UNL     1      41.348  -9.209  13.774  1.00  0.00     0.001 A 
HETATM   19  C   UNL     1      41.853  -7.936  14.025  1.00  0.00     0.000 A 
HETATM   20  C   UNL     1      42.980  -7.487  13.340  1.00  0.00     0.001 A 
HETATM   21  C   UNL     1      43.604  -8.310  12.400  1.00  0.00     0.009 A 
ENDBRANCH  15  16
ENDBRANCH  11  15
ENDBRANCH   8   9
ENDBRANCH   7   8
ENDBRANCH   3   7
BRANCH   1  22
HETATM   22  C   UNL     1      42.169 -15.779   5.789  1.00  0.00     0.038 A 
HETATM   23  C   UNL     1      42.211 -16.690   4.726  1.00  0.00     0.059 A 
HETATM   24  C   UNL     1      43.387 -17.386   4.417  1.00  0.00     0.036 A 
HETATM   25  C   UNL     1      44.520 -17.195   5.217  1.00  0.00     0.029 A 
HETATM   26  C   UNL     1      44.476 -16.326   6.306  1.00  0.00     0.004 A 
HETATM   27  C   UNL     1      43.305 -15.625   6.592  1.00  0.00     0.029 A 
BRANCH  24  28
HETATM   28  N   UNL     1      43.512 -18.286   3.337  1.00  0.00    -0.327 N 
HETATM   29  C   UNL     1      43.796 -19.638   3.395  1.00  0.00     0.218 C 
HETATM   30  C   UNL     1      43.828 -20.290   2.032  1.00  0.00     0.117 C 
HETATM   31  O   UNL     1      43.983 -20.304   4.409  1.00  0.00    -0.274 OA
HETATM   32  H   UNL     1      43.329 -17.898   2.418  1.00  0.00     0.169 HD
ENDBRANCH  24  28
ENDBRANCH   1  22
TORSDOF 7
ENDMDL
MODEL 7
REMARK VINA RESULT:      -8.1      2.178      3.574
REMARK  7 active torsions:
REMARK  status: ('A' for Active; 'I' for Inactive)
REMARK       I    between atoms: C_2  and  N_3 
REMARK    1  A    between atoms: N_3  and  C_4 
REMARK    2  A    between atoms: C_6  and  N_7 
REMARK       I    between atoms: N_7  and  C_8 
REMARK       I    between atoms: C_8  and  N_9 
REMARK    3  A    between atoms: N_9  and  C_10 
REMARK    4  A    between atoms: C_10  and  C_11 
REMARK    5  A    between atoms: C_11  and  C_12 
REMARK    6  A    between atoms: N_14  and  C_16 
REMARK    7  A    between atoms: C_16  and  C_17 
ROOT
HETATM    1  N   UNL     1      45.778  -9.711   8.801  1.00  0.00    -0.309 N 
HETATM    2  C   UNL     1      45.790 -10.448   7.656  1.00  0.00     0.320 C 
HETATM    3  N   UNL     1      44.598 -10.691   7.050  1.00  0.00    -0.343 N 
HETATM    4  O   UNL     1      46.856 -10.880   7.216  1.00  0.00    -0.247 OA
HETATM    5  H   UNL     1      46.653  -9.795   9.305  1.00  0.00     0.170 HD
HETATM    6  H   UNL     1      43.791 -10.610   7.656  1.00  0.00     0.164 HD
ENDROOT
BRANCH   3   7
HETATM    7  C   UNL     1      44.445 -11.609   5.942  1.00  0.00     0.125 C 
BRANCH   7   8
HETATM    8  C   UNL     1      43.001 -11.766   5.455  1.00  0.00     0.026 C 
BRANCH   8   9
HETATM    9  C   UNL     1      42.680 -12.851   4.419  1.00  0.00     0.014 C 
HETATM   10  C   UNL     1      43.031 -14.280   4.811  1.00  0.00     0.240 C 
HETATM   11  N   UNL     1      43.142 -15.026   3.494  1.00  0.00    -0.067 N 
HETATM   12  H   UNL     1      44.096 -15.415   3.483  1.00  0.00     0.280 HD
HETATM   13  C   UNL     1      43.061 -14.009   2.378  1.00  0.00     0.235 C 
HETATM   14  C   UNL     1      43.308 -12.672   3.046  1.00  0.00     0.034 C 
BRANCH  11  15
HETATM   15  C   UNL     1      42.182 -16.166   3.315  1.00  0.00     0.273 C 
BRANCH  15  16
HETATM   16  C   UNL     1      42.836 -17.519   3.262  1.00  0.00    -0.033 A 
HETATM   17  C   UNL     1      43.645 -17.964   4.320  1.00  0.00     0.009 A 
HETATM   18  C   UNL     1      44.231 -19.230   4.280  1.00  0.00     0.001 A 
HETATM   19  C   UNL     1      44.016 -20.064   3.186  1.00  0.00     0.000 A 
HETATM   20  C   UNL     1      43.217 -19.634   2.130  1.00  0.00     0.001 A 
HETATM   21  C   UNL     1      42.631 -18.367   2.163  1.00  0.00     0.009 A 
ENDBRANCH  15  16
ENDBRANCH  11  15
ENDBRANCH   8   9
ENDBRANCH   7   8
ENDBRANCH   3   7
BRANCH   1  22
HETATM   22  C   UNL     1      44.801  -8.884   9.395  1.00  0.00     0.038 A 
HETATM   23  C   UNL     1      44.210  -9.128  10.642  1.00  0.00     0.059 A 
HETATM   24  C   UNL     1      43.260  -8.248  11.176  1.00  0.00     0.036 A 
HETATM   25  C   UNL     1      42.867  -7.135  10.424  1.00  0.00     0.029 A 
HETATM   26  C   UNL     1      43.414  -6.906   9.163  1.00  0.00     0.004 A 
HETATM   27  C   UNL     1      44.374  -7.780   8.650  1.00  0.00     0.029 A 
BRANCH  24  28
HETATM   28  N   UNL     1      42.655  -8.411  12.441  1.00  0.00    -0.327 N 
HETATM   29  C   UNL     1      41.494  -9.100  12.738  1.00  0.00     0.218 C 
HETATM   30  C   UNL     1      41.160  -9.080  14.212  1.00  0.00     0.117 C 
HETATM   31  O   UNL     1      40.780  -9.707  11.945  1.00  0.00    -0.274 OA
HETATM   32  H   UNL     1      43.159  -8.009  13.224  1.00  0.00     0.169 HD
ENDBRANCH  24  28
ENDBRANCH   1  22
TORSDOF 7
ENDMDL
MODEL 8
REMARK VINA RESULT:      -8.1      1.602      3.169
REMARK  7 active torsions:
REMARK  status: ('A' for Active; 'I' for Inactive)
REMARK       I    between atoms: C_2  and  N_3 
REMARK    1  A    between atoms: N_3  and  C_4 
REMARK    2  A    between atoms: C_6  and  N_7 
REMARK       I    between atoms: N_7  and  C_8 
REMARK       I    between atoms: C_8  and  N_9 
REMARK    3  A    between atoms: N_9  and  C_10 
REMARK    4  A    between atoms: C_10  and  C_11 
REMARK    5  A    between atoms: C_11  and  C_12 
REMARK    6  A    between atoms: N_14  and  C_16 
REMARK    7  A    between atoms: C_16  and  C_17 
ROOT
HETATM    1  N   UNL     1      41.956 -11.733   5.466  1.00  0.00    -0.309 N 
HETATM    2  C   UNL     1      41.034 -12.729   5.573  1.00  0.00     0.320 C 
HETATM    3  N   UNL     1      41.282 -13.725   6.463  1.00  0.00    -0.343 N 
HETATM    4  O   UNL     1      40.026 -12.710   4.866  1.00  0.00    -0.247 OA
HETATM    5  H   UNL     1      41.816 -11.187   4.623  1.00  0.00     0.170 HD
HETATM    6  H   UNL     1      42.257 -13.834   6.714  1.00  0.00     0.164 HD
ENDROOT
BRANCH   3   7
HETATM    7  C   UNL     1      40.488 -14.932   6.545  1.00  0.00     0.125 C 
BRANCH   7   8
HETATM    8  C   UNL     1      41.308 -16.225   6.500  1.00  0.00     0.026 C 
BRANCH   8   9
HETATM    9  C   UNL     1      42.283 -16.447   5.336  1.00  0.00     0.014 C 
HETATM   10  C   UNL     1      41.656 -16.650   3.963  1.00  0.00     0.240 C 
HETATM   11  N   UNL     1      42.720 -17.368   3.154  1.00  0.00    -0.067 N 
HETATM   12  H   UNL     1      42.276 -18.243   2.840  1.00  0.00     0.280 HD
HETATM   13  C   UNL     1      43.840 -17.748   4.097  1.00  0.00     0.235 C 
HETATM   14  C   UNL     1      43.248 -17.613   5.484  1.00  0.00     0.034 C 
BRANCH  11  15
HETATM   15  C   UNL     1      43.206 -16.640   1.935  1.00  0.00     0.273 C 
BRANCH  15  16
HETATM   16  C   UNL     1      42.638 -15.256   1.777  1.00  0.00    -0.033 A 
HETATM   17  C   UNL     1      41.483 -15.041   1.008  1.00  0.00     0.009 A 
HETATM   18  C   UNL     1      40.944 -13.759   0.883  1.00  0.00     0.001 A 
HETATM   19  C   UNL     1      41.549 -12.682   1.523  1.00  0.00     0.000 A 
HETATM   20  C   UNL     1      42.696 -12.882   2.288  1.00  0.00     0.001 A 
HETATM   21  C   UNL     1      43.242 -14.161   2.413  1.00  0.00     0.009 A 
ENDBRANCH  15  16
ENDBRANCH  11  15
ENDBRANCH   8   9
ENDBRANCH   7   8
ENDBRANCH   3   7
BRANCH   1  22
HETATM   22  C   UNL     1      43.036 -11.338   6.283  1.00  0.00     0.038 A 
HETATM   23  C   UNL     1      42.910 -10.556   7.438  1.00  0.00     0.059 A 
HETATM   24  C   UNL     1      44.030 -10.221   8.210  1.00  0.00     0.036 A 
HETATM   25  C   UNL     1      45.296 -10.640   7.787  1.00  0.00     0.029 A 
HETATM   26  C   UNL     1      45.440 -11.379   6.614  1.00  0.00     0.004 A 
HETATM   27  C   UNL     1      44.315 -11.723   5.865  1.00  0.00     0.029 A 
BRANCH  24  28
HETATM   28  N   UNL     1      43.970  -9.472   9.405  1.00  0.00    -0.327 N 
HETATM   29  C   UNL     1      43.890  -9.953  10.699  1.00  0.00     0.218 C 
HETATM   30  C   UNL     1      43.867  -8.852  11.734  1.00  0.00     0.117 C 
HETATM   31  O   UNL     1      43.865 -11.131  11.041  1.00  0.00    -0.274 OA
HETATM   32  H   UNL     1      44.037  -8.466   9.296  1.00  0.00     0.169 HD
ENDBRANCH  24  28
ENDBRANCH   1  22
TORSDOF 7
ENDMDL
MODEL 9
REMARK VINA RESULT:      -8.1      1.863      2.926
REMARK  7 active torsions:
REMARK  status: ('A' for Active; 'I' for Inactive)
REMARK       I    between atoms: C_2  and  N_3 
REMARK    1  A    between atoms: N_3  and  C_4 
REMARK    2  A    between atoms: C_6  and  N_7 
REMARK       I    between atoms: N_7  and  C_8 
REMARK       I    between atoms: C_8  and  N_9 
REMARK    3  A    between atoms: N_9  and  C_10 
REMARK    4  A    between atoms: C_10  and  C_11 
REMARK    5  A    between atoms: C_11  and  C_12 
REMARK    6  A    between atoms: N_14  and  C_16 
REMARK    7  A    between atoms: C_16  and  C_17 
ROOT
HETATM    1  N   UNL     1      44.718 -11.322   6.520  1.00  0.00    -0.309 N 
HETATM    2  C   UNL     1      43.921 -11.115   5.437  1.00  0.00     0.320 C 
HETATM    3  N   UNL     1      42.748 -10.458   5.633  1.00  0.00    -0.343 N 
HETATM    4  O   UNL     1      44.268 -11.533   4.331  1.00  0.00    -0.247 OA
HETATM    5  H   UNL     1      45.427 -12.021   6.332  1.00  0.00     0.170 HD
HETATM    6  H   UNL     1      42.405 -10.480   6.585  1.00  0.00     0.164 HD
ENDROOT
BRANCH   3   7
HETATM    7  C   UNL     1      41.727 -10.337   4.614  1.00  0.00     0.125 C 
BRANCH   7   8
HETATM    8  C   UNL     1      40.409 -11.036   4.963  1.00  0.00     0.026 C 
BRANCH   8   9
HETATM    9  C   UNL     1      40.098 -12.397   4.325  1.00  0.00     0.014 C 
HETATM   10  C   UNL     1      41.216 -13.431   4.367  1.00  0.00     0.240 C 
HETATM   11  N   UNL     1      40.886 -14.403   3.250  1.00  0.00    -0.067 N 
HETATM   12  H   UNL     1      41.710 -14.395   2.632  1.00  0.00     0.280 HD
HETATM   13  C   UNL     1      39.730 -13.827   2.462  1.00  0.00     0.235 C 
HETATM   14  C   UNL     1      39.667 -12.369   2.867  1.00  0.00     0.034 C 
BRANCH  11  15
HETATM   15  C   UNL     1      40.649 -15.822   3.678  1.00  0.00     0.273 C 
BRANCH  15  16
HETATM   16  C   UNL     1      41.880 -16.687   3.648  1.00  0.00    -0.033 A 
HETATM   17  C   UNL     1      42.678 -16.835   4.795  1.00  0.00     0.009 A 
HETATM   18  C   UNL     1      43.805 -17.657   4.772  1.00  0.00     0.001 A 
HETATM   19  C   UNL     1      44.147 -18.340   3.608  1.00  0.00     0.000 A 
HETATM   20  C   UNL     1      43.365 -18.201   2.464  1.00  0.00     0.001 A 
HETATM   21  C   UNL     1      42.238 -17.376   2.480  1.00  0.00     0.009 A 
ENDBRANCH  15  16
ENDBRANCH  11  15
ENDBRANCH   8   9
ENDBRANCH   7   8
ENDBRANCH   3   7
BRANCH   1  22
HETATM   22  C   UNL     1      44.734 -10.763   7.816  1.00  0.00     0.038 A 
HETATM   23  C   UNL     1      43.713 -10.926   8.761  1.00  0.00     0.059 A 
HETATM   24  C   UNL     1      43.811 -10.356  10.036  1.00  0.00     0.036 A 
HETATM   25  C   UNL     1      44.929  -9.572  10.346  1.00  0.00     0.029 A 
HETATM   26  C   UNL     1      45.929  -9.364   9.398  1.00  0.00     0.004 A 
HETATM   27  C   UNL     1      45.829  -9.954   8.138  1.00  0.00     0.029 A 
BRANCH  24  28
HETATM   28  N   UNL     1      42.841 -10.513  11.049  1.00  0.00    -0.327 N 
HETATM   29  C   UNL     1      41.803  -9.655  11.365  1.00  0.00     0.218 C 
HETATM   30  C   UNL     1      40.945 -10.163  12.500  1.00  0.00     0.117 C 
HETATM   31  O   UNL     1      41.535  -8.596  10.806  1.00  0.00    -0.274 OA
HETATM   32  H   UNL     1      42.891 -11.379  11.575  1.00  0.00     0.169 HD
ENDBRANCH  24  28
ENDBRANCH   1  22
TORSDOF 7
ENDMDL
MODEL 10
REMARK VINA RESULT:      -8.1      2.602      4.217
REMARK  7 active torsions:
REMARK  status: ('A' for Active; 'I' for Inactive)
REMARK       I    between atoms: C_2  and  N_3 
REMARK    1  A    between atoms: N_3  and  C_4 
REMARK    2  A    between atoms: C_6  and  N_7 
REMARK       I    between atoms: N_7  and  C_8 
REMARK       I    between atoms: C_8  and  N_9 
REMARK    3  A    between atoms: N_9  and  C_10 
REMARK    4  A    between atoms: C_10  and  C_11 
REMARK    5  A    between atoms: C_11  and  C_12 
REMARK    6  A    between atoms: N_14  and  C_16 
REMARK    7  A    between atoms: C_16  and  C_17 
ROOT
HETATM    1  N   UNL     1      45.782  -9.500   9.010  1.00  0.00    -0.309 N 
HETATM    2  C   UNL     1      45.815 -10.462   8.047  1.00  0.00     0.320 C 
HETATM    3  N   UNL     1      44.645 -11.074   7.725  1.00  0.00    -0.343 N 
HETATM    4  O   UNL     1      46.885 -10.758   7.512  1.00  0.00    -0.247 OA
HETATM    5  H   UNL     1      46.710  -9.286   9.354  1.00  0.00     0.170 HD
HETATM    6  H   UNL     1      43.930 -11.020   8.440  1.00  0.00     0.164 HD
ENDROOT
BRANCH   3   7
HETATM    7  C   UNL     1      44.568 -12.233   6.863  1.00  0.00     0.125 C 
BRANCH   7   8
HETATM    8  C   UNL     1      43.166 -12.509   6.310  1.00  0.00     0.026 C 
BRANCH   8   9
HETATM    9  C   UNL     1      42.697 -13.963   6.166  1.00  0.00     0.014 C 
HETATM   10  C   UNL     1      41.237 -14.163   5.779  1.00  0.00     0.240 C 
HETATM   11  N   UNL     1      40.906 -15.572   6.234  1.00  0.00    -0.067 N 
HETATM   12  H   UNL     1      40.112 -15.467   6.883  1.00  0.00     0.280 HD
HETATM   13  C   UNL     1      42.078 -16.085   7.040  1.00  0.00     0.235 C 
HETATM   14  C   UNL     1      42.888 -14.852   7.384  1.00  0.00     0.034 C 
BRANCH  11  15
HETATM   15  C   UNL     1      40.487 -16.519   5.148  1.00  0.00     0.273 C 
BRANCH  15  16
HETATM   16  C   UNL     1      41.255 -16.362   3.864  1.00  0.00    -0.033 A 
HETATM   17  C   UNL     1      40.689 -15.687   2.770  1.00  0.00     0.009 A 
HETATM   18  C   UNL     1      41.413 -15.522   1.588  1.00  0.00     0.001 A 
HETATM   19  C   UNL     1      42.706 -16.026   1.486  1.00  0.00     0.000 A 
HETATM   20  C   UNL     1      43.278 -16.699   2.563  1.00  0.00     0.001 A 
HETATM   21  C   UNL     1      42.557 -16.871   3.746  1.00  0.00     0.009 A 
ENDBRANCH  15  16
ENDBRANCH  11  15
ENDBRANCH   8   9
ENDBRANCH   7   8
ENDBRANCH   3   7
BRANCH   1  22
HETATM   22  C   UNL     1      44.725  -8.774   9.599  1.00  0.00     0.038 A 
HETATM   23  C   UNL     1      44.093  -9.130  10.798  1.00  0.00     0.059 A 
HETATM   24  C   UNL     1      43.062  -8.346  11.332  1.00  0.00     0.036 A 
HETATM   25  C   UNL     1      42.632  -7.217  10.625  1.00  0.00     0.029 A 
HETATM   26  C   UNL     1      43.223  -6.878   9.409  1.00  0.00     0.004 A 
HETATM   27  C   UNL     1      44.261  -7.656   8.897  1.00  0.00     0.029 A 
BRANCH  24  28
HETATM   28  N   UNL     1      42.410  -8.623  12.552  1.00  0.00    -0.327 N 
HETATM   29  C   UNL     1      42.661  -8.059  13.790  1.00  0.00     0.218 C 
HETATM   30  C   UNL     1      41.746  -8.585  14.872  1.00  0.00     0.117 C 
HETATM   31  O   UNL     1      43.501  -7.201  14.046  1.00  0.00    -0.274 OA
HETATM   32  H   UNL     1      41.641  -9.282  12.500  1.00  0.00     0.169 HD
ENDBRANCH  24  28
ENDBRANCH   1  22
TORSDOF 7
ENDMDL
