MODEL 1
REMARK VINA RESULT:      -9.9      0.000      0.000
REMARK  4 active torsions:
REMARK  status: ('A' for Active; 'I' for Inactive)
REMARK    1  A    between atoms: C_7  and  C_8 
REMARK       I    between atoms: C_8  and  N_9 
REMARK    2  A    between atoms: N_9  and  N_10 
REMARK       I    between atoms: N_10  and  C_11 
REMARK    3  A    between atoms: C_11  and  C_12 
REMARK    4  A    between atoms: C_12  and  C_13 
ROOT
HETATM    1  C   UNL     1      44.308 -11.825   7.276  1.00  0.00     0.273 C 
HETATM    2  N   UNL     1      43.618 -13.023   7.347  1.00  0.00    -0.263 N 
HETATM    3  O   UNL     1      45.488 -11.770   6.934  1.00  0.00    -0.266 OA
HETATM    4  H   UNL     1      42.602 -12.993   7.266  1.00  0.00     0.190 HD
ENDROOT
BRANCH   2   5
HETATM    5  N   UNL     1      44.221 -14.163   6.767  1.00  0.00    -0.267 N 
HETATM    6  C   UNL     1      43.534 -15.352   6.899  1.00  0.00     0.240 C 
HETATM    7  O   UNL     1      42.542 -15.443   7.629  1.00  0.00    -0.272 OA
HETATM    8  H   UNL     1      44.792 -13.979   5.940  1.00  0.00     0.190 HD
BRANCH   6   9
HETATM    9  C   UNL     1      44.085 -16.567   6.177  1.00  0.00     0.144 C 
BRANCH   9  10
HETATM   10  C   UNL     1      43.647 -16.773   4.740  1.00  0.00    -0.038 A 
HETATM   11  C   UNL     1      43.659 -18.048   4.109  1.00  0.00    -0.019 A 
HETATM   12  C   UNL     1      43.254 -18.140   2.753  1.00  0.00    -0.025 A 
HETATM   13  C   UNL     1      44.055 -19.244   4.753  1.00  0.00     0.013 A 
HETATM   14  C   UNL     1      43.272 -19.379   2.092  1.00  0.00     0.012 A 
HETATM   15  C   UNL     1      42.831 -16.990   2.069  1.00  0.00     0.012 A 
HETATM   16  C   UNL     1      43.679 -20.536   2.752  1.00  0.00     0.001 A 
HETATM   17  C   UNL     1      44.065 -20.470   4.083  1.00  0.00     0.001 A 
HETATM   18  C   UNL     1      42.800 -15.752   2.702  1.00  0.00     0.001 A 
HETATM   19  C   UNL     1      43.204 -15.643   4.026  1.00  0.00     0.008 A 
ENDBRANCH   9  10
ENDBRANCH   6   9
ENDBRANCH   2   5
BRANCH   1  20
HETATM   20  C   UNL     1      43.501 -10.643   7.576  1.00  0.00     0.068 A 
HETATM   21  C   UNL     1      42.544 -10.037   6.763  1.00  0.00     0.022 A 
HETATM   22  C   UNL     1      42.003 -10.393   5.424  1.00  0.00     0.069 C 
HETATM   23  N   UNL     1      42.060  -8.941   7.439  1.00  0.00    -0.358 N 
HETATM   24  H   UNL     1      41.353  -8.308   7.090  1.00  0.00     0.166 HD
HETATM   25  C   UNL     1      42.648  -8.830   8.675  1.00  0.00     0.043 A 
HETATM   26  C   UNL     1      43.543  -9.891   8.799  1.00  0.00     0.008 A 
HETATM   27  C   UNL     1      42.450  -7.878   9.682  1.00  0.00     0.030 A 
HETATM   28  C   UNL     1      44.281 -10.004   9.996  1.00  0.00     0.015 A 
HETATM   29  C   UNL     1      44.099  -9.063  11.015  1.00  0.00     0.001 A 
HETATM   30  C   UNL     1      43.196  -8.015  10.857  1.00  0.00     0.002 A 
ENDBRANCH   1  20
TORSDOF 4
ENDMDL
MODEL 2
REMARK VINA RESULT:      -9.7      1.928      9.093
REMARK  4 active torsions:
REMARK  status: ('A' for Active; 'I' for Inactive)
REMARK    1  A    between atoms: C_7  and  C_8 
REMARK       I    between atoms: C_8  and  N_9 
REMARK    2  A    between atoms: N_9  and  N_10 
REMARK       I    between atoms: N_10  and  C_11 
REMARK    3  A    between atoms: C_11  and  C_12 
REMARK    4  A    between atoms: C_12  and  C_13 
ROOT
HETATM    1  C   UNL     1      42.812 -13.920   6.654  1.00  0.00     0.273 C 
HETATM    2  N   UNL     1      43.239 -12.608   6.558  1.00  0.00    -0.263 N 
HETATM    3  O   UNL     1      43.101 -14.633   7.613  1.00  0.00    -0.266 OA
HETATM    4  H   UNL     1      42.696 -11.971   5.977  1.00  0.00     0.190 HD
ENDROOT
BRANCH   2   5
HETATM    5  N   UNL     1      43.802 -12.014   7.713  1.00  0.00    -0.267 N 
HETATM    6  C   UNL     1      44.966 -11.299   7.527  1.00  0.00     0.240 C 
HETATM    7  O   UNL     1      45.570 -11.324   6.451  1.00  0.00    -0.272 OA
HETATM    8  H   UNL     1      43.129 -11.740   8.431  1.00  0.00     0.190 HD
BRANCH   6   9
HETATM    9  C   UNL     1      45.523 -10.540   8.718  1.00  0.00     0.144 C 
BRANCH   9  10
HETATM   10  C   UNL     1      44.668  -9.426   9.287  1.00  0.00    -0.038 A 
HETATM   11  C   UNL     1      43.935  -9.564  10.499  1.00  0.00    -0.019 A 
HETATM   12  C   UNL     1      43.142  -8.474  10.942  1.00  0.00    -0.025 A 
HETATM   13  C   UNL     1      43.946 -10.730  11.300  1.00  0.00     0.013 A 
HETATM   14  C   UNL     1      42.390  -8.582  12.124  1.00  0.00     0.012 A 
HETATM   15  C   UNL     1      43.109  -7.285  10.200  1.00  0.00     0.012 A 
HETATM   16  C   UNL     1      42.413  -9.749  12.884  1.00  0.00     0.001 A 
HETATM   17  C   UNL     1      43.195 -10.820  12.475  1.00  0.00     0.001 A 
HETATM   18  C   UNL     1      43.847  -7.152   9.029  1.00  0.00     0.001 A 
HETATM   19  C   UNL     1      44.620  -8.213   8.575  1.00  0.00     0.008 A 
ENDBRANCH   9  10
ENDBRANCH   6   9
ENDBRANCH   2   5
BRANCH   1  20
HETATM   20  C   UNL     1      41.944 -14.356   5.560  1.00  0.00     0.068 A 
HETATM   21  C   UNL     1      40.669 -13.889   5.248  1.00  0.00     0.022 A 
HETATM   22  C   UNL     1      39.827 -12.816   5.841  1.00  0.00     0.069 C 
HETATM   23  N   UNL     1      40.220 -14.602   4.161  1.00  0.00    -0.358 N 
HETATM   24  H   UNL     1      39.322 -14.479   3.714  1.00  0.00     0.166 HD
HETATM   25  C   UNL     1      41.172 -15.496   3.736  1.00  0.00     0.043 A 
HETATM   26  C   UNL     1      42.272 -15.355   4.581  1.00  0.00     0.008 A 
HETATM   27  C   UNL     1      41.141 -16.406   2.673  1.00  0.00     0.030 A 
HETATM   28  C   UNL     1      43.399 -16.171   4.350  1.00  0.00     0.015 A 
HETATM   29  C   UNL     1      43.387 -17.088   3.294  1.00  0.00     0.001 A 
HETATM   30  C   UNL     1      42.271 -17.203   2.469  1.00  0.00     0.002 A 
ENDBRANCH   1  20
TORSDOF 4
ENDMDL
MODEL 3
REMARK VINA RESULT:      -9.6      5.283      8.005
REMARK  4 active torsions:
REMARK  status: ('A' for Active; 'I' for Inactive)
REMARK    1  A    between atoms: C_7  and  C_8 
REMARK       I    between atoms: C_8  and  N_9 
REMARK    2  A    between atoms: N_9  and  N_10 
REMARK       I    between atoms: N_10  and  C_11 
REMARK    3  A    between atoms: C_11  and  C_12 
REMARK    4  A    between atoms: C_12  and  C_13 
ROOT
HETATM    1  C   UNL     1      40.603 -12.599   1.031  1.00  0.00     0.273 C 
HETATM    2  N   UNL     1      40.635 -13.840   1.642  1.00  0.00    -0.263 N 
HETATM    3  O   UNL     1      41.518 -11.786   1.155  1.00  0.00    -0.266 OA
HETATM    4  H   UNL     1      40.076 -14.588   1.231  1.00  0.00     0.190 HD
ENDROOT
BRANCH   2   5
HETATM    5  N   UNL     1      41.861 -14.264   2.204  1.00  0.00    -0.267 N 
HETATM    6  C   UNL     1      42.062 -15.627   2.278  1.00  0.00     0.240 C 
HETATM    7  O   UNL     1      41.152 -16.424   2.030  1.00  0.00    -0.272 OA
HETATM    8  H   UNL     1      42.648 -13.628   2.060  1.00  0.00     0.190 HD
BRANCH   6   9
HETATM    9  C   UNL     1      43.418 -16.114   2.753  1.00  0.00     0.144 C 
BRANCH   9  10
HETATM   10  C   UNL     1      43.469 -16.806   4.100  1.00  0.00    -0.038 A 
HETATM   11  C   UNL     1      43.625 -18.214   4.234  1.00  0.00    -0.019 A 
HETATM   12  C   UNL     1      43.638 -18.776   5.537  1.00  0.00    -0.025 A 
HETATM   13  C   UNL     1      43.768 -19.100   3.141  1.00  0.00     0.013 A 
HETATM   14  C   UNL     1      43.769 -20.164   5.707  1.00  0.00     0.012 A 
HETATM   15  C   UNL     1      43.521 -17.944   6.660  1.00  0.00     0.012 A 
HETATM   16  C   UNL     1      43.896 -21.011   4.608  1.00  0.00     0.001 A 
HETATM   17  C   UNL     1      43.901 -20.479   3.327  1.00  0.00     0.001 A 
HETATM   18  C   UNL     1      43.393 -16.566   6.519  1.00  0.00     0.001 A 
HETATM   19  C   UNL     1      43.367 -16.001   5.250  1.00  0.00     0.008 A 
ENDBRANCH   9  10
ENDBRANCH   6   9
ENDBRANCH   2   5
BRANCH   1  20
HETATM   20  C   UNL     1      39.432 -12.370   0.185  1.00  0.00     0.068 A 
HETATM   21  C   UNL     1      38.456 -11.386   0.330  1.00  0.00     0.022 A 
HETATM   22  C   UNL     1      38.307 -10.265   1.295  1.00  0.00     0.069 C 
HETATM   23  N   UNL     1      37.533 -11.566  -0.674  1.00  0.00    -0.358 N 
HETATM   24  H   UNL     1      36.710 -10.996  -0.817  1.00  0.00     0.166 HD
HETATM   25  C   UNL     1      37.892 -12.614  -1.485  1.00  0.00     0.043 A 
HETATM   26  C   UNL     1      39.086 -13.129  -0.985  1.00  0.00     0.008 A 
HETATM   27  C   UNL     1      37.252 -13.135  -2.617  1.00  0.00     0.030 A 
HETATM   28  C   UNL     1      39.672 -14.225  -1.653  1.00  0.00     0.015 A 
HETATM   29  C   UNL     1      39.048 -14.761  -2.785  1.00  0.00     0.001 A 
HETATM   30  C   UNL     1      37.854 -14.222  -3.257  1.00  0.00     0.002 A 
ENDBRANCH   1  20
TORSDOF 4
ENDMDL
MODEL 4
REMARK VINA RESULT:      -9.5      5.490      9.674
REMARK  4 active torsions:
REMARK  status: ('A' for Active; 'I' for Inactive)
REMARK    1  A    between atoms: C_7  and  C_8 
REMARK       I    between atoms: C_8  and  N_9 
REMARK    2  A    between atoms: N_9  and  N_10 
REMARK       I    between atoms: N_10  and  C_11 
REMARK    3  A    between atoms: C_11  and  C_12 
REMARK    4  A    between atoms: C_12  and  C_13 
ROOT
HETATM    1  C   UNL     1      43.106 -15.994   2.104  1.00  0.00     0.273 C 
HETATM    2  N   UNL     1      41.778 -15.932   1.722  1.00  0.00    -0.263 N 
HETATM    3  O   UNL     1      43.985 -15.361   1.521  1.00  0.00    -0.266 OA
HETATM    4  H   UNL     1      41.070 -16.153   2.421  1.00  0.00     0.190 HD
ENDROOT
BRANCH   2   5
HETATM    5  N   UNL     1      41.405 -14.920   0.807  1.00  0.00    -0.267 N 
HETATM    6  C   UNL     1      40.343 -14.123   1.177  1.00  0.00     0.240 C 
HETATM    7  O   UNL     1      39.653 -14.389   2.165  1.00  0.00    -0.272 OA
HETATM    8  H   UNL     1      42.168 -14.545   0.240  1.00  0.00     0.190 HD
BRANCH   6   9
HETATM    9  C   UNL     1      40.001 -12.946   0.282  1.00  0.00     0.144 C 
BRANCH   9  10
HETATM   10  C   UNL     1      39.142 -13.230  -0.934  1.00  0.00    -0.038 A 
HETATM   11  C   UNL     1      38.162 -12.316  -1.413  1.00  0.00    -0.019 A 
HETATM   12  C   UNL     1      37.389 -12.680  -2.545  1.00  0.00    -0.025 A 
HETATM   13  C   UNL     1      37.907 -11.054  -0.827  1.00  0.00     0.013 A 
HETATM   14  C   UNL     1      36.399 -11.811  -3.033  1.00  0.00     0.012 A 
HETATM   15  C   UNL     1      37.612 -13.910  -3.181  1.00  0.00     0.012 A 
HETATM   16  C   UNL     1      36.164 -10.580  -2.425  1.00  0.00     0.001 A 
HETATM   17  C   UNL     1      36.921 -10.200  -1.326  1.00  0.00     0.001 A 
HETATM   18  C   UNL     1      38.588 -14.787  -2.718  1.00  0.00     0.001 A 
HETATM   19  C   UNL     1      39.347 -14.451  -1.605  1.00  0.00     0.008 A 
ENDBRANCH   9  10
ENDBRANCH   6   9
ENDBRANCH   2   5
BRANCH   1  20
HETATM   20  C   UNL     1      43.359 -16.818   3.286  1.00  0.00     0.068 A 
HETATM   21  C   UNL     1      43.478 -16.394   4.609  1.00  0.00     0.022 A 
HETATM   22  C   UNL     1      43.340 -15.056   5.243  1.00  0.00     0.069 C 
HETATM   23  N   UNL     1      43.740 -17.503   5.378  1.00  0.00    -0.358 N 
HETATM   24  H   UNL     1      43.877 -17.498   6.379  1.00  0.00     0.166 HD
HETATM   25  C   UNL     1      43.766 -18.639   4.606  1.00  0.00     0.043 A 
HETATM   26  C   UNL     1      43.513 -18.246   3.293  1.00  0.00     0.008 A 
HETATM   27  C   UNL     1      43.989 -19.971   4.973  1.00  0.00     0.030 A 
HETATM   28  C   UNL     1      43.483 -19.241   2.293  1.00  0.00     0.015 A 
HETATM   29  C   UNL     1      43.704 -20.579   2.639  1.00  0.00     0.001 A 
HETATM   30  C   UNL     1      43.955 -20.935   3.961  1.00  0.00     0.002 A 
ENDBRANCH   1  20
TORSDOF 4
ENDMDL
MODEL 5
REMARK VINA RESULT:      -9.4      4.978      9.115
REMARK  4 active torsions:
REMARK  status: ('A' for Active; 'I' for Inactive)
REMARK    1  A    between atoms: C_7  and  C_8 
REMARK       I    between atoms: C_8  and  N_9 
REMARK    2  A    between atoms: N_9  and  N_10 
REMARK       I    between atoms: N_10  and  C_11 
REMARK    3  A    between atoms: C_11  and  C_12 
REMARK    4  A    between atoms: C_12  and  C_13 
ROOT
HETATM    1  C   UNL     1      43.104 -16.089   2.106  1.00  0.00     0.273 C 
HETATM    2  N   UNL     1      41.782 -15.750   1.876  1.00  0.00    -0.263 N 
HETATM    3  O   UNL     1      44.010 -15.736   1.353  1.00  0.00    -0.266 OA
HETATM    4  H   UNL     1      41.149 -15.733   2.674  1.00  0.00     0.190 HD
ENDROOT
BRANCH   2   5
HETATM    5  N   UNL     1      41.518 -14.766   0.895  1.00  0.00    -0.267 N 
HETATM    6  C   UNL     1      41.305 -13.484   1.356  1.00  0.00     0.240 C 
HETATM    7  O   UNL     1      41.181 -13.248   2.562  1.00  0.00    -0.272 OA
HETATM    8  H   UNL     1      41.960 -14.928  -0.012  1.00  0.00     0.190 HD
BRANCH   6   9
HETATM    9  C   UNL     1      41.151 -12.381   0.326  1.00  0.00     0.144 C 
BRANCH   9  10
HETATM   10  C   UNL     1      39.750 -12.102  -0.181  1.00  0.00    -0.038 A 
HETATM   11  C   UNL     1      39.145 -12.862  -1.221  1.00  0.00    -0.019 A 
HETATM   12  C   UNL     1      37.838 -12.512  -1.646  1.00  0.00    -0.025 A 
HETATM   13  C   UNL     1      39.769 -13.956  -1.866  1.00  0.00     0.013 A 
HETATM   14  C   UNL     1      37.217 -13.227  -2.684  1.00  0.00     0.012 A 
HETATM   15  C   UNL     1      37.161 -11.450  -1.029  1.00  0.00     0.012 A 
HETATM   16  C   UNL     1      37.864 -14.293  -3.306  1.00  0.00     0.001 A 
HETATM   17  C   UNL     1      39.137 -14.660  -2.894  1.00  0.00     0.001 A 
HETATM   18  C   UNL     1      37.753 -10.728   0.002  1.00  0.00     0.001 A 
HETATM   19  C   UNL     1      39.036 -11.051   0.423  1.00  0.00     0.008 A 
ENDBRANCH   9  10
ENDBRANCH   6   9
ENDBRANCH   2   5
BRANCH   1  20
HETATM   20  C   UNL     1      43.331 -16.838   3.342  1.00  0.00     0.068 A 
HETATM   21  C   UNL     1      43.393 -16.337   4.641  1.00  0.00     0.022 A 
HETATM   22  C   UNL     1      43.205 -14.969   5.192  1.00  0.00     0.069 C 
HETATM   23  N   UNL     1      43.651 -17.395   5.482  1.00  0.00    -0.358 N 
HETATM   24  H   UNL     1      43.752 -17.330   6.485  1.00  0.00     0.166 HD
HETATM   25  C   UNL     1      43.728 -18.571   4.777  1.00  0.00     0.043 A 
HETATM   26  C   UNL     1      43.515 -18.260   3.436  1.00  0.00     0.008 A 
HETATM   27  C   UNL     1      43.966 -19.875   5.228  1.00  0.00     0.030 A 
HETATM   28  C   UNL     1      43.542 -19.310   2.495  1.00  0.00     0.015 A 
HETATM   29  C   UNL     1      43.778 -20.621   2.924  1.00  0.00     0.001 A 
HETATM   30  C   UNL     1      43.988 -20.896   4.273  1.00  0.00     0.002 A 
ENDBRANCH   1  20
TORSDOF 4
ENDMDL
MODEL 6
REMARK VINA RESULT:      -9.4      0.965      2.753
REMARK  4 active torsions:
REMARK  status: ('A' for Active; 'I' for Inactive)
REMARK    1  A    between atoms: C_7  and  C_8 
REMARK       I    between atoms: C_8  and  N_9 
REMARK    2  A    between atoms: N_9  and  N_10 
REMARK       I    between atoms: N_10  and  C_11 
REMARK    3  A    between atoms: C_11  and  C_12 
REMARK    4  A    between atoms: C_12  and  C_13 
ROOT
HETATM    1  C   UNL     1      44.036 -11.845   6.947  1.00  0.00     0.273 C 
HETATM    2  N   UNL     1      43.380 -13.045   7.163  1.00  0.00    -0.263 N 
HETATM    3  O   UNL     1      45.232 -11.796   6.668  1.00  0.00    -0.266 OA
HETATM    4  H   UNL     1      42.371 -13.068   7.021  1.00  0.00     0.190 HD
ENDROOT
BRANCH   2   5
HETATM    5  N   UNL     1      44.052 -14.235   6.800  1.00  0.00    -0.267 N 
HETATM    6  C   UNL     1      43.285 -15.380   6.751  1.00  0.00     0.240 C 
HETATM    7  O   UNL     1      42.123 -15.393   7.167  1.00  0.00    -0.272 OA
HETATM    8  H   UNL     1      44.846 -14.110   6.169  1.00  0.00     0.190 HD
BRANCH   6   9
HETATM    9  C   UNL     1      43.944 -16.647   6.238  1.00  0.00     0.144 C 
BRANCH   9  10
HETATM   10  C   UNL     1      43.675 -17.030   4.797  1.00  0.00    -0.038 A 
HETATM   11  C   UNL     1      43.743 -18.374   4.334  1.00  0.00    -0.019 A 
HETATM   12  C   UNL     1      43.498 -18.632   2.960  1.00  0.00    -0.025 A 
HETATM   13  C   UNL     1      44.042 -19.480   5.162  1.00  0.00     0.013 A 
HETATM   14  C   UNL     1      43.576 -19.944   2.464  1.00  0.00     0.012 A 
HETATM   15  C   UNL     1      43.176 -17.577   2.094  1.00  0.00     0.012 A 
HETATM   16  C   UNL     1      43.885 -21.011   3.305  1.00  0.00     0.001 A 
HETATM   17  C   UNL     1      44.113 -20.779   4.654  1.00  0.00     0.001 A 
HETATM   18  C   UNL     1      43.089 -16.270   2.562  1.00  0.00     0.001 A 
HETATM   19  C   UNL     1      43.336 -15.998   3.901  1.00  0.00     0.008 A 
ENDBRANCH   9  10
ENDBRANCH   6   9
ENDBRANCH   2   5
BRANCH   1  20
HETATM   20  C   UNL     1      43.176 -10.664   7.015  1.00  0.00     0.068 A 
HETATM   21  C   UNL     1      42.913  -9.865   8.126  1.00  0.00     0.022 A 
HETATM   22  C   UNL     1      43.428  -9.897   9.521  1.00  0.00     0.069 C 
HETATM   23  N   UNL     1      42.030  -8.886   7.734  1.00  0.00    -0.358 N 
HETATM   24  H   UNL     1      41.660  -8.162   8.334  1.00  0.00     0.166 HD
HETATM   25  C   UNL     1      41.732  -9.003   6.399  1.00  0.00     0.043 A 
HETATM   26  C   UNL     1      42.448 -10.097   5.914  1.00  0.00     0.008 A 
HETATM   27  C   UNL     1      40.893  -8.225   5.593  1.00  0.00     0.030 A 
HETATM   28  C   UNL     1      42.314 -10.430   4.550  1.00  0.00     0.015 A 
HETATM   29  C   UNL     1      41.479  -9.665   3.728  1.00  0.00     0.001 A 
HETATM   30  C   UNL     1      40.779  -8.578   4.246  1.00  0.00     0.002 A 
ENDBRANCH   1  20
TORSDOF 4
ENDMDL
MODEL 7
REMARK VINA RESULT:      -9.3      1.639      2.229
REMARK  4 active torsions:
REMARK  status: ('A' for Active; 'I' for Inactive)
REMARK    1  A    between atoms: C_7  and  C_8 
REMARK       I    between atoms: C_8  and  N_9 
REMARK    2  A    between atoms: N_9  and  N_10 
REMARK       I    between atoms: N_10  and  C_11 
REMARK    3  A    between atoms: C_11  and  C_12 
REMARK    4  A    between atoms: C_12  and  C_13 
ROOT
HETATM    1  C   UNL     1      43.662 -11.699   6.649  1.00  0.00     0.273 C 
HETATM    2  N   UNL     1      43.355 -12.812   7.412  1.00  0.00    -0.263 N 
HETATM    3  O   UNL     1      43.517 -11.683   5.428  1.00  0.00    -0.266 OA
HETATM    4  H   UNL     1      43.135 -12.669   8.397  1.00  0.00     0.190 HD
ENDROOT
BRANCH   2   5
HETATM    5  N   UNL     1      42.624 -13.852   6.792  1.00  0.00    -0.267 N 
HETATM    6  C   UNL     1      42.597 -15.060   7.455  1.00  0.00     0.240 C 
HETATM    7  O   UNL     1      43.312 -15.268   8.441  1.00  0.00    -0.272 OA
HETATM    8  H   UNL     1      41.828 -13.547   6.229  1.00  0.00     0.190 HD
BRANCH   6   9
HETATM    9  C   UNL     1      41.715 -16.157   6.886  1.00  0.00     0.144 C 
BRANCH   9  10
HETATM   10  C   UNL     1      41.654 -16.279   5.377  1.00  0.00    -0.038 A 
HETATM   11  C   UNL     1      42.556 -17.093   4.636  1.00  0.00    -0.019 A 
HETATM   12  C   UNL     1      42.438 -17.126   3.223  1.00  0.00    -0.025 A 
HETATM   13  C   UNL     1      43.575 -17.879   5.223  1.00  0.00     0.013 A 
HETATM   14  C   UNL     1      43.323 -17.903   2.457  1.00  0.00     0.012 A 
HETATM   15  C   UNL     1      41.433 -16.383   2.586  1.00  0.00     0.012 A 
HETATM   16  C   UNL     1      44.324 -18.657   3.066  1.00  0.00     0.001 A 
HETATM   17  C   UNL     1      44.446 -18.649   4.448  1.00  0.00     0.001 A 
HETATM   18  C   UNL     1      40.542 -15.608   3.321  1.00  0.00     0.001 A 
HETATM   19  C   UNL     1      40.650 -15.556   4.705  1.00  0.00     0.008 A 
ENDBRANCH   9  10
ENDBRANCH   6   9
ENDBRANCH   2   5
BRANCH   1  20
HETATM   20  C   UNL     1      44.102 -10.538   7.422  1.00  0.00     0.068 A 
HETATM   21  C   UNL     1      45.410 -10.163   7.724  1.00  0.00     0.022 A 
HETATM   22  C   UNL     1      46.726 -10.741   7.342  1.00  0.00     0.069 C 
HETATM   23  N   UNL     1      45.349  -9.025   8.494  1.00  0.00    -0.358 N 
HETATM   24  H   UNL     1      46.148  -8.527   8.862  1.00  0.00     0.166 HD
HETATM   25  C   UNL     1      44.047  -8.629   8.677  1.00  0.00     0.043 A 
HETATM   26  C   UNL     1      43.242  -9.546   8.004  1.00  0.00     0.008 A 
HETATM   27  C   UNL     1      43.530  -7.534   9.380  1.00  0.00     0.030 A 
HETATM   28  C   UNL     1      41.844  -9.357   8.037  1.00  0.00     0.015 A 
HETATM   29  C   UNL     1      41.307  -8.269   8.736  1.00  0.00     0.001 A 
HETATM   30  C   UNL     1      42.142  -7.373   9.398  1.00  0.00     0.002 A 
ENDBRANCH   1  20
TORSDOF 4
ENDMDL
MODEL 8
REMARK VINA RESULT:      -9.3      5.353      7.835
REMARK  4 active torsions:
REMARK  status: ('A' for Active; 'I' for Inactive)
REMARK    1  A    between atoms: C_7  and  C_8 
REMARK       I    between atoms: C_8  and  N_9 
REMARK    2  A    between atoms: N_9  and  N_10 
REMARK       I    between atoms: N_10  and  C_11 
REMARK    3  A    between atoms: C_11  and  C_12 
REMARK    4  A    between atoms: C_12  and  C_13 
ROOT
HETATM    1  C   UNL     1      40.441 -12.366  -0.035  1.00  0.00     0.273 C 
HETATM    2  N   UNL     1      41.375 -13.380  -0.160  1.00  0.00    -0.263 N 
HETATM    3  O   UNL     1      39.274 -12.589   0.280  1.00  0.00    -0.266 OA
HETATM    4  H   UNL     1      42.359 -13.136  -0.052  1.00  0.00     0.190 HD
ENDROOT
BRANCH   2   5
HETATM    5  N   UNL     1      41.028 -14.658   0.337  1.00  0.00    -0.267 N 
HETATM    6  C   UNL     1      41.736 -15.101   1.433  1.00  0.00     0.240 C 
HETATM    7  O   UNL     1      42.729 -14.494   1.846  1.00  0.00    -0.272 OA
HETATM    8  H   UNL     1      40.050 -14.924   0.204  1.00  0.00     0.190 HD
BRANCH   6   9
HETATM    9  C   UNL     1      41.301 -16.407   2.071  1.00  0.00     0.144 C 
BRANCH   9  10
HETATM   10  C   UNL     1      42.317 -17.123   2.939  1.00  0.00    -0.038 A 
HETATM   11  C   UNL     1      42.406 -16.917   4.345  1.00  0.00    -0.019 A 
HETATM   12  C   UNL     1      43.406 -17.613   5.071  1.00  0.00    -0.025 A 
HETATM   13  C   UNL     1      41.555 -16.052   5.072  1.00  0.00     0.013 A 
HETATM   14  C   UNL     1      43.536 -17.419   6.457  1.00  0.00     0.012 A 
HETATM   15  C   UNL     1      44.266 -18.500   4.407  1.00  0.00     0.012 A 
HETATM   16  C   UNL     1      42.689 -16.551   7.141  1.00  0.00     0.001 A 
HETATM   17  C   UNL     1      41.696 -15.872   6.450  1.00  0.00     0.001 A 
HETATM   18  C   UNL     1      44.154 -18.712   3.037  1.00  0.00     0.001 A 
HETATM   19  C   UNL     1      43.188 -18.030   2.309  1.00  0.00     0.008 A 
ENDBRANCH   9  10
ENDBRANCH   6   9
ENDBRANCH   2   5
BRANCH   1  20
HETATM   20  C   UNL     1      40.976 -11.021  -0.245  1.00  0.00     0.068 A 
HETATM   21  C   UNL     1      41.532 -10.169   0.707  1.00  0.00     0.022 A 
HETATM   22  C   UNL     1      41.813 -10.342   2.158  1.00  0.00     0.069 C 
HETATM   23  N   UNL     1      41.873  -8.999   0.069  1.00  0.00    -0.358 N 
HETATM   24  H   UNL     1      42.298  -8.196   0.512  1.00  0.00     0.166 HD
HETATM   25  C   UNL     1      41.586  -9.073  -1.272  1.00  0.00     0.043 A 
HETATM   26  C   UNL     1      41.038 -10.333  -1.504  1.00  0.00     0.008 A 
HETATM   27  C   UNL     1      41.772  -8.125  -2.285  1.00  0.00     0.030 A 
HETATM   28  C   UNL     1      40.656 -10.662  -2.822  1.00  0.00     0.015 A 
HETATM   29  C   UNL     1      40.833  -9.728  -3.849  1.00  0.00     0.001 A 
HETATM   30  C   UNL     1      41.383  -8.477  -3.581  1.00  0.00     0.002 A 
ENDBRANCH   1  20
TORSDOF 4
ENDMDL
MODEL 9
REMARK VINA RESULT:      -9.2      1.915      9.369
REMARK  4 active torsions:
REMARK  status: ('A' for Active; 'I' for Inactive)
REMARK    1  A    between atoms: C_7  and  C_8 
REMARK       I    between atoms: C_8  and  N_9 
REMARK    2  A    between atoms: N_9  and  N_10 
REMARK       I    between atoms: N_10  and  C_11 
REMARK    3  A    between atoms: C_11  and  C_12 
REMARK    4  A    between atoms: C_12  and  C_13 
ROOT
HETATM    1  C   UNL     1      41.615 -14.644   5.476  1.00  0.00     0.273 C 
HETATM    2  N   UNL     1      42.647 -13.731   5.608  1.00  0.00    -0.263 N 
HETATM    3  O   UNL     1      40.691 -14.707   6.284  1.00  0.00    -0.266 OA
HETATM    4  H   UNL     1      43.157 -13.464   4.768  1.00  0.00     0.190 HD
ENDROOT
BRANCH   2   5
HETATM    5  N   UNL     1      42.487 -12.692   6.554  1.00  0.00    -0.267 N 
HETATM    6  C   UNL     1      42.806 -11.421   6.126  1.00  0.00     0.240 C 
HETATM    7  O   UNL     1      43.362 -11.229   5.040  1.00  0.00    -0.272 OA
HETATM    8  H   UNL     1      41.745 -12.841   7.241  1.00  0.00     0.190 HD
BRANCH   6   9
HETATM    9  C   UNL     1      42.521 -10.267   7.070  1.00  0.00     0.144 C 
BRANCH   9  10
HETATM   10  C   UNL     1      43.502 -10.046   8.204  1.00  0.00    -0.038 A 
HETATM   11  C   UNL     1      43.111  -9.510   9.463  1.00  0.00    -0.019 A 
HETATM   12  C   UNL     1      44.105  -9.315  10.457  1.00  0.00    -0.025 A 
HETATM   13  C   UNL     1      41.782  -9.152   9.791  1.00  0.00     0.013 A 
HETATM   14  C   UNL     1      43.759  -8.769  11.704  1.00  0.00     0.012 A 
HETATM   15  C   UNL     1      45.436  -9.671  10.196  1.00  0.00     0.012 A 
HETATM   16  C   UNL     1      42.442  -8.417  11.992  1.00  0.00     0.001 A 
HETATM   17  C   UNL     1      41.454  -8.613  11.038  1.00  0.00     0.001 A 
HETATM   18  C   UNL     1      45.803 -10.216   8.970  1.00  0.00     0.001 A 
HETATM   19  C   UNL     1      44.845 -10.403   7.982  1.00  0.00     0.008 A 
ENDBRANCH   9  10
ENDBRANCH   6   9
ENDBRANCH   2   5
BRANCH   1  20
HETATM   20  C   UNL     1      41.686 -15.468   4.269  1.00  0.00     0.068 A 
HETATM   21  C   UNL     1      40.937 -15.335   3.102  1.00  0.00     0.022 A 
HETATM   22  C   UNL     1      39.915 -14.339   2.681  1.00  0.00     0.069 C 
HETATM   23  N   UNL     1      41.319 -16.342   2.246  1.00  0.00    -0.358 N 
HETATM   24  H   UNL     1      40.941 -16.495   1.322  1.00  0.00     0.166 HD
HETATM   25  C   UNL     1      42.312 -17.108   2.806  1.00  0.00     0.043 A 
HETATM   26  C   UNL     1      42.578 -16.576   4.066  1.00  0.00     0.008 A 
HETATM   27  C   UNL     1      42.990 -18.219   2.290  1.00  0.00     0.030 A 
HETATM   28  C   UNL     1      43.575 -17.190   4.853  1.00  0.00     0.015 A 
HETATM   29  C   UNL     1      44.263 -18.303   4.355  1.00  0.00     0.001 A 
HETATM   30  C   UNL     1      43.971 -18.808   3.091  1.00  0.00     0.002 A 
ENDBRANCH   1  20
TORSDOF 4
ENDMDL
MODEL 10
REMARK VINA RESULT:      -9.2      5.848      8.222
REMARK  4 active torsions:
REMARK  status: ('A' for Active; 'I' for Inactive)
REMARK    1  A    between atoms: C_7  and  C_8 
REMARK       I    between atoms: C_8  and  N_9 
REMARK    2  A    between atoms: N_9  and  N_10 
REMARK       I    between atoms: N_10  and  C_11 
REMARK    3  A    between atoms: C_11  and  C_12 
REMARK    4  A    between atoms: C_12  and  C_13 
ROOT
HETATM    1  C   UNL     1      39.531 -13.680  -0.651  1.00  0.00     0.273 C 
HETATM    2  N   UNL     1      39.521 -13.294   0.678  1.00  0.00    -0.263 N 
HETATM    3  O   UNL     1      39.671 -14.853  -0.990  1.00  0.00    -0.266 OA
HETATM    4  H   UNL     1      39.047 -12.424   0.917  1.00  0.00     0.190 HD
ENDROOT
BRANCH   2   5
HETATM    5  N   UNL     1      39.414 -14.310   1.656  1.00  0.00    -0.267 N 
HETATM    6  C   UNL     1      40.567 -14.615   2.349  1.00  0.00     0.240 C 
HETATM    7  O   UNL     1      41.660 -14.150   2.013  1.00  0.00    -0.272 OA
HETATM    8  H   UNL     1      38.499 -14.386   2.104  1.00  0.00     0.190 HD
BRANCH   6   9
HETATM    9  C   UNL     1      40.459 -15.604   3.494  1.00  0.00     0.144 C 
BRANCH   9  10
HETATM   10  C   UNL     1      41.747 -15.997   4.190  1.00  0.00    -0.038 A 
HETATM   11  C   UNL     1      42.572 -17.062   3.732  1.00  0.00    -0.019 A 
HETATM   12  C   UNL     1      43.748 -17.373   4.462  1.00  0.00    -0.025 A 
HETATM   13  C   UNL     1      42.293 -17.840   2.584  1.00  0.00     0.013 A 
HETATM   14  C   UNL     1      44.576 -18.431   4.051  1.00  0.00     0.012 A 
HETATM   15  C   UNL     1      44.087 -16.623   5.597  1.00  0.00     0.012 A 
HETATM   16  C   UNL     1      44.266 -19.186   2.922  1.00  0.00     0.001 A 
HETATM   17  C   UNL     1      43.128 -18.887   2.186  1.00  0.00     0.001 A 
HETATM   18  C   UNL     1      43.286 -15.569   6.023  1.00  0.00     0.001 A 
HETATM   19  C   UNL     1      42.125 -15.258   5.326  1.00  0.00     0.008 A 
ENDBRANCH   9  10
ENDBRANCH   6   9
ENDBRANCH   2   5
BRANCH   1  20
HETATM   20  C   UNL     1      39.297 -12.591  -1.600  1.00  0.00     0.068 A 
HETATM   21  C   UNL     1      38.259 -12.474  -2.522  1.00  0.00     0.022 A 
HETATM   22  C   UNL     1      37.073 -13.327  -2.802  1.00  0.00     0.069 C 
HETATM   23  N   UNL     1      38.454 -11.306  -3.221  1.00  0.00    -0.358 N 
HETATM   24  H   UNL     1      37.855 -10.961  -3.958  1.00  0.00     0.166 HD
HETATM   25  C   UNL     1      39.568 -10.644  -2.765  1.00  0.00     0.043 A 
HETATM   26  C   UNL     1      40.109 -11.414  -1.737  1.00  0.00     0.008 A 
HETATM   27  C   UNL     1      40.126  -9.429  -3.182  1.00  0.00     0.030 A 
HETATM   28  C   UNL     1      41.273 -10.943  -1.094  1.00  0.00     0.015 A 
HETATM   29  C   UNL     1      41.847  -9.732  -1.496  1.00  0.00     0.001 A 
HETATM   30  C   UNL     1      41.279  -8.988  -2.527  1.00  0.00     0.002 A 
ENDBRANCH   1  20
TORSDOF 4
ENDMDL
