MODEL 1
REMARK VINA RESULT:      -8.0      0.000      0.000
REMARK  7 active torsions:
REMARK  status: ('A' for Active; 'I' for Inactive)
REMARK    1  A    between atoms: C_2  and  O_3 
REMARK    2  A    between atoms: O_3  and  C_4 
REMARK    3  A    between atoms: C_4  and  C_5 
REMARK    4  A    between atoms: C_6  and  C_7 
REMARK    5  A    between atoms: C_18  and  S_19 
REMARK    6  A    between atoms: S_19  and  C_20 
REMARK    7  A    between atoms: C_20  and  C_21 
ROOT
HETATM    1  C   UNL     1      41.724 -11.445   5.998  1.00  0.00     0.070 A 
HETATM    2  C   UNL     1      41.169 -12.819   5.631  1.00  0.00     0.203 A 
HETATM    3  N   UNL     1      42.006 -13.899   6.172  1.00  0.00    -0.082 N 
HETATM    4  C   UNL     1      43.123 -13.696   6.933  1.00  0.00     0.726 A 
HETATM    5  N   UNL     1      43.496 -12.440   7.235  1.00  0.00    -0.192 N 
HETATM    6  N   UNL     1      41.754 -15.214   6.017  1.00  0.00    -0.128 NA
HETATM    7  C   UNL     1      42.819 -15.747   6.630  1.00  0.00     0.226 A 
HETATM    8  N   UNL     1      43.662 -14.848   7.235  1.00  0.00    -0.035 NA
HETATM    9  C   UNL     1      42.830 -11.311   6.773  1.00  0.00     0.037 A 
HETATM   10  C   UNL     1      43.411  -9.989   7.216  1.00  0.00     0.070 C 
HETATM   11  H   UNL     1      44.340 -12.298   7.784  1.00  0.00     0.184 HD
ENDROOT
BRANCH   7  12
HETATM   12  S   UNL     1      43.093 -17.466   6.615  1.00  0.00    -0.083 SA
BRANCH  12  13
HETATM   13  C   UNL     1      44.387 -17.568   5.347  1.00  0.00     0.123 C 
BRANCH  13  14
HETATM   14  C   UNL     1      44.039 -18.574   4.275  1.00  0.00    -0.027 A 
HETATM   15  C   UNL     1      43.532 -18.204   3.018  1.00  0.00     0.041 A 
HETATM   16 CL   UNL     1      43.268 -16.553   2.583  1.00  0.00    -0.084 Cl
HETATM   17  C   UNL     1      43.220 -19.177   2.062  1.00  0.00     0.024 A 
HETATM   18  C   UNL     1      43.399 -20.530   2.350  1.00  0.00     0.002 A 
HETATM   19  C   UNL     1      43.888 -20.913   3.595  1.00  0.00     0.001 A 
HETATM   20  C   UNL     1      44.206 -19.945   4.550  1.00  0.00     0.009 A 
ENDBRANCH  13  14
ENDBRANCH  12  13
ENDBRANCH   7  12
BRANCH   2  21
HETATM   21  C   UNL     1      40.966 -13.029   4.130  1.00  0.00    -0.028 A 
HETATM   22  C   UNL     1      39.685 -13.092   3.556  1.00  0.00     0.011 A 
HETATM   23  C   UNL     1      39.535 -13.289   2.180  1.00  0.00     0.024 A 
HETATM   24  C   UNL     1      40.660 -13.415   1.368  1.00  0.00     0.034 A 
HETATM   25 CL   UNL     1      40.471 -13.661  -0.323  1.00  0.00    -0.084 Cl
HETATM   26  C   UNL     1      41.937 -13.343   1.917  1.00  0.00     0.024 A 
HETATM   27  C   UNL     1      42.090 -13.148   3.291  1.00  0.00     0.011 A 
ENDBRANCH   2  21
BRANCH   1  28
HETATM   28  C   UNL     1      41.047 -10.265   5.416  1.00  0.00     0.293 C 
HETATM   29  O   UNL     1      40.038  -9.758   5.880  1.00  0.00    -0.259 OA
BRANCH  28  30
HETATM   30  O   UNL     1      41.728  -9.827   4.328  1.00  0.00    -0.318 OA
BRANCH  30  31
HETATM   31  C   UNL     1      40.947  -9.092   3.373  1.00  0.00     0.174 C 
HETATM   32  C   UNL     1      40.987  -9.767   2.012  1.00  0.00     0.034 C 
ENDBRANCH  30  31
ENDBRANCH  28  30
ENDBRANCH   1  28
TORSDOF 7
ENDMDL
MODEL 2
REMARK VINA RESULT:      -7.8      4.230      6.057
REMARK  7 active torsions:
REMARK  status: ('A' for Active; 'I' for Inactive)
REMARK    1  A    between atoms: C_2  and  O_3 
REMARK    2  A    between atoms: O_3  and  C_4 
REMARK    3  A    between atoms: C_4  and  C_5 
REMARK    4  A    between atoms: C_6  and  C_7 
REMARK    5  A    between atoms: C_18  and  S_19 
REMARK    6  A    between atoms: S_19  and  C_20 
REMARK    7  A    between atoms: C_20  and  C_21 
ROOT
HETATM    1  C   UNL     1      39.472 -12.715  -1.619  1.00  0.00     0.070 A 
HETATM    2  C   UNL     1      40.406 -12.538  -0.424  1.00  0.00     0.203 A 
HETATM    3  N   UNL     1      40.509 -13.773   0.365  1.00  0.00    -0.082 N 
HETATM    4  C   UNL     1      39.873 -14.940   0.048  1.00  0.00     0.726 A 
HETATM    5  N   UNL     1      39.109 -14.997  -1.056  1.00  0.00    -0.192 N 
HETATM    6  N   UNL     1      41.270 -13.916   1.467  1.00  0.00    -0.128 NA
HETATM    7  C   UNL     1      40.966 -15.171   1.822  1.00  0.00     0.226 A 
HETATM    8  N   UNL     1      40.139 -15.844   0.955  1.00  0.00    -0.035 NA
HETATM    9  C   UNL     1      38.882 -13.907  -1.889  1.00  0.00     0.037 A 
HETATM   10  C   UNL     1      37.987 -14.172  -3.076  1.00  0.00     0.070 C 
HETATM   11  H   UNL     1      38.621 -15.864  -1.272  1.00  0.00     0.184 HD
ENDROOT
BRANCH   7  12
HETATM   12  S   UNL     1      41.575 -15.857   3.300  1.00  0.00    -0.083 SA
BRANCH  12  13
HETATM   13  C   UNL     1      43.203 -16.426   2.737  1.00  0.00     0.123 C 
BRANCH  13  14
HETATM   14  C   UNL     1      43.435 -17.879   3.081  1.00  0.00    -0.027 A 
HETATM   15  C   UNL     1      43.996 -18.293   4.301  1.00  0.00     0.041 A 
HETATM   16 CL   UNL     1      44.464 -17.168   5.527  1.00  0.00    -0.084 Cl
HETATM   17  C   UNL     1      44.196 -19.651   4.568  1.00  0.00     0.024 A 
HETATM   18  C   UNL     1      43.852 -20.614   3.619  1.00  0.00     0.002 A 
HETATM   19  C   UNL     1      43.307 -20.219   2.400  1.00  0.00     0.001 A 
HETATM   20  C   UNL     1      43.101 -18.865   2.132  1.00  0.00     0.009 A 
ENDBRANCH  13  14
ENDBRANCH  12  13
ENDBRANCH   7  12
BRANCH   2  21
HETATM   21  C   UNL     1      40.031 -11.373   0.492  1.00  0.00    -0.028 A 
HETATM   22  C   UNL     1      40.908 -10.300   0.724  1.00  0.00     0.011 A 
HETATM   23  C   UNL     1      40.535  -9.252   1.572  1.00  0.00     0.024 A 
HETATM   24  C   UNL     1      39.284  -9.263   2.184  1.00  0.00     0.034 A 
HETATM   25 CL   UNL     1      38.831  -7.974   3.229  1.00  0.00    -0.084 Cl
HETATM   26  C   UNL     1      38.398 -10.312   1.956  1.00  0.00     0.024 A 
HETATM   27  C   UNL     1      38.767 -11.360   1.113  1.00  0.00     0.011 A 
ENDBRANCH   2  21
BRANCH   1  28
HETATM   28  C   UNL     1      39.180 -11.513  -2.433  1.00  0.00     0.293 C 
HETATM   29  O   UNL     1      38.098 -10.946  -2.451  1.00  0.00    -0.259 OA
BRANCH  28  30
HETATM   30  O   UNL     1      40.288 -11.132  -3.114  1.00  0.00    -0.318 OA
BRANCH  30  31
HETATM   31  C   UNL     1      40.291  -9.767  -3.563  1.00  0.00     0.174 C 
HETATM   32  C   UNL     1      41.275  -8.938  -2.754  1.00  0.00     0.034 C 
ENDBRANCH  30  31
ENDBRANCH  28  30
ENDBRANCH   1  28
TORSDOF 7
ENDMDL
MODEL 3
REMARK VINA RESULT:      -7.6      3.769      7.395
REMARK  7 active torsions:
REMARK  status: ('A' for Active; 'I' for Inactive)
REMARK    1  A    between atoms: C_2  and  O_3 
REMARK    2  A    between atoms: O_3  and  C_4 
REMARK    3  A    between atoms: C_4  and  C_5 
REMARK    4  A    between atoms: C_6  and  C_7 
REMARK    5  A    between atoms: C_18  and  S_19 
REMARK    6  A    between atoms: S_19  and  C_20 
REMARK    7  A    between atoms: C_20  and  C_21 
ROOT
HETATM    1  C   UNL     1      40.712 -13.517   2.738  1.00  0.00     0.070 A 
HETATM    2  C   UNL     1      40.584 -13.124   4.208  1.00  0.00     0.203 A 
HETATM    3  N   UNL     1      40.892 -11.702   4.413  1.00  0.00    -0.082 N 
HETATM    4  C   UNL     1      41.221 -10.836   3.409  1.00  0.00     0.726 A 
HETATM    5  N   UNL     1      41.259 -11.280   2.140  1.00  0.00    -0.192 N 
HETATM    6  N   UNL     1      40.850 -11.074   5.604  1.00  0.00    -0.128 NA
HETATM    7  C   UNL     1      41.262  -9.848   5.257  1.00  0.00     0.226 A 
HETATM    8  N   UNL     1      41.465  -9.655   3.912  1.00  0.00    -0.035 NA
HETATM    9  C   UNL     1      41.026 -12.604   1.784  1.00  0.00     0.037 A 
HETATM   10  C   UNL     1      41.124 -12.905   0.308  1.00  0.00     0.070 C 
HETATM   11  H   UNL     1      41.526 -10.633   1.402  1.00  0.00     0.184 HD
ENDROOT
BRANCH   7  12
HETATM   12  S   UNL     1      41.537  -8.621   6.459  1.00  0.00    -0.083 SA
BRANCH  12  13
HETATM   13  C   UNL     1      42.073  -9.656   7.850  1.00  0.00     0.123 C 
BRANCH  13  14
HETATM   14  C   UNL     1      43.566  -9.885   7.832  1.00  0.00    -0.027 A 
HETATM   15  C   UNL     1      44.487  -8.942   8.319  1.00  0.00     0.041 A 
HETATM   16 CL   UNL     1      43.987  -7.432   8.995  1.00  0.00    -0.084 Cl
HETATM   17  C   UNL     1      45.861  -9.200   8.274  1.00  0.00     0.024 A 
HETATM   18  C   UNL     1      46.336 -10.395   7.733  1.00  0.00     0.002 A 
HETATM   19  C   UNL     1      45.437 -11.333   7.233  1.00  0.00     0.001 A 
HETATM   20  C   UNL     1      44.065 -11.082   7.282  1.00  0.00     0.009 A 
ENDBRANCH  13  14
ENDBRANCH  12  13
ENDBRANCH   7  12
BRANCH   2  21
HETATM   21  C   UNL     1      41.430 -13.975   5.156  1.00  0.00    -0.028 A 
HETATM   22  C   UNL     1      42.829 -13.854   5.213  1.00  0.00     0.011 A 
HETATM   23  C   UNL     1      43.573 -14.650   6.088  1.00  0.00     0.024 A 
HETATM   24  C   UNL     1      42.927 -15.564   6.918  1.00  0.00     0.034 A 
HETATM   25 CL   UNL     1      43.846 -16.545   7.991  1.00  0.00    -0.084 Cl
HETATM   26  C   UNL     1      41.541 -15.689   6.884  1.00  0.00     0.024 A 
HETATM   27  C   UNL     1      40.795 -14.897   6.009  1.00  0.00     0.011 A 
ENDBRANCH   2  21
BRANCH   1  28
HETATM   28  C   UNL     1      40.548 -14.950   2.404  1.00  0.00     0.293 C 
HETATM   29  O   UNL     1      39.470 -15.521   2.355  1.00  0.00    -0.259 OA
BRANCH  28  30
HETATM   30  O   UNL     1      41.755 -15.506   2.136  1.00  0.00    -0.318 OA
BRANCH  30  31
HETATM   31  C   UNL     1      41.858 -16.910   2.424  1.00  0.00     0.174 C 
HETATM   32  C   UNL     1      42.858 -17.157   3.541  1.00  0.00     0.034 C 
ENDBRANCH  30  31
ENDBRANCH  28  30
ENDBRANCH   1  28
TORSDOF 7
ENDMDL
MODEL 4
REMARK VINA RESULT:      -7.6      2.146      3.697
REMARK  7 active torsions:
REMARK  status: ('A' for Active; 'I' for Inactive)
REMARK    1  A    between atoms: C_2  and  O_3 
REMARK    2  A    between atoms: O_3  and  C_4 
REMARK    3  A    between atoms: C_4  and  C_5 
REMARK    4  A    between atoms: C_6  and  C_7 
REMARK    5  A    between atoms: C_18  and  S_19 
REMARK    6  A    between atoms: S_19  and  C_20 
REMARK    7  A    between atoms: C_20  and  C_21 
ROOT
HETATM    1  C   UNL     1      41.015 -11.846   5.252  1.00  0.00     0.070 A 
HETATM    2  C   UNL     1      42.294 -12.675   5.172  1.00  0.00     0.203 A 
HETATM    3  N   UNL     1      42.081 -14.041   5.668  1.00  0.00    -0.082 N 
HETATM    4  C   UNL     1      40.880 -14.517   6.114  1.00  0.00     0.726 A 
HETATM    5  N   UNL     1      39.804 -13.711   6.097  1.00  0.00    -0.192 N 
HETATM    6  N   UNL     1      43.029 -14.999   5.706  1.00  0.00    -0.128 NA
HETATM    7  C   UNL     1      42.351 -16.000   6.281  1.00  0.00     0.226 A 
HETATM    8  N   UNL     1      41.020 -15.754   6.513  1.00  0.00    -0.035 NA
HETATM    9  C   UNL     1      39.847 -12.383   5.690  1.00  0.00     0.037 A 
HETATM   10  C   UNL     1      38.533 -11.642   5.752  1.00  0.00     0.070 C 
HETATM   11  H   UNL     1      38.919 -14.067   6.451  1.00  0.00     0.184 HD
ENDROOT
BRANCH   7  12
HETATM   12  S   UNL     1      43.146 -17.487   6.713  1.00  0.00    -0.083 SA
BRANCH  12  13
HETATM   13  C   UNL     1      44.411 -17.557   5.415  1.00  0.00     0.123 C 
BRANCH  13  14
HETATM   14  C   UNL     1      44.054 -18.559   4.342  1.00  0.00    -0.027 A 
HETATM   15  C   UNL     1      43.554 -18.183   3.084  1.00  0.00     0.041 A 
HETATM   16 CL   UNL     1      43.310 -16.528   2.649  1.00  0.00    -0.084 Cl
HETATM   17  C   UNL     1      43.233 -19.151   2.126  1.00  0.00     0.024 A 
HETATM   18  C   UNL     1      43.395 -20.506   2.413  1.00  0.00     0.002 A 
HETATM   19  C   UNL     1      43.876 -20.896   3.660  1.00  0.00     0.001 A 
HETATM   20  C   UNL     1      44.204 -19.932   4.616  1.00  0.00     0.009 A 
ENDBRANCH  13  14
ENDBRANCH  12  13
ENDBRANCH   7  12
BRANCH   2  21
HETATM   21  C   UNL     1      43.489 -12.048   5.892  1.00  0.00    -0.028 A 
HETATM   22  C   UNL     1      43.479 -11.812   7.277  1.00  0.00     0.011 A 
HETATM   23  C   UNL     1      44.587 -11.233   7.904  1.00  0.00     0.024 A 
HETATM   24  C   UNL     1      45.712 -10.895   7.156  1.00  0.00     0.034 A 
HETATM   25 CL   UNL     1      47.072 -10.180   7.930  1.00  0.00    -0.084 Cl
HETATM   26  C   UNL     1      45.745 -11.134   5.785  1.00  0.00     0.024 A 
HETATM   27  C   UNL     1      44.640 -11.709   5.156  1.00  0.00     0.011 A 
ENDBRANCH   2  21
BRANCH   1  28
HETATM   28  C   UNL     1      41.115 -10.412   4.898  1.00  0.00     0.293 C 
HETATM   29  O   UNL     1      41.400  -9.530   5.693  1.00  0.00    -0.259 OA
BRANCH  28  30
HETATM   30  O   UNL     1      40.875 -10.242   3.574  1.00  0.00    -0.318 OA
BRANCH  30  31
HETATM   31  C   UNL     1      42.009 -10.452   2.717  1.00  0.00     0.174 C 
HETATM   32  C   UNL     1      41.561 -10.727   1.291  1.00  0.00     0.034 C 
ENDBRANCH  30  31
ENDBRANCH  28  30
ENDBRANCH   1  28
TORSDOF 7
ENDMDL
MODEL 5
REMARK VINA RESULT:      -7.5      3.332      7.042
REMARK  7 active torsions:
REMARK  status: ('A' for Active; 'I' for Inactive)
REMARK    1  A    between atoms: C_2  and  O_3 
REMARK    2  A    between atoms: O_3  and  C_4 
REMARK    3  A    between atoms: C_4  and  C_5 
REMARK    4  A    between atoms: C_6  and  C_7 
REMARK    5  A    between atoms: C_18  and  S_19 
REMARK    6  A    between atoms: S_19  and  C_20 
REMARK    7  A    between atoms: C_20  and  C_21 
ROOT
HETATM    1  C   UNL     1      41.013 -12.123   1.884  1.00  0.00     0.070 A 
HETATM    2  C   UNL     1      41.251 -12.950   3.145  1.00  0.00     0.203 A 
HETATM    3  N   UNL     1      42.244 -12.317   4.023  1.00  0.00    -0.082 N 
HETATM    4  C   UNL     1      42.853 -11.123   3.757  1.00  0.00     0.726 A 
HETATM    5  N   UNL     1      42.533 -10.455   2.635  1.00  0.00    -0.192 N 
HETATM    6  N   UNL     1      42.644 -12.814   5.210  1.00  0.00    -0.128 NA
HETATM    7  C   UNL     1      43.572 -11.914   5.559  1.00  0.00     0.226 A 
HETATM    8  N   UNL     1      43.703 -10.843   4.710  1.00  0.00    -0.035 NA
HETATM    9  C   UNL     1      41.638 -10.935   1.686  1.00  0.00     0.037 A 
HETATM   10  C   UNL     1      41.418 -10.040   0.489  1.00  0.00     0.070 C 
HETATM   11  H   UNL     1      43.007  -9.578   2.434  1.00  0.00     0.184 HD
ENDROOT
BRANCH   7  12
HETATM   12  S   UNL     1      44.544 -12.137   6.986  1.00  0.00    -0.083 SA
BRANCH  12  13
HETATM   13  C   UNL     1      45.101 -10.432   7.258  1.00  0.00     0.123 C 
BRANCH  13  14
HETATM   14  C   UNL     1      44.553  -9.865   8.546  1.00  0.00    -0.027 A 
HETATM   15  C   UNL     1      43.358  -9.129   8.607  1.00  0.00     0.041 A 
HETATM   16 CL   UNL     1      42.399  -8.813   7.203  1.00  0.00    -0.084 Cl
HETATM   17  C   UNL     1      42.895  -8.620   9.825  1.00  0.00     0.024 A 
HETATM   18  C   UNL     1      43.624  -8.827  10.997  1.00  0.00     0.002 A 
HETATM   19  C   UNL     1      44.817  -9.543  10.951  1.00  0.00     0.001 A 
HETATM   20  C   UNL     1      45.278 -10.058   9.738  1.00  0.00     0.009 A 
ENDBRANCH  13  14
ENDBRANCH  12  13
ENDBRANCH   7  12
BRANCH   2  21
HETATM   21  C   UNL     1      41.656 -14.399   2.872  1.00  0.00    -0.028 A 
HETATM   22  C   UNL     1      40.820 -15.478   3.208  1.00  0.00     0.011 A 
HETATM   23  C   UNL     1      41.223 -16.792   2.949  1.00  0.00     0.024 A 
HETATM   24  C   UNL     1      42.455 -17.037   2.346  1.00  0.00     0.034 A 
HETATM   25 CL   UNL     1      42.948 -18.654   2.033  1.00  0.00    -0.084 Cl
HETATM   26  C   UNL     1      43.290 -15.980   1.996  1.00  0.00     0.024 A 
HETATM   27  C   UNL     1      42.892 -14.667   2.255  1.00  0.00     0.011 A 
ENDBRANCH   2  21
BRANCH   1  28
HETATM   28  C   UNL     1      40.125 -12.704   0.852  1.00  0.00     0.293 C 
HETATM   29  O   UNL     1      38.910 -12.583   0.848  1.00  0.00    -0.259 OA
BRANCH  28  30
HETATM   30  O   UNL     1      40.862 -13.351  -0.085  1.00  0.00    -0.318 OA
BRANCH  30  31
HETATM   31  C   UNL     1      40.152 -14.347  -0.840  1.00  0.00     0.174 C 
HETATM   32  C   UNL     1      40.058 -13.946  -2.303  1.00  0.00     0.034 C 
ENDBRANCH  30  31
ENDBRANCH  28  30
ENDBRANCH   1  28
TORSDOF 7
ENDMDL
MODEL 6
REMARK VINA RESULT:      -7.3      3.153      4.900
REMARK  7 active torsions:
REMARK  status: ('A' for Active; 'I' for Inactive)
REMARK    1  A    between atoms: C_2  and  O_3 
REMARK    2  A    between atoms: O_3  and  C_4 
REMARK    3  A    between atoms: C_4  and  C_5 
REMARK    4  A    between atoms: C_6  and  C_7 
REMARK    5  A    between atoms: C_18  and  S_19 
REMARK    6  A    between atoms: S_19  and  C_20 
REMARK    7  A    between atoms: C_20  and  C_21 
ROOT
HETATM    1  C   UNL     1      40.231 -12.455   0.324  1.00  0.00     0.070 A 
HETATM    2  C   UNL     1      40.990 -12.426   1.648  1.00  0.00     0.203 A 
HETATM    3  N   UNL     1      40.940 -13.729   2.325  1.00  0.00    -0.082 N 
HETATM    4  C   UNL     1      40.319 -14.834   1.816  1.00  0.00     0.726 A 
HETATM    5  N   UNL     1      39.719 -14.760   0.616  1.00  0.00    -0.192 N 
HETATM    6  N   UNL     1      41.531 -14.002   3.505  1.00  0.00    -0.128 NA
HETATM    7  C   UNL     1      41.140 -15.268   3.695  1.00  0.00     0.226 A 
HETATM    8  N   UNL     1      40.425 -15.824   2.664  1.00  0.00    -0.035 NA
HETATM    9  C   UNL     1      39.648 -13.592  -0.135  1.00  0.00     0.037 A 
HETATM   10  C   UNL     1      38.923 -13.712  -1.454  1.00  0.00     0.070 C 
HETATM   11  H   UNL     1      39.240 -15.582   0.255  1.00  0.00     0.184 HD
ENDROOT
BRANCH   7  12
HETATM   12  S   UNL     1      41.510 -16.107   5.174  1.00  0.00    -0.083 SA
BRANCH  12  13
HETATM   13  C   UNL     1      43.280 -16.417   4.927  1.00  0.00     0.123 C 
BRANCH  13  14
HETATM   14  C   UNL     1      43.549 -17.859   4.566  1.00  0.00    -0.027 A 
HETATM   15  C   UNL     1      43.595 -18.316   3.238  1.00  0.00     0.041 A 
HETATM   16 CL   UNL     1      43.357 -17.258   1.892  1.00  0.00    -0.084 Cl
HETATM   17  C   UNL     1      43.842 -19.664   2.956  1.00  0.00     0.024 A 
HETATM   18  C   UNL     1      44.033 -20.576   3.994  1.00  0.00     0.002 A 
HETATM   19  C   UNL     1      43.977 -20.142   5.316  1.00  0.00     0.001 A 
HETATM   20  C   UNL     1      43.737 -18.796   5.600  1.00  0.00     0.009 A 
ENDBRANCH  13  14
ENDBRANCH  12  13
ENDBRANCH   7  12
BRANCH   2  21
HETATM   21  C   UNL     1      40.525 -11.330   2.608  1.00  0.00    -0.028 A 
HETATM   22  C   UNL     1      41.371 -10.276   2.995  1.00  0.00     0.011 A 
HETATM   23  C   UNL     1      40.915  -9.292   3.879  1.00  0.00     0.024 A 
HETATM   24  C   UNL     1      39.614  -9.348   4.372  1.00  0.00     0.034 A 
HETATM   25 CL   UNL     1      39.059  -8.137   5.461  1.00  0.00    -0.084 Cl
HETATM   26  C   UNL     1      38.759 -10.377   3.989  1.00  0.00     0.024 A 
HETATM   27  C   UNL     1      39.211 -11.362   3.110  1.00  0.00     0.011 A 
ENDBRANCH   2  21
BRANCH   1  28
HETATM   28  C   UNL     1      40.096 -11.175  -0.407  1.00  0.00     0.293 C 
HETATM   29  O   UNL     1      39.132 -10.432  -0.312  1.00  0.00    -0.259 OA
BRANCH  28  30
HETATM   30  O   UNL     1      41.203 -10.949  -1.157  1.00  0.00    -0.318 OA
BRANCH  30  31
HETATM   31  C   UNL     1      40.952 -10.610  -2.530  1.00  0.00     0.174 C 
HETATM   32  C   UNL     1      41.287  -9.151  -2.793  1.00  0.00     0.034 C 
ENDBRANCH  30  31
ENDBRANCH  28  30
ENDBRANCH   1  28
TORSDOF 7
ENDMDL
MODEL 7
REMARK VINA RESULT:      -7.3      3.775      6.516
REMARK  7 active torsions:
REMARK  status: ('A' for Active; 'I' for Inactive)
REMARK    1  A    between atoms: C_2  and  O_3 
REMARK    2  A    between atoms: O_3  and  C_4 
REMARK    3  A    between atoms: C_4  and  C_5 
REMARK    4  A    between atoms: C_6  and  C_7 
REMARK    5  A    between atoms: C_18  and  S_19 
REMARK    6  A    between atoms: S_19  and  C_20 
REMARK    7  A    between atoms: C_20  and  C_21 
ROOT
HETATM    1  C   UNL     1      42.846 -11.042   4.536  1.00  0.00     0.070 A 
HETATM    2  C   UNL     1      42.761 -11.560   3.102  1.00  0.00     0.203 A 
HETATM    3  N   UNL     1      41.684 -10.896   2.355  1.00  0.00    -0.082 N 
HETATM    4  C   UNL     1      40.882  -9.918   2.871  1.00  0.00     0.726 A 
HETATM    5  N   UNL     1      41.076  -9.505   4.136  1.00  0.00    -0.192 N 
HETATM    6  N   UNL     1      41.383 -11.142   1.064  1.00  0.00    -0.128 NA
HETATM    7  C   UNL     1      40.321 -10.344   0.897  1.00  0.00     0.226 A 
HETATM    8  N   UNL     1      40.006  -9.551   1.973  1.00  0.00    -0.035 NA
HETATM    9  C   UNL     1      42.030 -10.055   4.984  1.00  0.00     0.037 A 
HETATM   10  C   UNL     1      42.086  -9.459   6.371  1.00  0.00     0.070 C 
HETATM   11  H   UNL     1      40.459  -8.792   4.519  1.00  0.00     0.184 HD
ENDROOT
BRANCH   7  12
HETATM   12  S   UNL     1      39.414 -10.361  -0.587  1.00  0.00    -0.083 SA
BRANCH  12  13
HETATM   13  C   UNL     1      38.234 -11.690  -0.221  1.00  0.00     0.123 C 
BRANCH  13  14
HETATM   14  C   UNL     1      38.296 -12.791  -1.254  1.00  0.00    -0.027 A 
HETATM   15  C   UNL     1      39.152 -13.898  -1.136  1.00  0.00     0.041 A 
HETATM   16 CL   UNL     1      40.210 -14.103   0.216  1.00  0.00    -0.084 Cl
HETATM   17  C   UNL     1      39.176 -14.889  -2.123  1.00  0.00     0.024 A 
HETATM   18  C   UNL     1      38.356 -14.782  -3.247  1.00  0.00     0.002 A 
HETATM   19  C   UNL     1      37.511 -13.684  -3.385  1.00  0.00     0.001 A 
HETATM   20  C   UNL     1      37.481 -12.697  -2.399  1.00  0.00     0.009 A 
ENDBRANCH  13  14
ENDBRANCH  12  13
ENDBRANCH   7  12
BRANCH   2  21
HETATM   21  C   UNL     1      42.602 -13.077   2.996  1.00  0.00    -0.028 A 
HETATM   22  C   UNL     1      41.554 -13.759   3.637  1.00  0.00     0.011 A 
HETATM   23  C   UNL     1      41.439 -15.148   3.522  1.00  0.00     0.024 A 
HETATM   24  C   UNL     1      42.362 -15.862   2.761  1.00  0.00     0.034 A 
HETATM   25 CL   UNL     1      42.219 -17.570   2.625  1.00  0.00    -0.084 Cl
HETATM   26  C   UNL     1      43.398 -15.201   2.108  1.00  0.00     0.024 A 
HETATM   27  C   UNL     1      43.517 -13.815   2.222  1.00  0.00     0.011 A 
ENDBRANCH   2  21
BRANCH   1  28
HETATM   28  C   UNL     1      43.809 -11.710   5.440  1.00  0.00     0.293 C 
HETATM   29  O   UNL     1      45.014 -11.512   5.423  1.00  0.00    -0.259 OA
BRANCH  28  30
HETATM   30  O   UNL     1      43.152 -12.535   6.293  1.00  0.00    -0.318 OA
BRANCH  30  31
HETATM   31  C   UNL     1      43.823 -13.772   6.585  1.00  0.00     0.174 C 
HETATM   32  C   UNL     1      42.827 -14.831   7.028  1.00  0.00     0.034 C 
ENDBRANCH  30  31
ENDBRANCH  28  30
ENDBRANCH   1  28
TORSDOF 7
ENDMDL
MODEL 8
REMARK VINA RESULT:      -7.2      3.790      7.892
REMARK  7 active torsions:
REMARK  status: ('A' for Active; 'I' for Inactive)
REMARK    1  A    between atoms: C_2  and  O_3 
REMARK    2  A    between atoms: O_3  and  C_4 
REMARK    3  A    between atoms: C_4  and  C_5 
REMARK    4  A    between atoms: C_6  and  C_7 
REMARK    5  A    between atoms: C_18  and  S_19 
REMARK    6  A    between atoms: S_19  and  C_20 
REMARK    7  A    between atoms: C_20  and  C_21 
ROOT
HETATM    1  C   UNL     1      42.794 -15.443   4.660  1.00  0.00     0.070 A 
HETATM    2  C   UNL     1      42.943 -13.953   4.361  1.00  0.00     0.203 A 
HETATM    3  N   UNL     1      43.356 -13.204   5.556  1.00  0.00    -0.082 N 
HETATM    4  C   UNL     1      43.605 -13.776   6.772  1.00  0.00     0.726 A 
HETATM    5  N   UNL     1      43.487 -15.108   6.911  1.00  0.00    -0.192 N 
HETATM    6  N   UNL     1      43.577 -11.875   5.589  1.00  0.00    -0.128 NA
HETATM    7  C   UNL     1      43.861 -11.699   6.885  1.00  0.00     0.226 A 
HETATM    8  N   UNL     1      43.923 -12.848   7.636  1.00  0.00    -0.035 NA
HETATM    9  C   UNL     1      43.073 -15.952   5.887  1.00  0.00     0.037 A 
HETATM   10  C   UNL     1      42.995 -17.417   6.245  1.00  0.00     0.070 C 
HETATM   11  H   UNL     1      43.653 -15.522   7.825  1.00  0.00     0.184 HD
ENDROOT
BRANCH   7  12
HETATM   12  S   UNL     1      44.102 -10.105   7.541  1.00  0.00    -0.083 SA
BRANCH  12  13
HETATM   13  C   UNL     1      43.938 -10.464   9.312  1.00  0.00     0.123 C 
BRANCH  13  14
HETATM   14  C   UNL     1      43.481  -9.251  10.087  1.00  0.00    -0.027 A 
HETATM   15  C   UNL     1      43.165  -9.295  11.455  1.00  0.00     0.041 A 
HETATM   16 CL   UNL     1      43.282 -10.751  12.379  1.00  0.00    -0.084 Cl
HETATM   17  C   UNL     1      42.740  -8.143  12.126  1.00  0.00     0.024 A 
HETATM   18  C   UNL     1      42.613  -6.936  11.439  1.00  0.00     0.002 A 
HETATM   19  C   UNL     1      42.909  -6.878  10.081  1.00  0.00     0.001 A 
HETATM   20  C   UNL     1      43.339  -8.024   9.409  1.00  0.00     0.009 A 
ENDBRANCH  13  14
ENDBRANCH  12  13
ENDBRANCH   7  12
BRANCH   2  21
HETATM   21  C   UNL     1      41.693 -13.310   3.759  1.00  0.00    -0.028 A 
HETATM   22  C   UNL     1      40.497 -13.191   4.486  1.00  0.00     0.011 A 
HETATM   23  C   UNL     1      39.370 -12.601   3.904  1.00  0.00     0.024 A 
HETATM   24  C   UNL     1      39.433 -12.119   2.598  1.00  0.00     0.034 A 
HETATM   25 CL   UNL     1      38.045 -11.398   1.885  1.00  0.00    -0.084 Cl
HETATM   26  C   UNL     1      40.614 -12.218   1.867  1.00  0.00     0.024 A 
HETATM   27  C   UNL     1      41.739 -12.808   2.445  1.00  0.00     0.011 A 
ENDBRANCH   2  21
BRANCH   1  28
HETATM   28  C   UNL     1      42.264 -16.300   3.576  1.00  0.00     0.293 C 
HETATM   29  O   UNL     1      41.080 -16.555   3.422  1.00  0.00    -0.259 OA
BRANCH  28  30
HETATM   30  O   UNL     1      43.278 -16.722   2.780  1.00  0.00    -0.318 OA
BRANCH  30  31
HETATM   31  C   UNL     1      43.119 -18.043   2.237  1.00  0.00     0.174 C 
HETATM   32  C   UNL     1      43.845 -19.067   3.093  1.00  0.00     0.034 C 
ENDBRANCH  30  31
ENDBRANCH  28  30
ENDBRANCH   1  28
TORSDOF 7
ENDMDL
MODEL 9
REMARK VINA RESULT:      -7.2      3.587      7.550
REMARK  7 active torsions:
REMARK  status: ('A' for Active; 'I' for Inactive)
REMARK    1  A    between atoms: C_2  and  O_3 
REMARK    2  A    between atoms: O_3  and  C_4 
REMARK    3  A    between atoms: C_4  and  C_5 
REMARK    4  A    between atoms: C_6  and  C_7 
REMARK    5  A    between atoms: C_18  and  S_19 
REMARK    6  A    between atoms: S_19  and  C_20 
REMARK    7  A    between atoms: C_20  and  C_21 
ROOT
HETATM    1  C   UNL     1      40.571 -13.455   3.109  1.00  0.00     0.070 A 
HETATM    2  C   UNL     1      40.374 -13.330   4.617  1.00  0.00     0.203 A 
HETATM    3  N   UNL     1      40.485 -11.932   5.059  1.00  0.00    -0.082 N 
HETATM    4  C   UNL     1      40.706 -10.878   4.219  1.00  0.00     0.726 A 
HETATM    5  N   UNL     1      40.818 -11.099   2.898  1.00  0.00    -0.192 N 
HETATM    6  N   UNL     1      40.345 -11.519   6.334  1.00  0.00    -0.128 NA
HETATM    7  C   UNL     1      40.593 -10.210   6.202  1.00  0.00     0.226 A 
HETATM    8  N   UNL     1      40.783  -9.773   4.915  1.00  0.00    -0.035 NA
HETATM    9  C   UNL     1      40.770 -12.364   2.326  1.00  0.00     0.037 A 
HETATM   10  C   UNL     1      40.925 -12.404   0.824  1.00  0.00     0.070 C 
HETATM   11  H   UNL     1      41.005 -10.310   2.283  1.00  0.00     0.184 HD
ENDROOT
BRANCH   7  12
HETATM   12  S   UNL     1      40.685  -9.171   7.596  1.00  0.00    -0.083 SA
BRANCH  12  13
HETATM   13  C   UNL     1      42.333  -8.455   7.347  1.00  0.00     0.123 C 
BRANCH  13  14
HETATM   14  C   UNL     1      43.338  -9.013   8.328  1.00  0.00    -0.027 A 
HETATM   15  C   UNL     1      44.203 -10.074   8.011  1.00  0.00     0.041 A 
HETATM   16 CL   UNL     1      44.199 -10.833   6.458  1.00  0.00    -0.084 Cl
HETATM   17  C   UNL     1      45.112 -10.559   8.958  1.00  0.00     0.024 A 
HETATM   18  C   UNL     1      45.163 -10.000  10.235  1.00  0.00     0.002 A 
HETATM   19  C   UNL     1      44.303  -8.957  10.569  1.00  0.00     0.001 A 
HETATM   20  C   UNL     1      43.399  -8.467   9.624  1.00  0.00     0.009 A 
ENDBRANCH  13  14
ENDBRANCH  12  13
ENDBRANCH   7  12
BRANCH   2  21
HETATM   21  C   UNL     1      41.315 -14.206   5.444  1.00  0.00    -0.028 A 
HETATM   22  C   UNL     1      42.698 -13.960   5.502  1.00  0.00     0.011 A 
HETATM   23  C   UNL     1      43.531 -14.784   6.264  1.00  0.00     0.024 A 
HETATM   24  C   UNL     1      42.991 -15.851   6.980  1.00  0.00     0.034 A 
HETATM   25 CL   UNL     1      44.020 -16.864   7.914  1.00  0.00    -0.084 Cl
HETATM   26  C   UNL     1      41.622 -16.101   6.944  1.00  0.00     0.024 A 
HETATM   27  C   UNL     1      40.788 -15.282   6.182  1.00  0.00     0.011 A 
ENDBRANCH   2  21
BRANCH   1  28
HETATM   28  C   UNL     1      40.605 -14.823   2.543  1.00  0.00     0.293 C 
HETATM   29  O   UNL     1      39.610 -15.494   2.316  1.00  0.00    -0.259 OA
BRANCH  28  30
HETATM   30  O   UNL     1      41.886 -15.190   2.292  1.00  0.00    -0.318 OA
BRANCH  30  31
HETATM   31  C   UNL     1      42.107 -16.607   2.193  1.00  0.00     0.174 C 
HETATM   32  C   UNL     1      42.802 -17.130   3.438  1.00  0.00     0.034 C 
ENDBRANCH  30  31
ENDBRANCH  28  30
ENDBRANCH   1  28
TORSDOF 7
ENDMDL
MODEL 10
REMARK VINA RESULT:      -7.0      3.799      7.822
REMARK  7 active torsions:
REMARK  status: ('A' for Active; 'I' for Inactive)
REMARK    1  A    between atoms: C_2  and  O_3 
REMARK    2  A    between atoms: O_3  and  C_4 
REMARK    3  A    between atoms: C_4  and  C_5 
REMARK    4  A    between atoms: C_6  and  C_7 
REMARK    5  A    between atoms: C_18  and  S_19 
REMARK    6  A    between atoms: S_19  and  C_20 
REMARK    7  A    between atoms: C_20  and  C_21 
ROOT
HETATM    1  C   UNL     1      42.461 -16.371   4.153  1.00  0.00     0.070 A 
HETATM    2  C   UNL     1      41.714 -15.112   4.587  1.00  0.00     0.203 A 
HETATM    3  N   UNL     1      40.939 -14.538   3.479  1.00  0.00    -0.082 N 
HETATM    4  C   UNL     1      40.872 -15.081   2.227  1.00  0.00     0.726 A 
HETATM    5  N   UNL     1      41.535 -16.221   1.967  1.00  0.00    -0.192 N 
HETATM    6  N   UNL     1      40.172 -13.433   3.573  1.00  0.00    -0.128 NA
HETATM    7  C   UNL     1      39.750 -13.313   2.308  1.00  0.00     0.226 A 
HETATM    8  N   UNL     1      40.129 -14.325   1.461  1.00  0.00    -0.035 NA
HETATM    9  C   UNL     1      42.339 -16.870   2.896  1.00  0.00     0.037 A 
HETATM   10  C   UNL     1      43.007 -18.133   2.407  1.00  0.00     0.070 C 
HETATM   11  H   UNL     1      41.497 -16.606   1.026  1.00  0.00     0.184 HD
ENDROOT
BRANCH   7  12
HETATM   12  S   UNL     1      38.809 -11.938   1.805  1.00  0.00    -0.083 SA
BRANCH  12  13
HETATM   13  C   UNL     1      38.564 -12.346   0.054  1.00  0.00     0.123 C 
BRANCH  13  14
HETATM   14  C   UNL     1      39.459 -11.522  -0.841  1.00  0.00    -0.027 A 
HETATM   15  C   UNL     1      40.205 -12.078  -1.893  1.00  0.00     0.041 A 
HETATM   16 CL   UNL     1      40.155 -13.766  -2.264  1.00  0.00    -0.084 Cl
HETATM   17  C   UNL     1      41.024 -11.272  -2.690  1.00  0.00     0.024 A 
HETATM   18  C   UNL     1      41.120  -9.903  -2.441  1.00  0.00     0.002 A 
HETATM   19  C   UNL     1      40.398  -9.338  -1.394  1.00  0.00     0.001 A 
HETATM   20  C   UNL     1      39.575 -10.139  -0.600  1.00  0.00     0.009 A 
ENDBRANCH  13  14
ENDBRANCH  12  13
ENDBRANCH   7  12
BRANCH   2  21
HETATM   21  C   UNL     1      42.611 -14.036   5.199  1.00  0.00    -0.028 A 
HETATM   22  C   UNL     1      42.876 -13.987   6.579  1.00  0.00     0.011 A 
HETATM   23  C   UNL     1      43.698 -12.987   7.106  1.00  0.00     0.024 A 
HETATM   24  C   UNL     1      44.266 -12.035   6.262  1.00  0.00     0.034 A 
HETATM   25 CL   UNL     1      45.273 -10.804   6.916  1.00  0.00    -0.084 Cl
HETATM   26  C   UNL     1      44.025 -12.075   4.892  1.00  0.00     0.024 A 
HETATM   27  C   UNL     1      43.203 -13.072   4.362  1.00  0.00     0.011 A 
ENDBRANCH   2  21
BRANCH   1  28
HETATM   28  C   UNL     1      43.379 -16.986   5.137  1.00  0.00     0.293 C 
HETATM   29  O   UNL     1      44.575 -16.748   5.198  1.00  0.00    -0.259 OA
BRANCH  28  30
HETATM   30  O   UNL     1      42.690 -17.812   5.963  1.00  0.00    -0.318 OA
BRANCH  30  31
HETATM   31  C   UNL     1      43.486 -18.790   6.652  1.00  0.00     0.174 C 
HETATM   32  C   UNL     1      43.650 -20.042   5.807  1.00  0.00     0.034 C 
ENDBRANCH  30  31
ENDBRANCH  28  30
ENDBRANCH   1  28
TORSDOF 7
ENDMDL
