MODEL 1
REMARK VINA RESULT:      -8.0      0.000      0.000
REMARK  5 active torsions:
REMARK  status: ('A' for Active; 'I' for Inactive)
REMARK    1  A    between atoms: C_2  and  C_3 
REMARK    2  A    between atoms: C_7  and  C_8 
REMARK       I    between atoms: C_8  and  N_9 
REMARK    3  A    between atoms: N_9  and  C_10 
REMARK    4  A    between atoms: C_13  and  C_14 
REMARK       I    between atoms: C_14  and  N_15 
REMARK    5  A    between atoms: N_15  and  C_16 
ROOT
HETATM    1  C   UNL     1      43.078 -11.000   7.349  1.00  0.00     0.035 A 
HETATM    2  C   UNL     1      43.510 -12.298   7.067  1.00  0.00     0.030 A 
HETATM    3  C   UNL     1      43.500 -12.786   5.754  1.00  0.00     0.019 A 
HETATM    4  C   UNL     1      43.044 -11.983   4.702  1.00  0.00     0.032 A 
HETATM    5  C   UNL     1      42.639 -10.672   4.979  1.00  0.00     0.019 A 
HETATM    6  C   UNL     1      42.656 -10.187   6.290  1.00  0.00     0.030 A 
ENDROOT
BRANCH   1   7
HETATM    7  N   UNL     1      43.030 -10.444   8.644  1.00  0.00    -0.322 N 
HETATM    8  C   UNL     1      44.028 -10.430   9.599  1.00  0.00     0.274 C 
HETATM    9  O   UNL     1      45.162 -10.871   9.448  1.00  0.00    -0.266 OA
HETATM   10  H   UNL     1      42.151 -10.023   8.905  1.00  0.00     0.169 HD
BRANCH   8  11
HETATM   11  C   UNL     1      43.640  -9.838  10.859  1.00  0.00     0.120 A 
HETATM   12  N   UNL     1      42.882 -10.537  11.762  1.00  0.00    -0.273 N 
HETATM   13  N   UNL     1      42.584  -9.853  12.877  1.00  0.00    -0.179 NA
HETATM   14  H   UNL     1      42.538 -11.488  11.659  1.00  0.00     0.189 HD
HETATM   15  C   UNL     1      43.168  -8.664  12.693  1.00  0.00     0.056 A 
HETATM   16  C   UNL     1      43.845  -8.606  11.451  1.00  0.00     0.065 A 
BRANCH  15  17
HETATM   17  C   UNL     1      43.053  -7.597  13.727  1.00  0.00     0.056 C 
HETATM   18  C   UNL     1      42.101  -7.983  14.850  1.00  0.00     0.011 C 
ENDBRANCH  15  17
ENDBRANCH   8  11
ENDBRANCH   1   7
BRANCH   4  19
HETATM   19  C   UNL     1      42.979 -12.460   3.291  1.00  0.00     0.252 C 
HETATM   20  N   UNL     1      42.972 -13.828   3.099  1.00  0.00    -0.352 N 
HETATM   21  H   UNL     1      42.809 -14.422   3.898  1.00  0.00     0.163 HD
HETATM   22  O   UNL     1      42.898 -11.649   2.374  1.00  0.00    -0.268 OA
BRANCH  20  23
HETATM   23  C   UNL     1      42.752 -14.413   1.780  1.00  0.00     0.084 C 
HETATM   24  C   UNL     1      43.670 -15.623   1.564  1.00  0.00     0.025 C 
HETATM   25  C   UNL     1      43.259 -16.840   2.392  1.00  0.00     0.002 C 
HETATM   26  C   UNL     1      41.792 -17.198   2.180  1.00  0.00     0.000 C 
HETATM   27  C   UNL     1      40.874 -16.007   2.433  1.00  0.00     0.002 C 
HETATM   28  C   UNL     1      41.277 -14.795   1.592  1.00  0.00     0.025 C 
ENDBRANCH  20  23
ENDBRANCH   4  19
TORSDOF 5
ENDMDL
MODEL 2
REMARK VINA RESULT:      -7.9      4.534     12.473
REMARK  5 active torsions:
REMARK  status: ('A' for Active; 'I' for Inactive)
REMARK    1  A    between atoms: C_2  and  C_3 
REMARK    2  A    between atoms: C_7  and  C_8 
REMARK       I    between atoms: C_8  and  N_9 
REMARK    3  A    between atoms: N_9  and  C_10 
REMARK    4  A    between atoms: C_13  and  C_14 
REMARK       I    between atoms: C_14  and  N_15 
REMARK    5  A    between atoms: N_15  and  C_16 
ROOT
HETATM    1  C   UNL     1      42.812  -8.565  13.268  1.00  0.00     0.035 A 
HETATM    2  C   UNL     1      43.278  -7.442  13.954  1.00  0.00     0.030 A 
HETATM    3  C   UNL     1      42.612  -6.971  15.094  1.00  0.00     0.019 A 
HETATM    4  C   UNL     1      41.459  -7.615  15.557  1.00  0.00     0.032 A 
HETATM    5  C   UNL     1      41.008  -8.758  14.889  1.00  0.00     0.019 A 
HETATM    6  C   UNL     1      41.678  -9.228  13.755  1.00  0.00     0.030 A 
ENDROOT
BRANCH   1   7
HETATM    7  N   UNL     1      43.406  -9.084  12.100  1.00  0.00    -0.322 N 
HETATM    8  C   UNL     1      43.426  -8.523  10.837  1.00  0.00     0.274 C 
HETATM    9  O   UNL     1      42.957  -7.431  10.538  1.00  0.00    -0.266 OA
HETATM   10  H   UNL     1      43.853  -9.984  12.199  1.00  0.00     0.169 HD
BRANCH   8  11
HETATM   11  C   UNL     1      44.061  -9.342   9.830  1.00  0.00     0.120 A 
HETATM   12  N   UNL     1      43.553 -10.570   9.497  1.00  0.00    -0.273 N 
HETATM   13  N   UNL     1      44.258 -11.223   8.561  1.00  0.00    -0.179 NA
HETATM   14  H   UNL     1      42.724 -11.011   9.888  1.00  0.00     0.189 HD
HETATM   15  C   UNL     1      45.263 -10.390   8.274  1.00  0.00     0.056 A 
HETATM   16  C   UNL     1      45.182  -9.198   9.035  1.00  0.00     0.065 A 
BRANCH  15  17
HETATM   17  C   UNL     1      46.295 -10.768   7.267  1.00  0.00     0.056 C 
HETATM   18  C   UNL     1      45.685 -11.423   6.036  1.00  0.00     0.011 C 
ENDBRANCH  15  17
ENDBRANCH   8  11
ENDBRANCH   1   7
BRANCH   4  19
HETATM   19  C   UNL     1      40.691  -7.140  16.744  1.00  0.00     0.252 C 
HETATM   20  N   UNL     1      40.771  -7.917  17.884  1.00  0.00    -0.352 N 
HETATM   21  H   UNL     1      41.482  -8.631  17.927  1.00  0.00     0.163 HD
HETATM   22  O   UNL     1      40.063  -6.089  16.686  1.00  0.00    -0.268 OA
BRANCH  20  23
HETATM   23  C   UNL     1      40.195  -7.475  19.151  1.00  0.00     0.084 C 
HETATM   24  C   UNL     1      39.391  -8.606  19.804  1.00  0.00     0.025 C 
HETATM   25  C   UNL     1      40.275  -9.720  20.365  1.00  0.00     0.002 C 
HETATM   26  C   UNL     1      41.346  -9.172  21.303  1.00  0.00     0.000 C 
HETATM   27  C   UNL     1      42.172  -8.074  20.641  1.00  0.00     0.002 C 
HETATM   28  C   UNL     1      41.288  -6.954  20.095  1.00  0.00     0.025 C 
ENDBRANCH  20  23
ENDBRANCH   4  19
TORSDOF 5
ENDMDL
MODEL 3
REMARK VINA RESULT:      -7.8      2.611      9.868
REMARK  5 active torsions:
REMARK  status: ('A' for Active; 'I' for Inactive)
REMARK    1  A    between atoms: C_2  and  C_3 
REMARK    2  A    between atoms: C_7  and  C_8 
REMARK       I    between atoms: C_8  and  N_9 
REMARK    3  A    between atoms: N_9  and  C_10 
REMARK    4  A    between atoms: C_13  and  C_14 
REMARK       I    between atoms: C_14  and  N_15 
REMARK    5  A    between atoms: N_15  and  C_16 
ROOT
HETATM    1  C   UNL     1      42.926 -13.891   5.818  1.00  0.00     0.035 A 
HETATM    2  C   UNL     1      41.735 -13.214   5.549  1.00  0.00     0.030 A 
HETATM    3  C   UNL     1      41.524 -11.916   6.034  1.00  0.00     0.019 A 
HETATM    4  C   UNL     1      42.502 -11.281   6.808  1.00  0.00     0.032 A 
HETATM    5  C   UNL     1      43.708 -11.947   7.054  1.00  0.00     0.019 A 
HETATM    6  C   UNL     1      43.917 -13.240   6.563  1.00  0.00     0.030 A 
ENDROOT
BRANCH   1   7
HETATM    7  N   UNL     1      43.204 -15.206   5.392  1.00  0.00    -0.322 N 
HETATM    8  C   UNL     1      43.279 -15.680   4.096  1.00  0.00     0.274 C 
HETATM    9  O   UNL     1      43.157 -15.001   3.083  1.00  0.00    -0.266 OA
HETATM   10  H   UNL     1      43.347 -15.882   6.127  1.00  0.00     0.169 HD
BRANCH   8  11
HETATM   11  C   UNL     1      43.516 -17.102   3.994  1.00  0.00     0.120 A 
HETATM   12  N   UNL     1      44.021 -17.810   5.053  1.00  0.00    -0.273 N 
HETATM   13  N   UNL     1      44.205 -19.116   4.804  1.00  0.00    -0.179 NA
HETATM   14  H   UNL     1      44.263 -17.443   5.969  1.00  0.00     0.189 HD
HETATM   15  C   UNL     1      43.807 -19.263   3.537  1.00  0.00     0.056 A 
HETATM   16  C   UNL     1      43.360 -18.037   2.988  1.00  0.00     0.065 A 
BRANCH  15  17
HETATM   17  C   UNL     1      43.871 -20.597   2.874  1.00  0.00     0.056 C 
HETATM   18  C   UNL     1      43.471 -20.531   1.407  1.00  0.00     0.011 C 
ENDBRANCH  15  17
ENDBRANCH   8  11
ENDBRANCH   1   7
BRANCH   4  19
HETATM   19  C   UNL     1      42.319  -9.915   7.379  1.00  0.00     0.252 C 
HETATM   20  N   UNL     1      42.243  -9.824   8.755  1.00  0.00    -0.352 N 
HETATM   21  H   UNL     1      42.510 -10.628   9.303  1.00  0.00     0.163 HD
HETATM   22  O   UNL     1      42.283  -8.941   6.635  1.00  0.00    -0.268 OA
BRANCH  20  23
HETATM   23  C   UNL     1      42.225  -8.532   9.435  1.00  0.00     0.084 C 
HETATM   24  C   UNL     1      41.267  -8.563  10.632  1.00  0.00     0.025 C 
HETATM   25  C   UNL     1      41.796  -9.395  11.800  1.00  0.00     0.002 C 
HETATM   26  C   UNL     1      43.200  -8.963  12.211  1.00  0.00     0.000 C 
HETATM   27  C   UNL     1      44.164  -8.970  11.030  1.00  0.00     0.002 C 
HETATM   28  C   UNL     1      43.641  -8.124   9.868  1.00  0.00     0.025 C 
ENDBRANCH  20  23
ENDBRANCH   4  19
TORSDOF 5
ENDMDL
MODEL 4
REMARK VINA RESULT:      -7.8      2.320      9.872
REMARK  5 active torsions:
REMARK  status: ('A' for Active; 'I' for Inactive)
REMARK    1  A    between atoms: C_2  and  C_3 
REMARK    2  A    between atoms: C_7  and  C_8 
REMARK       I    between atoms: C_8  and  N_9 
REMARK    3  A    between atoms: N_9  and  C_10 
REMARK    4  A    between atoms: C_13  and  C_14 
REMARK       I    between atoms: C_14  and  N_15 
REMARK    5  A    between atoms: N_15  and  C_16 
ROOT
HETATM    1  C   UNL     1      43.102 -12.945   5.832  1.00  0.00     0.035 A 
HETATM    2  C   UNL     1      42.134 -11.947   5.706  1.00  0.00     0.030 A 
HETATM    3  C   UNL     1      42.164 -10.812   6.528  1.00  0.00     0.019 A 
HETATM    4  C   UNL     1      43.161 -10.668   7.501  1.00  0.00     0.032 A 
HETATM    5  C   UNL     1      44.149 -11.653   7.608  1.00  0.00     0.019 A 
HETATM    6  C   UNL     1      44.118 -12.781   6.782  1.00  0.00     0.030 A 
ENDROOT
BRANCH   1   7
HETATM    7  N   UNL     1      43.126 -14.128   5.065  1.00  0.00    -0.322 N 
HETATM    8  C   UNL     1      42.284 -15.219   5.162  1.00  0.00     0.274 C 
HETATM    9  O   UNL     1      41.327 -15.312   5.922  1.00  0.00    -0.266 OA
HETATM   10  H   UNL     1      43.861 -14.187   4.376  1.00  0.00     0.169 HD
BRANCH   8  11
HETATM   11  C   UNL     1      42.616 -16.309   4.274  1.00  0.00     0.120 A 
HETATM   12  N   UNL     1      41.903 -16.523   3.123  1.00  0.00    -0.273 N 
HETATM   13  N   UNL     1      42.314 -17.582   2.409  1.00  0.00    -0.179 NA
HETATM   14  H   UNL     1      41.119 -15.972   2.783  1.00  0.00     0.189 HD
HETATM   15  C   UNL     1      43.331 -18.077   3.121  1.00  0.00     0.056 A 
HETATM   16  C   UNL     1      43.564 -17.315   4.291  1.00  0.00     0.065 A 
BRANCH  15  17
HETATM   17  C   UNL     1      44.059 -19.292   2.656  1.00  0.00     0.056 C 
HETATM   18  C   UNL     1      43.143 -20.275   1.941  1.00  0.00     0.011 C 
ENDBRANCH  15  17
ENDBRANCH   8  11
ENDBRANCH   1   7
BRANCH   4  19
HETATM   19  C   UNL     1      43.224  -9.500   8.426  1.00  0.00     0.252 C 
HETATM   20  N   UNL     1      42.444  -9.569   9.564  1.00  0.00    -0.352 N 
HETATM   21  H   UNL     1      42.040 -10.458   9.814  1.00  0.00     0.163 HD
HETATM   22  O   UNL     1      43.972  -8.561   8.175  1.00  0.00    -0.268 OA
BRANCH  20  23
HETATM   23  C   UNL     1      42.542  -8.563  10.618  1.00  0.00     0.084 C 
HETATM   24  C   UNL     1      41.148  -8.169  11.121  1.00  0.00     0.025 C 
HETATM   25  C   UNL     1      40.481  -9.265  11.953  1.00  0.00     0.002 C 
HETATM   26  C   UNL     1      41.380  -9.737  13.091  1.00  0.00     0.000 C 
HETATM   27  C   UNL     1      42.754 -10.167  12.587  1.00  0.00     0.002 C 
HETATM   28  C   UNL     1      43.426  -9.064  11.769  1.00  0.00     0.025 C 
ENDBRANCH  20  23
ENDBRANCH   4  19
TORSDOF 5
ENDMDL
MODEL 5
REMARK VINA RESULT:      -7.2      3.240      5.090
REMARK  5 active torsions:
REMARK  status: ('A' for Active; 'I' for Inactive)
REMARK    1  A    between atoms: C_2  and  C_3 
REMARK    2  A    between atoms: C_7  and  C_8 
REMARK       I    between atoms: C_8  and  N_9 
REMARK    3  A    between atoms: N_9  and  C_10 
REMARK    4  A    between atoms: C_13  and  C_14 
REMARK       I    between atoms: C_14  and  N_15 
REMARK    5  A    between atoms: N_15  and  C_16 
ROOT
HETATM    1  C   UNL     1      42.136 -12.912   4.286  1.00  0.00     0.035 A 
HETATM    2  C   UNL     1      42.037 -14.291   4.095  1.00  0.00     0.030 A 
HETATM    3  C   UNL     1      41.374 -14.814   2.977  1.00  0.00     0.019 A 
HETATM    4  C   UNL     1      40.787 -13.959   2.038  1.00  0.00     0.032 A 
HETATM    5  C   UNL     1      40.911 -12.576   2.211  1.00  0.00     0.019 A 
HETATM    6  C   UNL     1      41.578 -12.058   3.326  1.00  0.00     0.030 A 
ENDROOT
BRANCH   1   7
HETATM    7  N   UNL     1      42.760 -12.307   5.396  1.00  0.00    -0.322 N 
HETATM    8  C   UNL     1      43.936 -11.581   5.417  1.00  0.00     0.274 C 
HETATM    9  O   UNL     1      44.617 -11.303   4.436  1.00  0.00    -0.266 OA
HETATM   10  H   UNL     1      42.297 -12.439   6.283  1.00  0.00     0.169 HD
BRANCH   8  11
HETATM   11  C   UNL     1      44.347 -11.150   6.733  1.00  0.00     0.120 A 
HETATM   12  N   UNL     1      45.639 -11.316   7.159  1.00  0.00    -0.273 N 
HETATM   13  N   UNL     1      45.868 -10.884   8.408  1.00  0.00    -0.179 NA
HETATM   14  H   UNL     1      46.405 -11.726   6.630  1.00  0.00     0.189 HD
HETATM   15  C   UNL     1      44.681 -10.421   8.813  1.00  0.00     0.056 A 
HETATM   16  C   UNL     1      43.699 -10.558   7.801  1.00  0.00     0.065 A 
BRANCH  15  17
HETATM   17  C   UNL     1      44.516  -9.857  10.183  1.00  0.00     0.056 C 
HETATM   18  C   UNL     1      43.571  -8.665  10.205  1.00  0.00     0.011 C 
ENDBRANCH  15  17
ENDBRANCH   8  11
ENDBRANCH   1   7
BRANCH   4  19
HETATM   19  C   UNL     1      40.040 -14.458   0.847  1.00  0.00     0.252 C 
HETATM   20  N   UNL     1      39.604 -13.505  -0.054  1.00  0.00    -0.352 N 
HETATM   21  H   UNL     1      39.974 -12.570   0.023  1.00  0.00     0.163 HD
HETATM   22  O   UNL     1      39.875 -15.662   0.689  1.00  0.00    -0.268 OA
BRANCH  20  23
HETATM   23  C   UNL     1      39.005 -13.880  -1.331  1.00  0.00     0.084 C 
HETATM   24  C   UNL     1      37.911 -12.882  -1.730  1.00  0.00     0.025 C 
HETATM   25  C   UNL     1      38.469 -11.526  -2.163  1.00  0.00     0.002 C 
HETATM   26  C   UNL     1      39.526 -11.672  -3.253  1.00  0.00     0.000 C 
HETATM   27  C   UNL     1      40.635 -12.634  -2.842  1.00  0.00     0.002 C 
HETATM   28  C   UNL     1      40.077 -13.995  -2.425  1.00  0.00     0.025 C 
ENDBRANCH  20  23
ENDBRANCH   4  19
TORSDOF 5
ENDMDL
MODEL 6
REMARK VINA RESULT:      -7.1      2.139     10.013
REMARK  5 active torsions:
REMARK  status: ('A' for Active; 'I' for Inactive)
REMARK    1  A    between atoms: C_2  and  C_3 
REMARK    2  A    between atoms: C_7  and  C_8 
REMARK       I    between atoms: C_8  and  N_9 
REMARK    3  A    between atoms: N_9  and  C_10 
REMARK    4  A    between atoms: C_13  and  C_14 
REMARK       I    between atoms: C_14  and  N_15 
REMARK    5  A    between atoms: N_15  and  C_16 
ROOT
HETATM    1  C   UNL     1      42.472 -12.237   4.912  1.00  0.00     0.035 A 
HETATM    2  C   UNL     1      43.477 -13.023   5.479  1.00  0.00     0.030 A 
HETATM    3  C   UNL     1      44.097 -12.640   6.676  1.00  0.00     0.019 A 
HETATM    4  C   UNL     1      43.725 -11.454   7.318  1.00  0.00     0.032 A 
HETATM    5  C   UNL     1      42.698 -10.680   6.768  1.00  0.00     0.019 A 
HETATM    6  C   UNL     1      42.078 -11.068   5.576  1.00  0.00     0.030 A 
ENDROOT
BRANCH   1   7
HETATM    7  N   UNL     1      41.821 -12.535   3.698  1.00  0.00    -0.322 N 
HETATM    8  C   UNL     1      41.923 -11.866   2.493  1.00  0.00     0.274 C 
HETATM    9  O   UNL     1      42.654 -10.907   2.274  1.00  0.00    -0.266 OA
HETATM   10  H   UNL     1      41.190 -13.323   3.723  1.00  0.00     0.169 HD
BRANCH   8  11
HETATM   11  C   UNL     1      41.068 -12.383   1.450  1.00  0.00     0.120 A 
HETATM   12  N   UNL     1      40.008 -11.653   0.980  1.00  0.00    -0.273 N 
HETATM   13  N   UNL     1      39.294 -12.269   0.025  1.00  0.00    -0.179 NA
HETATM   14  H   UNL     1      39.726 -10.725   1.286  1.00  0.00     0.189 HD
HETATM   15  C   UNL     1      39.911 -13.444  -0.132  1.00  0.00     0.056 A 
HETATM   16  C   UNL     1      41.029 -13.562   0.729  1.00  0.00     0.065 A 
BRANCH  15  17
HETATM   17  C   UNL     1      39.400 -14.441  -1.116  1.00  0.00     0.056 C 
HETATM   18  C   UNL     1      38.504 -13.805  -2.168  1.00  0.00     0.011 C 
ENDBRANCH  15  17
ENDBRANCH   8  11
ENDBRANCH   1   7
BRANCH   4  19
HETATM   19  C   UNL     1      44.372 -10.979   8.576  1.00  0.00     0.252 C 
HETATM   20  N   UNL     1      43.527 -10.608   9.604  1.00  0.00    -0.352 N 
HETATM   21  H   UNL     1      42.552 -10.859   9.536  1.00  0.00     0.163 HD
HETATM   22  O   UNL     1      45.594 -10.970   8.670  1.00  0.00    -0.268 OA
BRANCH  20  23
HETATM   23  C   UNL     1      44.038 -10.280  10.932  1.00  0.00     0.084 C 
HETATM   24  C   UNL     1      44.349  -8.782  11.038  1.00  0.00     0.025 C 
HETATM   25  C   UNL     1      43.092  -7.914  11.089  1.00  0.00     0.002 C 
HETATM   26  C   UNL     1      42.133  -8.372  12.183  1.00  0.00     0.000 C 
HETATM   27  C   UNL     1      41.792  -9.852  12.056  1.00  0.00     0.002 C 
HETATM   28  C   UNL     1      43.050 -10.721  12.021  1.00  0.00     0.025 C 
ENDBRANCH  20  23
ENDBRANCH   4  19
TORSDOF 5
ENDMDL
MODEL 7
REMARK VINA RESULT:      -7.1     18.679     21.843
REMARK  5 active torsions:
REMARK  status: ('A' for Active; 'I' for Inactive)
REMARK    1  A    between atoms: C_2  and  C_3 
REMARK    2  A    between atoms: C_7  and  C_8 
REMARK       I    between atoms: C_8  and  N_9 
REMARK    3  A    between atoms: N_9  and  C_10 
REMARK    4  A    between atoms: C_13  and  C_14 
REMARK       I    between atoms: C_14  and  N_15 
REMARK    5  A    between atoms: N_15  and  C_16 
ROOT
HETATM    1  C   UNL     1      49.015 -30.284   2.606  1.00  0.00     0.035 A 
HETATM    2  C   UNL     1      50.384 -30.043   2.736  1.00  0.00     0.030 A 
HETATM    3  C   UNL     1      51.099 -30.546   3.832  1.00  0.00     0.019 A 
HETATM    4  C   UNL     1      50.446 -31.289   4.822  1.00  0.00     0.032 A 
HETATM    5  C   UNL     1      49.080 -31.556   4.678  1.00  0.00     0.019 A 
HETATM    6  C   UNL     1      48.372 -31.057   3.580  1.00  0.00     0.030 A 
ENDROOT
BRANCH   1   7
HETATM    7  N   UNL     1      48.219 -29.791   1.551  1.00  0.00    -0.322 N 
HETATM    8  C   UNL     1      47.585 -28.566   1.468  1.00  0.00     0.274 C 
HETATM    9  O   UNL     1      47.655 -27.672   2.304  1.00  0.00    -0.266 OA
HETATM   10  H   UNL     1      48.085 -30.420   0.774  1.00  0.00     0.169 HD
BRANCH   8  11
HETATM   11  C   UNL     1      46.783 -28.389   0.279  1.00  0.00     0.120 A 
HETATM   12  N   UNL     1      45.414 -28.397   0.343  1.00  0.00    -0.273 N 
HETATM   13  N   UNL     1      44.807 -28.239  -0.843  1.00  0.00    -0.179 NA
HETATM   14  H   UNL     1      44.846 -28.512   1.179  1.00  0.00     0.189 HD
HETATM   15  C   UNL     1      45.816 -28.126  -1.711  1.00  0.00     0.056 A 
HETATM   16  C   UNL     1      47.071 -28.206  -1.060  1.00  0.00     0.065 A 
BRANCH  15  17
HETATM   17  C   UNL     1      45.545 -27.947  -3.166  1.00  0.00     0.056 C 
HETATM   18  C   UNL     1      44.437 -28.863  -3.663  1.00  0.00     0.011 C 
ENDBRANCH  15  17
ENDBRANCH   8  11
ENDBRANCH   1   7
BRANCH   4  19
HETATM   19  C   UNL     1      51.147 -31.820   6.027  1.00  0.00     0.252 C 
HETATM   20  N   UNL     1      52.422 -31.344   6.261  1.00  0.00    -0.352 N 
HETATM   21  H   UNL     1      52.733 -30.534   5.745  1.00  0.00     0.163 HD
HETATM   22  O   UNL     1      50.574 -32.610   6.769  1.00  0.00    -0.268 OA
BRANCH  20  23
HETATM   23  C   UNL     1      53.144 -31.667   7.489  1.00  0.00     0.084 C 
HETATM   24  C   UNL     1      53.385 -33.178   7.594  1.00  0.00     0.025 C 
HETATM   25  C   UNL     1      54.435 -33.686   6.606  1.00  0.00     0.002 C 
HETATM   26  C   UNL     1      55.737 -32.897   6.710  1.00  0.00     0.000 C 
HETATM   27  C   UNL     1      55.504 -31.397   6.566  1.00  0.00     0.002 C 
HETATM   28  C   UNL     1      54.465 -30.888   7.566  1.00  0.00     0.025 C 
ENDBRANCH  20  23
ENDBRANCH   4  19
TORSDOF 5
ENDMDL
MODEL 8
REMARK VINA RESULT:      -7.1      7.912     10.651
REMARK  5 active torsions:
REMARK  status: ('A' for Active; 'I' for Inactive)
REMARK    1  A    between atoms: C_2  and  C_3 
REMARK    2  A    between atoms: C_7  and  C_8 
REMARK       I    between atoms: C_8  and  N_9 
REMARK    3  A    between atoms: N_9  and  C_10 
REMARK    4  A    between atoms: C_13  and  C_14 
REMARK       I    between atoms: C_14  and  N_15 
REMARK    5  A    between atoms: N_15  and  C_16 
ROOT
HETATM    1  C   UNL     1      40.140 -14.014  -0.527  1.00  0.00     0.035 A 
HETATM    2  C   UNL     1      39.120 -14.409  -1.394  1.00  0.00     0.030 A 
HETATM    3  C   UNL     1      38.486 -13.477  -2.228  1.00  0.00     0.019 A 
HETATM    4  C   UNL     1      38.859 -12.129  -2.194  1.00  0.00     0.032 A 
HETATM    5  C   UNL     1      39.901 -11.736  -1.347  1.00  0.00     0.019 A 
HETATM    6  C   UNL     1      40.534 -12.670  -0.521  1.00  0.00     0.030 A 
ENDROOT
BRANCH   1   7
HETATM    7  N   UNL     1      40.806 -14.881   0.363  1.00  0.00    -0.322 N 
HETATM    8  C   UNL     1      40.611 -15.015   1.724  1.00  0.00     0.274 C 
HETATM    9  O   UNL     1      39.769 -14.414   2.383  1.00  0.00    -0.266 OA
HETATM   10  H   UNL     1      41.525 -15.459  -0.047  1.00  0.00     0.169 HD
BRANCH   8  11
HETATM   11  C   UNL     1      41.507 -15.949   2.367  1.00  0.00     0.120 A 
HETATM   12  N   UNL     1      41.647 -15.968   3.730  1.00  0.00    -0.273 N 
HETATM   13  N   UNL     1      42.527 -16.874   4.180  1.00  0.00    -0.179 NA
HETATM   14  H   UNL     1      41.164 -15.373   4.398  1.00  0.00     0.189 HD
HETATM   15  C   UNL     1      42.978 -17.467   3.070  1.00  0.00     0.056 A 
HETATM   16  C   UNL     1      42.367 -16.930   1.911  1.00  0.00     0.065 A 
BRANCH  15  17
HETATM   17  C   UNL     1      44.003 -18.546   3.152  1.00  0.00     0.056 C 
HETATM   18  C   UNL     1      43.619 -19.770   2.334  1.00  0.00     0.011 C 
ENDBRANCH  15  17
ENDBRANCH   8  11
ENDBRANCH   1   7
BRANCH   4  19
HETATM   19  C   UNL     1      38.199 -11.087  -3.033  1.00  0.00     0.252 C 
HETATM   20  N   UNL     1      36.826 -11.171  -3.156  1.00  0.00    -0.352 N 
HETATM   21  H   UNL     1      36.326 -11.785  -2.531  1.00  0.00     0.163 HD
HETATM   22  O   UNL     1      38.869 -10.195  -3.540  1.00  0.00    -0.268 OA
BRANCH  20  23
HETATM   23  C   UNL     1      36.053 -10.122  -3.816  1.00  0.00     0.084 C 
HETATM   24  C   UNL     1      34.862 -10.722  -4.573  1.00  0.00     0.025 C 
HETATM   25  C   UNL     1      33.757 -11.227  -3.644  1.00  0.00     0.002 C 
HETATM   26  C   UNL     1      33.317 -10.153  -2.654  1.00  0.00     0.000 C 
HETATM   27  C   UNL     1      34.496  -9.583  -1.873  1.00  0.00     0.002 C 
HETATM   28  C   UNL     1      35.592  -9.064  -2.804  1.00  0.00     0.025 C 
ENDBRANCH  20  23
ENDBRANCH   4  19
TORSDOF 5
ENDMDL
MODEL 9
REMARK VINA RESULT:      -7.1     18.635     21.857
REMARK  5 active torsions:
REMARK  status: ('A' for Active; 'I' for Inactive)
REMARK    1  A    between atoms: C_2  and  C_3 
REMARK    2  A    between atoms: C_7  and  C_8 
REMARK       I    between atoms: C_8  and  N_9 
REMARK    3  A    between atoms: N_9  and  C_10 
REMARK    4  A    between atoms: C_13  and  C_14 
REMARK       I    between atoms: C_14  and  N_15 
REMARK    5  A    between atoms: N_15  and  C_16 
ROOT
HETATM    1  C   UNL     1      49.041 -30.084   2.367  1.00  0.00     0.035 A 
HETATM    2  C   UNL     1      50.431 -29.958   2.325  1.00  0.00     0.030 A 
HETATM    3  C   UNL     1      51.223 -30.405   3.392  1.00  0.00     0.019 A 
HETATM    4  C   UNL     1      50.630 -30.974   4.524  1.00  0.00     0.032 A 
HETATM    5  C   UNL     1      49.240 -31.128   4.555  1.00  0.00     0.019 A 
HETATM    6  C   UNL     1      48.454 -30.686   3.486  1.00  0.00     0.030 A 
ENDROOT
BRANCH   1   7
HETATM    7  N   UNL     1      48.173 -29.636   1.351  1.00  0.00    -0.322 N 
HETATM    8  C   UNL     1      47.468 -28.448   1.300  1.00  0.00     0.274 C 
HETATM    9  O   UNL     1      47.525 -27.552   2.135  1.00  0.00    -0.266 OA
HETATM   10  H   UNL     1      48.039 -30.271   0.578  1.00  0.00     0.169 HD
BRANCH   8  11
HETATM   11  C   UNL     1      46.605 -28.315   0.149  1.00  0.00     0.120 A 
HETATM   12  N   UNL     1      45.248 -28.466   0.263  1.00  0.00    -0.273 N 
HETATM   13  N   UNL     1      44.580 -28.333  -0.893  1.00  0.00    -0.179 NA
HETATM   14  H   UNL     1      44.729 -28.666   1.113  1.00  0.00     0.189 HD
HETATM   15  C   UNL     1      45.537 -28.088  -1.794  1.00  0.00     0.056 A 
HETATM   16  C   UNL     1      46.819 -28.060  -1.193  1.00  0.00     0.065 A 
BRANCH  15  17
HETATM   17  C   UNL     1      45.191 -27.890  -3.230  1.00  0.00     0.056 C 
HETATM   18  C   UNL     1      45.160 -29.202  -4.001  1.00  0.00     0.011 C 
ENDBRANCH  15  17
ENDBRANCH   8  11
ENDBRANCH   1   7
BRANCH   4  19
HETATM   19  C   UNL     1      51.419 -31.436   5.703  1.00  0.00     0.252 C 
HETATM   20  N   UNL     1      51.148 -32.707   6.169  1.00  0.00    -0.352 N 
HETATM   21  H   UNL     1      50.596 -33.322   5.589  1.00  0.00     0.163 HD
HETATM   22  O   UNL     1      52.284 -30.711   6.183  1.00  0.00    -0.268 OA
BRANCH  20  23
HETATM   23  C   UNL     1      51.960 -33.328   7.211  1.00  0.00     0.084 C 
HETATM   24  C   UNL     1      51.301 -33.161   8.585  1.00  0.00     0.025 C 
HETATM   25  C   UNL     1      50.055 -34.030   8.760  1.00  0.00     0.002 C 
HETATM   26  C   UNL     1      50.341 -35.495   8.445  1.00  0.00     0.000 C 
HETATM   27  C   UNL     1      50.961 -35.667   7.062  1.00  0.00     0.002 C 
HETATM   28  C   UNL     1      52.215 -34.809   6.894  1.00  0.00     0.025 C 
ENDBRANCH  20  23
ENDBRANCH   4  19
TORSDOF 5
ENDMDL
MODEL 10
REMARK VINA RESULT:      -7.1     18.990     21.438
REMARK  5 active torsions:
REMARK  status: ('A' for Active; 'I' for Inactive)
REMARK    1  A    between atoms: C_2  and  C_3 
REMARK    2  A    between atoms: C_7  and  C_8 
REMARK       I    between atoms: C_8  and  N_9 
REMARK    3  A    between atoms: N_9  and  C_10 
REMARK    4  A    between atoms: C_13  and  C_14 
REMARK       I    between atoms: C_14  and  N_15 
REMARK    5  A    between atoms: N_15  and  C_16 
ROOT
HETATM    1  C   UNL     1      42.104 -30.474   2.120  1.00  0.00     0.035 A 
HETATM    2  C   UNL     1      42.031 -29.980   3.424  1.00  0.00     0.030 A 
HETATM    3  C   UNL     1      41.133 -30.530   4.349  1.00  0.00     0.019 A 
HETATM    4  C   UNL     1      40.284 -31.577   3.975  1.00  0.00     0.032 A 
HETATM    5  C   UNL     1      40.376 -32.093   2.677  1.00  0.00     0.019 A 
HETATM    6  C   UNL     1      41.278 -31.545   1.759  1.00  0.00     0.030 A 
ENDROOT
BRANCH   1   7
HETATM    7  N   UNL     1      42.958 -29.959   1.124  1.00  0.00    -0.322 N 
HETATM    8  C   UNL     1      44.321 -29.740   1.204  1.00  0.00     0.274 C 
HETATM    9  O   UNL     1      45.028 -30.011   2.167  1.00  0.00    -0.266 OA
HETATM   10  H   UNL     1      42.512 -29.704   0.255  1.00  0.00     0.169 HD
BRANCH   8  11
HETATM   11  C   UNL     1      44.898 -29.134   0.026  1.00  0.00     0.120 A 
HETATM   12  N   UNL     1      45.854 -28.158   0.131  1.00  0.00    -0.273 N 
HETATM   13  N   UNL     1      46.282 -27.677  -1.046  1.00  0.00    -0.179 NA
HETATM   14  H   UNL     1      46.244 -27.781   0.991  1.00  0.00     0.189 HD
HETATM   15  C   UNL     1      45.578 -28.364  -1.951  1.00  0.00     0.056 A 
HETATM   16  C   UNL     1      44.704 -29.291  -1.334  1.00  0.00     0.065 A 
BRANCH  15  17
HETATM   17  C   UNL     1      45.761 -28.104  -3.408  1.00  0.00     0.056 C 
HETATM   18  C   UNL     1      44.804 -28.920  -4.264  1.00  0.00     0.011 C 
ENDBRANCH  15  17
ENDBRANCH   8  11
ENDBRANCH   1   7
BRANCH   4  19
HETATM   19  C   UNL     1      39.285 -32.179   4.905  1.00  0.00     0.252 C 
HETATM   20  N   UNL     1      38.180 -32.773   4.327  1.00  0.00    -0.352 N 
HETATM   21  H   UNL     1      38.196 -32.948   3.334  1.00  0.00     0.163 HD
HETATM   22  O   UNL     1      39.489 -32.164   6.114  1.00  0.00    -0.268 OA
BRANCH  20  23
HETATM   23  C   UNL     1      37.218 -33.531   5.121  1.00  0.00     0.084 C 
HETATM   24  C   UNL     1      35.791 -33.299   4.610  1.00  0.00     0.025 C 
HETATM   25  C   UNL     1      35.519 -33.978   3.267  1.00  0.00     0.002 C 
HETATM   26  C   UNL     1      35.873 -35.461   3.302  1.00  0.00     0.000 C 
HETATM   27  C   UNL     1      37.305 -35.692   3.773  1.00  0.00     0.002 C 
HETATM   28  C   UNL     1      37.570 -35.026   5.123  1.00  0.00     0.025 C 
ENDBRANCH  20  23
ENDBRANCH   4  19
TORSDOF 5
ENDMDL
