MODEL 1
REMARK VINA RESULT:      -8.0      0.000      0.000
REMARK  6 active torsions:
REMARK  status: ('A' for Active; 'I' for Inactive)
REMARK    1  A    between atoms: C_4  and  C_5 
REMARK    2  A    between atoms: C_5  and  C_6 
REMARK    3  A    between atoms: C_6  and  C_7 
REMARK    4  A    between atoms: C_7  and  C_8 
REMARK       I    between atoms: C_8  and  N_9 
REMARK    5  A    between atoms: N_9  and  C_10 
REMARK    6  A    between atoms: C_12  and  C_13 
ROOT
HETATM    1  C   UNL     1      40.797 -14.441   5.946  1.00  0.00     0.222 C 
HETATM    2  N   UNL     1      40.706 -14.864   4.654  1.00  0.00    -0.327 N 
HETATM    3  O   UNL     1      39.806 -13.879   6.422  1.00  0.00    -0.273 OA
HETATM    4  H   UNL     1      39.779 -14.655   4.298  1.00  0.00     0.169 HD
ENDROOT
BRANCH   2   5
HETATM    5  C   UNL     1      41.575 -15.496   3.744  1.00  0.00     0.035 A 
HETATM    6  C   UNL     1      42.010 -16.821   3.806  1.00  0.00     0.042 A 
HETATM    7  C   UNL     1      42.886 -17.351   2.837  1.00  0.00    -0.021 A 
HETATM    8  C   UNL     1      43.334 -16.526   1.801  1.00  0.00     0.012 A 
HETATM    9  C   UNL     1      42.915 -15.200   1.729  1.00  0.00     0.003 A 
HETATM   10  C   UNL     1      42.044 -14.692   2.694  1.00  0.00     0.029 A 
BRANCH   7  11
HETATM   11  C   UNL     1      43.338 -18.731   2.911  1.00  0.00     0.010 A 
HETATM   12  C   UNL     1      43.197 -19.801   1.993  1.00  0.00     0.152 A 
HETATM   13  N   UNL     1      43.740 -20.937   2.435  1.00  0.00    -0.187 NA
HETATM   14  N   UNL     1      44.228 -20.605   3.639  1.00  0.00    -0.289 N 
HETATM   15  H   UNL     1      44.695 -21.323   4.185  1.00  0.00     0.188 HD
HETATM   16  C   UNL     1      44.012 -19.298   3.973  1.00  0.00     0.123 A 
ENDBRANCH   7  11
ENDBRANCH   2   5
BRANCH   1  17
HETATM   17  C   UNL     1      42.050 -14.654   6.767  1.00  0.00     0.103 C 
BRANCH  17  18
HETATM   18  C   UNL     1      43.285 -13.950   6.199  1.00  0.00     0.014 C 
BRANCH  18  19
HETATM   19  C   UNL     1      43.077 -12.441   6.023  1.00  0.00     0.046 C 
BRANCH  19  20
HETATM   20  C   UNL     1      44.117 -11.660   6.772  1.00  0.00    -0.017 A 
HETATM   21  S   UNL     1      43.676 -10.680   8.104  1.00  0.00    -0.100 SA
HETATM   22  C   UNL     1      45.292 -10.183   8.365  1.00  0.00    -0.021 A 
HETATM   23  C   UNL     1      45.613  -9.247   9.479  1.00  0.00     0.056 C 
HETATM   24  C   UNL     1      46.153 -10.759   7.455  1.00  0.00     0.015 A 
HETATM   25  C   UNL     1      45.476 -11.609   6.535  1.00  0.00     0.015 A 
ENDBRANCH  19  20
ENDBRANCH  18  19
ENDBRANCH  17  18
ENDBRANCH   1  17
TORSDOF 6
ENDMDL
MODEL 2
REMARK VINA RESULT:      -7.8      2.546      4.836
REMARK  6 active torsions:
REMARK  status: ('A' for Active; 'I' for Inactive)
REMARK    1  A    between atoms: C_4  and  C_5 
REMARK    2  A    between atoms: C_5  and  C_6 
REMARK    3  A    between atoms: C_6  and  C_7 
REMARK    4  A    between atoms: C_7  and  C_8 
REMARK       I    between atoms: C_8  and  N_9 
REMARK    5  A    between atoms: N_9  and  C_10 
REMARK    6  A    between atoms: C_12  and  C_13 
ROOT
HETATM    1  C   UNL     1      43.968 -12.247   7.099  1.00  0.00     0.222 C 
HETATM    2  N   UNL     1      43.295 -13.412   7.316  1.00  0.00    -0.327 N 
HETATM    3  O   UNL     1      44.339 -11.621   8.097  1.00  0.00    -0.273 OA
HETATM    4  H   UNL     1      43.237 -13.584   8.314  1.00  0.00     0.169 HD
ENDROOT
BRANCH   2   5
HETATM    5  C   UNL     1      42.689 -14.385   6.498  1.00  0.00     0.035 A 
HETATM    6  C   UNL     1      43.314 -15.506   5.951  1.00  0.00     0.042 A 
HETATM    7  C   UNL     1      42.607 -16.418   5.141  1.00  0.00    -0.021 A 
HETATM    8  C   UNL     1      41.255 -16.184   4.875  1.00  0.00     0.012 A 
HETATM    9  C   UNL     1      40.618 -15.066   5.408  1.00  0.00     0.003 A 
HETATM   10  C   UNL     1      41.332 -14.177   6.211  1.00  0.00     0.029 A 
BRANCH   7  11
HETATM   11  C   UNL     1      43.267 -17.582   4.571  1.00  0.00     0.010 A 
HETATM   12  C   UNL     1      43.988 -18.632   5.191  1.00  0.00     0.152 A 
HETATM   13  N   UNL     1      44.464 -19.520   4.315  1.00  0.00    -0.187 NA
HETATM   14  N   UNL     1      44.056 -19.043   3.130  1.00  0.00    -0.289 N 
HETATM   15  H   UNL     1      44.307 -19.558   2.291  1.00  0.00     0.188 HD
HETATM   16  C   UNL     1      43.339 -17.885   3.227  1.00  0.00     0.123 A 
ENDBRANCH   7  11
ENDBRANCH   2   5
BRANCH   1  17
HETATM   17  C   UNL     1      44.258 -11.744   5.702  1.00  0.00     0.103 C 
BRANCH  17  18
HETATM   18  C   UNL     1      43.023 -11.207   4.974  1.00  0.00     0.014 C 
BRANCH  18  19
HETATM   19  C   UNL     1      43.194 -11.191   3.451  1.00  0.00     0.046 C 
BRANCH  19  20
HETATM   20  C   UNL     1      42.707 -12.471   2.837  1.00  0.00    -0.017 A 
HETATM   21  S   UNL     1      41.048 -12.684   2.473  1.00  0.00    -0.100 SA
HETATM   22  C   UNL     1      41.311 -14.259   1.860  1.00  0.00    -0.021 A 
HETATM   23  C   UNL     1      40.167 -15.055   1.334  1.00  0.00     0.056 C 
HETATM   24  C   UNL     1      42.642 -14.614   1.928  1.00  0.00     0.015 A 
HETATM   25  C   UNL     1      43.447 -13.584   2.493  1.00  0.00     0.015 A 
ENDBRANCH  19  20
ENDBRANCH  18  19
ENDBRANCH  17  18
ENDBRANCH   1  17
TORSDOF 6
ENDMDL
MODEL 3
REMARK VINA RESULT:      -7.7      3.968      6.925
REMARK  6 active torsions:
REMARK  status: ('A' for Active; 'I' for Inactive)
REMARK    1  A    between atoms: C_4  and  C_5 
REMARK    2  A    between atoms: C_5  and  C_6 
REMARK    3  A    between atoms: C_6  and  C_7 
REMARK    4  A    between atoms: C_7  and  C_8 
REMARK       I    between atoms: C_8  and  N_9 
REMARK    5  A    between atoms: N_9  and  C_10 
REMARK    6  A    between atoms: C_12  and  C_13 
ROOT
HETATM    1  C   UNL     1      40.553 -13.630   5.237  1.00  0.00     0.222 C 
HETATM    2  N   UNL     1      39.743 -13.889   4.172  1.00  0.00    -0.327 N 
HETATM    3  O   UNL     1      40.004 -13.467   6.331  1.00  0.00    -0.273 OA
HETATM    4  H   UNL     1      38.779 -13.931   4.488  1.00  0.00     0.169 HD
ENDROOT
BRANCH   2   5
HETATM    5  C   UNL     1      39.938 -14.099   2.794  1.00  0.00     0.035 A 
HETATM    6  C   UNL     1      40.242 -13.119   1.847  1.00  0.00     0.042 A 
HETATM    7  C   UNL     1      40.415 -13.443   0.486  1.00  0.00    -0.021 A 
HETATM    8  C   UNL     1      40.269 -14.773   0.080  1.00  0.00     0.012 A 
HETATM    9  C   UNL     1      39.960 -15.761   1.011  1.00  0.00     0.003 A 
HETATM   10  C   UNL     1      39.796 -15.423   2.355  1.00  0.00     0.029 A 
BRANCH   7  11
HETATM   11  C   UNL     1      40.727 -12.416  -0.495  1.00  0.00     0.010 A 
HETATM   12  C   UNL     1      41.198 -11.091  -0.329  1.00  0.00     0.152 A 
HETATM   13  N   UNL     1      41.349 -10.445  -1.488  1.00  0.00    -0.187 NA
HETATM   14  N   UNL     1      40.971 -11.350  -2.403  1.00  0.00    -0.289 N 
HETATM   15  H   UNL     1      40.996 -11.084  -3.382  1.00  0.00     0.188 HD
HETATM   16  C   UNL     1      40.588 -12.544  -1.862  1.00  0.00     0.123 A 
ENDBRANCH   7  11
ENDBRANCH   2   5
BRANCH   1  17
HETATM   17  C   UNL     1      42.057 -13.553   5.092  1.00  0.00     0.103 C 
BRANCH  17  18
HETATM   18  C   UNL     1      42.746 -14.921   5.091  1.00  0.00     0.014 C 
BRANCH  18  19
HETATM   19  C   UNL     1      43.196 -15.355   3.692  1.00  0.00     0.046 C 
BRANCH  19  20
HETATM   20  C   UNL     1      43.438 -16.836   3.635  1.00  0.00    -0.017 A 
HETATM   21  S   UNL     1      43.909 -17.693   5.040  1.00  0.00    -0.100 SA
HETATM   22  C   UNL     1      43.971 -19.181   4.197  1.00  0.00    -0.021 A 
HETATM   23  C   UNL     1      44.346 -20.430   4.916  1.00  0.00     0.056 C 
HETATM   24  C   UNL     1      43.634 -19.025   2.869  1.00  0.00     0.015 A 
HETATM   25  C   UNL     1      43.329 -17.673   2.544  1.00  0.00     0.015 A 
ENDBRANCH  19  20
ENDBRANCH  18  19
ENDBRANCH  17  18
ENDBRANCH   1  17
TORSDOF 6
ENDMDL
MODEL 4
REMARK VINA RESULT:      -7.6      3.524      5.639
REMARK  6 active torsions:
REMARK  status: ('A' for Active; 'I' for Inactive)
REMARK    1  A    between atoms: C_4  and  C_5 
REMARK    2  A    between atoms: C_5  and  C_6 
REMARK    3  A    between atoms: C_6  and  C_7 
REMARK    4  A    between atoms: C_7  and  C_8 
REMARK       I    between atoms: C_8  and  N_9 
REMARK    5  A    between atoms: N_9  and  C_10 
REMARK    6  A    between atoms: C_12  and  C_13 
ROOT
HETATM    1  C   UNL     1      41.387 -13.630   5.118  1.00  0.00     0.222 C 
HETATM    2  N   UNL     1      42.450 -14.456   4.903  1.00  0.00    -0.327 N 
HETATM    3  O   UNL     1      41.415 -12.937   6.140  1.00  0.00    -0.273 OA
HETATM    4  H   UNL     1      43.128 -14.329   5.648  1.00  0.00     0.169 HD
ENDROOT
BRANCH   2   5
HETATM    5  C   UNL     1      42.798 -15.404   3.922  1.00  0.00     0.035 A 
HETATM    6  C   UNL     1      43.062 -16.757   4.142  1.00  0.00     0.042 A 
HETATM    7  C   UNL     1      43.405 -17.619   3.081  1.00  0.00    -0.021 A 
HETATM    8  C   UNL     1      43.492 -17.101   1.785  1.00  0.00     0.012 A 
HETATM    9  C   UNL     1      43.239 -15.752   1.550  1.00  0.00     0.003 A 
HETATM   10  C   UNL     1      42.896 -14.914   2.611  1.00  0.00     0.029 A 
BRANCH   7  11
HETATM   11  C   UNL     1      43.682 -19.027   3.319  1.00  0.00     0.010 A 
HETATM   12  C   UNL     1      43.575 -20.148   2.461  1.00  0.00     0.152 A 
HETATM   13  N   UNL     1      43.909 -21.293   3.061  1.00  0.00    -0.187 NA
HETATM   14  N   UNL     1      44.227 -20.914   4.307  1.00  0.00    -0.289 N 
HETATM   15  H   UNL     1      44.516 -21.628   4.969  1.00  0.00     0.188 HD
HETATM   16  C   UNL     1      44.106 -19.569   4.515  1.00  0.00     0.123 A 
ENDBRANCH   7  11
ENDBRANCH   2   5
BRANCH   1  17
HETATM   17  C   UNL     1      40.228 -13.558   4.149  1.00  0.00     0.103 C 
BRANCH  17  18
HETATM   18  C   UNL     1      40.277 -12.342   3.220  1.00  0.00     0.014 C 
BRANCH  18  19
HETATM   19  C   UNL     1      39.139 -12.334   2.194  1.00  0.00     0.046 C 
BRANCH  19  20
HETATM   20  C   UNL     1      39.607 -12.843   0.861  1.00  0.00    -0.017 A 
HETATM   21  S   UNL     1      39.853 -11.762  -0.443  1.00  0.00    -0.100 SA
HETATM   22  C   UNL     1      40.337 -13.024  -1.491  1.00  0.00    -0.021 A 
HETATM   23  C   UNL     1      40.723 -12.719  -2.897  1.00  0.00     0.056 C 
HETATM   24  C   UNL     1      40.315 -14.248  -0.855  1.00  0.00     0.015 A 
HETATM   25  C   UNL     1      39.892 -14.143   0.500  1.00  0.00     0.015 A 
ENDBRANCH  19  20
ENDBRANCH  18  19
ENDBRANCH  17  18
ENDBRANCH   1  17
TORSDOF 6
ENDMDL
MODEL 5
REMARK VINA RESULT:      -7.5      3.361      7.298
REMARK  6 active torsions:
REMARK  status: ('A' for Active; 'I' for Inactive)
REMARK    1  A    between atoms: C_4  and  C_5 
REMARK    2  A    between atoms: C_5  and  C_6 
REMARK    3  A    between atoms: C_6  and  C_7 
REMARK    4  A    between atoms: C_7  and  C_8 
REMARK       I    between atoms: C_8  and  N_9 
REMARK    5  A    between atoms: N_9  and  C_10 
REMARK    6  A    between atoms: C_12  and  C_13 
ROOT
HETATM    1  C   UNL     1      43.455 -17.680   6.410  1.00  0.00     0.222 C 
HETATM    2  N   UNL     1      42.904 -16.527   6.885  1.00  0.00    -0.327 N 
HETATM    3  O   UNL     1      43.254 -18.707   7.064  1.00  0.00    -0.273 OA
HETATM    4  H   UNL     1      42.374 -16.732   7.725  1.00  0.00     0.169 HD
ENDROOT
BRANCH   2   5
HETATM    5  C   UNL     1      42.910 -15.176   6.488  1.00  0.00     0.035 A 
HETATM    6  C   UNL     1      43.789 -14.190   6.939  1.00  0.00     0.042 A 
HETATM    7  C   UNL     1      43.703 -12.863   6.472  1.00  0.00    -0.021 A 
HETATM    8  C   UNL     1      42.708 -12.530   5.547  1.00  0.00     0.012 A 
HETATM    9  C   UNL     1      41.820 -13.502   5.092  1.00  0.00     0.003 A 
HETATM   10  C   UNL     1      41.923 -14.811   5.561  1.00  0.00     0.029 A 
BRANCH   7  11
HETATM   11  C   UNL     1      44.619 -11.839   6.950  1.00  0.00     0.010 A 
HETATM   12  C   UNL     1      44.604 -11.066   8.137  1.00  0.00     0.152 A 
HETATM   13  N   UNL     1      45.624 -10.207   8.208  1.00  0.00    -0.187 NA
HETATM   14  N   UNL     1      46.295 -10.421   7.067  1.00  0.00    -0.289 N 
HETATM   15  H   UNL     1      47.128  -9.868   6.887  1.00  0.00     0.188 HD
HETATM   16  C   UNL     1      45.735 -11.385   6.278  1.00  0.00     0.123 A 
ENDBRANCH   7  11
ENDBRANCH   2   5
BRANCH   1  17
HETATM   17  C   UNL     1      44.270 -17.705   5.136  1.00  0.00     0.103 C 
BRANCH  17  18
HETATM   18  C   UNL     1      43.624 -18.514   4.008  1.00  0.00     0.014 C 
BRANCH  18  19
HETATM   19  C   UNL     1      43.866 -17.899   2.625  1.00  0.00     0.046 C 
BRANCH  19  20
HETATM   20  C   UNL     1      42.853 -16.833   2.321  1.00  0.00    -0.017 A 
HETATM   21  S   UNL     1      43.354 -15.292   1.769  1.00  0.00    -0.100 SA
HETATM   22  C   UNL     1      41.742 -14.726   1.669  1.00  0.00    -0.021 A 
HETATM   23  C   UNL     1      41.467 -13.336   1.207  1.00  0.00     0.056 C 
HETATM   24  C   UNL     1      40.839 -15.698   2.044  1.00  0.00     0.015 A 
HETATM   25  C   UNL     1      41.480 -16.912   2.423  1.00  0.00     0.015 A 
ENDBRANCH  19  20
ENDBRANCH  18  19
ENDBRANCH  17  18
ENDBRANCH   1  17
TORSDOF 6
ENDMDL
MODEL 6
REMARK VINA RESULT:      -7.5      3.083      6.804
REMARK  6 active torsions:
REMARK  status: ('A' for Active; 'I' for Inactive)
REMARK    1  A    between atoms: C_4  and  C_5 
REMARK    2  A    between atoms: C_5  and  C_6 
REMARK    3  A    between atoms: C_6  and  C_7 
REMARK    4  A    between atoms: C_7  and  C_8 
REMARK       I    between atoms: C_8  and  N_9 
REMARK    5  A    between atoms: N_9  and  C_10 
REMARK    6  A    between atoms: C_12  and  C_13 
ROOT
HETATM    1  C   UNL     1      43.928 -18.540   4.805  1.00  0.00     0.222 C 
HETATM    2  N   UNL     1      43.201 -17.887   5.755  1.00  0.00    -0.327 N 
HETATM    3  O   UNL     1      44.329 -19.673   5.088  1.00  0.00    -0.273 OA
HETATM    4  H   UNL     1      43.088 -18.491   6.563  1.00  0.00     0.169 HD
ENDROOT
BRANCH   2   5
HETATM    5  C   UNL     1      42.602 -16.617   5.861  1.00  0.00     0.035 A 
HETATM    6  C   UNL     1      43.272 -15.397   5.960  1.00  0.00     0.042 A 
HETATM    7  C   UNL     1      42.568 -14.180   6.063  1.00  0.00    -0.021 A 
HETATM    8  C   UNL     1      41.170 -14.202   6.075  1.00  0.00     0.012 A 
HETATM    9  C   UNL     1      40.487 -15.413   5.983  1.00  0.00     0.003 A 
HETATM   10  C   UNL     1      41.199 -16.607   5.878  1.00  0.00     0.029 A 
BRANCH   7  11
HETATM   11  C   UNL     1      43.273 -12.913   6.171  1.00  0.00     0.010 A 
HETATM   12  C   UNL     1      44.544 -12.606   6.714  1.00  0.00     0.152 A 
HETATM   13  N   UNL     1      44.838 -11.305   6.643  1.00  0.00    -0.187 NA
HETATM   14  N   UNL     1      43.756 -10.771   6.057  1.00  0.00    -0.289 N 
HETATM   15  H   UNL     1      43.741  -9.768   5.896  1.00  0.00     0.188 HD
HETATM   16  C   UNL     1      42.790 -11.689   5.757  1.00  0.00     0.123 A 
ENDBRANCH   7  11
ENDBRANCH   2   5
BRANCH   1  17
HETATM   17  C   UNL     1      44.227 -17.912   3.462  1.00  0.00     0.103 C 
BRANCH  17  18
HETATM   18  C   UNL     1      42.985 -17.703   2.591  1.00  0.00     0.014 C 
BRANCH  18  19
HETATM   19  C   UNL     1      43.065 -16.427   1.744  1.00  0.00     0.046 C 
BRANCH  19  20
HETATM   20  C   UNL     1      41.930 -15.496   2.059  1.00  0.00    -0.017 A 
HETATM   21  S   UNL     1      42.219 -13.827   2.302  1.00  0.00    -0.100 SA
HETATM   22  C   UNL     1      40.562 -13.509   2.585  1.00  0.00    -0.021 A 
HETATM   23  C   UNL     1      40.109 -12.120   2.878  1.00  0.00     0.056 C 
HETATM   24  C   UNL     1      39.802 -14.655   2.490  1.00  0.00     0.015 A 
HETATM   25  C   UNL     1      40.591 -15.802   2.189  1.00  0.00     0.015 A 
ENDBRANCH  19  20
ENDBRANCH  18  19
ENDBRANCH  17  18
ENDBRANCH   1  17
TORSDOF 6
ENDMDL
MODEL 7
REMARK VINA RESULT:      -7.5      3.027      4.035
REMARK  6 active torsions:
REMARK  status: ('A' for Active; 'I' for Inactive)
REMARK    1  A    between atoms: C_4  and  C_5 
REMARK    2  A    between atoms: C_5  and  C_6 
REMARK    3  A    between atoms: C_6  and  C_7 
REMARK    4  A    between atoms: C_7  and  C_8 
REMARK       I    between atoms: C_8  and  N_9 
REMARK    5  A    between atoms: N_9  and  C_10 
REMARK    6  A    between atoms: C_12  and  C_13 
ROOT
HETATM    1  C   UNL     1      42.532 -11.604   3.796  1.00  0.00     0.222 C 
HETATM    2  N   UNL     1      42.988 -12.736   3.188  1.00  0.00    -0.327 N 
HETATM    3  O   UNL     1      43.328 -10.665   3.898  1.00  0.00    -0.273 OA
HETATM    4  H   UNL     1      43.945 -12.590   2.885  1.00  0.00     0.169 HD
ENDROOT
BRANCH   2   5
HETATM    5  C   UNL     1      42.448 -14.005   2.902  1.00  0.00     0.035 A 
HETATM    6  C   UNL     1      43.075 -15.233   3.119  1.00  0.00     0.042 A 
HETATM    7  C   UNL     1      42.440 -16.448   2.793  1.00  0.00    -0.021 A 
HETATM    8  C   UNL     1      41.160 -16.417   2.230  1.00  0.00     0.012 A 
HETATM    9  C   UNL     1      40.524 -15.199   2.001  1.00  0.00     0.003 A 
HETATM   10  C   UNL     1      41.166 -14.006   2.335  1.00  0.00     0.029 A 
BRANCH   7  11
HETATM   11  C   UNL     1      43.101 -17.723   3.018  1.00  0.00     0.010 A 
HETATM   12  C   UNL     1      43.991 -18.136   4.040  1.00  0.00     0.152 A 
HETATM   13  N   UNL     1      44.403 -19.397   3.890  1.00  0.00    -0.187 NA
HETATM   14  N   UNL     1      43.783 -19.799   2.771  1.00  0.00    -0.289 N 
HETATM   15  H   UNL     1      43.947 -20.746   2.443  1.00  0.00     0.188 HD
HETATM   16  C   UNL     1      42.995 -18.836   2.209  1.00  0.00     0.123 A 
ENDBRANCH   7  11
ENDBRANCH   2   5
BRANCH   1  17
HETATM   17  C   UNL     1      41.116 -11.496   4.316  1.00  0.00     0.103 C 
BRANCH  17  18
HETATM   18  C   UNL     1      40.948 -11.997   5.753  1.00  0.00     0.014 C 
BRANCH  18  19
HETATM   19  C   UNL     1      40.052 -13.237   5.847  1.00  0.00     0.046 C 
BRANCH  19  20
HETATM   20  C   UNL     1      40.857 -14.467   6.151  1.00  0.00    -0.017 A 
HETATM   21  S   UNL     1      42.440 -14.333   6.789  1.00  0.00    -0.100 SA
HETATM   22  C   UNL     1      42.638 -16.031   6.842  1.00  0.00    -0.021 A 
HETATM   23  C   UNL     1      43.911 -16.618   7.350  1.00  0.00     0.056 C 
HETATM   24  C   UNL     1      41.515 -16.688   6.385  1.00  0.00     0.015 A 
HETATM   25  C   UNL     1      40.489 -15.786   5.984  1.00  0.00     0.015 A 
ENDBRANCH  19  20
ENDBRANCH  18  19
ENDBRANCH  17  18
ENDBRANCH   1  17
TORSDOF 6
ENDMDL
MODEL 8
REMARK VINA RESULT:      -7.3      1.703      2.684
REMARK  6 active torsions:
REMARK  status: ('A' for Active; 'I' for Inactive)
REMARK    1  A    between atoms: C_4  and  C_5 
REMARK    2  A    between atoms: C_5  and  C_6 
REMARK    3  A    between atoms: C_6  and  C_7 
REMARK    4  A    between atoms: C_7  and  C_8 
REMARK       I    between atoms: C_8  and  N_9 
REMARK    5  A    between atoms: N_9  and  C_10 
REMARK    6  A    between atoms: C_12  and  C_13 
ROOT
HETATM    1  C   UNL     1      42.663 -11.862   5.764  1.00  0.00     0.222 C 
HETATM    2  N   UNL     1      42.076 -12.891   5.091  1.00  0.00    -0.327 N 
HETATM    3  O   UNL     1      41.920 -11.123   6.416  1.00  0.00    -0.273 OA
HETATM    4  H   UNL     1      41.078 -12.885   5.277  1.00  0.00     0.169 HD
ENDROOT
BRANCH   2   5
HETATM    5  C   UNL     1      42.525 -13.913   4.233  1.00  0.00     0.035 A 
HETATM    6  C   UNL     1      42.821 -15.227   4.602  1.00  0.00     0.042 A 
HETATM    7  C   UNL     1      43.267 -16.171   3.655  1.00  0.00    -0.021 A 
HETATM    8  C   UNL     1      43.426 -15.776   2.323  1.00  0.00     0.012 A 
HETATM    9  C   UNL     1      43.142 -14.468   1.941  1.00  0.00     0.003 A 
HETATM   10  C   UNL     1      42.696 -13.547   2.890  1.00  0.00     0.029 A 
BRANCH   7  11
HETATM   11  C   UNL     1      43.577 -17.536   4.048  1.00  0.00     0.010 A 
HETATM   12  C   UNL     1      43.716 -18.121   5.330  1.00  0.00     0.152 A 
HETATM   13  N   UNL     1      44.027 -19.418   5.278  1.00  0.00    -0.187 NA
HETATM   14  N   UNL     1      44.093 -19.672   3.963  1.00  0.00    -0.289 N 
HETATM   15  H   UNL     1      44.325 -20.615   3.665  1.00  0.00     0.188 HD
HETATM   16  C   UNL     1      43.836 -18.580   3.183  1.00  0.00     0.123 A 
ENDBRANCH   7  11
ENDBRANCH   2   5
BRANCH   1  17
HETATM   17  C   UNL     1      44.159 -11.637   5.722  1.00  0.00     0.103 C 
BRANCH  17  18
HETATM   18  C   UNL     1      44.864 -11.941   7.046  1.00  0.00     0.014 C 
BRANCH  18  19
HETATM   19  C   UNL     1      45.757 -10.788   7.520  1.00  0.00     0.046 C 
BRANCH  19  20
HETATM   20  C   UNL     1      45.115 -10.033   8.647  1.00  0.00    -0.017 A 
HETATM   21  S   UNL     1      44.001  -8.774   8.326  1.00  0.00    -0.100 SA
HETATM   22  C   UNL     1      43.762  -8.464   9.991  1.00  0.00    -0.021 A 
HETATM   23  C   UNL     1      42.821  -7.393  10.423  1.00  0.00     0.056 C 
HETATM   24  C   UNL     1      44.515  -9.310  10.778  1.00  0.00     0.015 A 
HETATM   25  C   UNL     1      45.297 -10.213  10.003  1.00  0.00     0.015 A 
ENDBRANCH  19  20
ENDBRANCH  18  19
ENDBRANCH  17  18
ENDBRANCH   1  17
TORSDOF 6
ENDMDL
MODEL 9
REMARK VINA RESULT:      -7.2      3.717      6.532
REMARK  6 active torsions:
REMARK  status: ('A' for Active; 'I' for Inactive)
REMARK    1  A    between atoms: C_4  and  C_5 
REMARK    2  A    between atoms: C_5  and  C_6 
REMARK    3  A    between atoms: C_6  and  C_7 
REMARK    4  A    between atoms: C_7  and  C_8 
REMARK       I    between atoms: C_8  and  N_9 
REMARK    5  A    between atoms: N_9  and  C_10 
REMARK    6  A    between atoms: C_12  and  C_13 
ROOT
HETATM    1  C   UNL     1      40.919 -13.754   3.674  1.00  0.00     0.222 C 
HETATM    2  N   UNL     1      41.167 -14.779   4.537  1.00  0.00    -0.327 N 
HETATM    3  O   UNL     1      39.809 -13.218   3.748  1.00  0.00    -0.273 OA
HETATM    4  H   UNL     1      40.362 -14.912   5.140  1.00  0.00     0.169 HD
ENDROOT
BRANCH   2   5
HETATM    5  C   UNL     1      42.245 -15.657   4.766  1.00  0.00     0.035 A 
HETATM    6  C   UNL     1      42.422 -16.912   4.182  1.00  0.00     0.042 A 
HETATM    7  C   UNL     1      43.543 -17.710   4.486  1.00  0.00    -0.021 A 
HETATM    8  C   UNL     1      44.489 -17.235   5.399  1.00  0.00     0.012 A 
HETATM    9  C   UNL     1      44.324 -15.987   5.995  1.00  0.00     0.003 A 
HETATM   10  C   UNL     1      43.210 -15.208   5.679  1.00  0.00     0.029 A 
BRANCH   7  11
HETATM   11  C   UNL     1      43.718 -19.019   3.877  1.00  0.00     0.010 A 
HETATM   12  C   UNL     1      43.516 -19.454   2.544  1.00  0.00     0.152 A 
HETATM   13  N   UNL     1      43.772 -20.754   2.378  1.00  0.00    -0.187 NA
HETATM   14  N   UNL     1      44.135 -21.161   3.603  1.00  0.00    -0.289 N 
HETATM   15  H   UNL     1      44.379 -22.138   3.733  1.00  0.00     0.188 HD
HETATM   16  C   UNL     1      44.118 -20.163   4.537  1.00  0.00     0.123 A 
ENDBRANCH   7  11
ENDBRANCH   2   5
BRANCH   1  17
HETATM   17  C   UNL     1      41.954 -13.286   2.676  1.00  0.00     0.103 C 
BRANCH  17  18
HETATM   18  C   UNL     1      41.379 -12.980   1.290  1.00  0.00     0.014 C 
BRANCH  18  19
HETATM   19  C   UNL     1      40.838 -14.229   0.585  1.00  0.00     0.046 C 
BRANCH  19  20
HETATM   20  C   UNL     1      39.822 -13.865  -0.458  1.00  0.00    -0.017 A 
HETATM   21  S   UNL     1      39.171 -12.284  -0.523  1.00  0.00    -0.100 SA
HETATM   22  C   UNL     1      38.185 -12.668  -1.867  1.00  0.00    -0.021 A 
HETATM   23  C   UNL     1      37.298 -11.629  -2.462  1.00  0.00     0.056 C 
HETATM   24  C   UNL     1      38.353 -13.978  -2.261  1.00  0.00     0.015 A 
HETATM   25  C   UNL     1      39.296 -14.669  -1.448  1.00  0.00     0.015 A 
ENDBRANCH  19  20
ENDBRANCH  18  19
ENDBRANCH  17  18
ENDBRANCH   1  17
TORSDOF 6
ENDMDL
MODEL 10
REMARK VINA RESULT:      -7.2      2.331      2.931
REMARK  6 active torsions:
REMARK  status: ('A' for Active; 'I' for Inactive)
REMARK    1  A    between atoms: C_4  and  C_5 
REMARK    2  A    between atoms: C_5  and  C_6 
REMARK    3  A    between atoms: C_6  and  C_7 
REMARK    4  A    between atoms: C_7  and  C_8 
REMARK       I    between atoms: C_8  and  N_9 
REMARK    5  A    between atoms: N_9  and  C_10 
REMARK    6  A    between atoms: C_12  and  C_13 
ROOT
HETATM    1  C   UNL     1      41.974 -11.313   1.997  1.00  0.00     0.222 C 
HETATM    2  N   UNL     1      41.718 -12.524   1.427  1.00  0.00    -0.327 N 
HETATM    3  O   UNL     1      42.166 -10.363   1.232  1.00  0.00    -0.273 OA
HETATM    4  H   UNL     1      41.704 -12.421   0.417  1.00  0.00     0.169 HD
ENDROOT
BRANCH   2   5
HETATM    5  C   UNL     1      41.483 -13.827   1.907  1.00  0.00     0.035 A 
HETATM    6  C   UNL     1      42.426 -14.668   2.499  1.00  0.00     0.042 A 
HETATM    7  C   UNL     1      42.079 -15.960   2.944  1.00  0.00    -0.021 A 
HETATM    8  C   UNL     1      40.765 -16.407   2.775  1.00  0.00     0.012 A 
HETATM    9  C   UNL     1      39.814 -15.582   2.180  1.00  0.00     0.003 A 
HETATM   10  C   UNL     1      40.174 -14.304   1.750  1.00  0.00     0.029 A 
BRANCH   7  11
HETATM   11  C   UNL     1      43.068 -16.832   3.556  1.00  0.00     0.010 A 
HETATM   12  C   UNL     1      43.608 -18.067   3.121  1.00  0.00     0.152 A 
HETATM   13  N   UNL     1      44.493 -18.577   3.981  1.00  0.00    -0.187 NA
HETATM   14  N   UNL     1      44.523 -17.675   4.973  1.00  0.00    -0.289 N 
HETATM   15  H   UNL     1      45.135 -17.850   5.764  1.00  0.00     0.188 HD
HETATM   16  C   UNL     1      43.688 -16.614   4.770  1.00  0.00     0.123 A 
ENDBRANCH   7  11
ENDBRANCH   2   5
BRANCH   1  17
HETATM   17  C   UNL     1      42.013 -11.133   3.499  1.00  0.00     0.103 C 
BRANCH  17  18
HETATM   18  C   UNL     1      43.418 -11.248   4.096  1.00  0.00     0.014 C 
BRANCH  18  19
HETATM   19  C   UNL     1      43.447 -12.076   5.386  1.00  0.00     0.046 C 
BRANCH  19  20
HETATM   20  C   UNL     1      44.355 -11.456   6.408  1.00  0.00    -0.017 A 
HETATM   21  S   UNL     1      43.707 -10.701   7.801  1.00  0.00    -0.100 SA
HETATM   22  C   UNL     1      45.261 -10.295   8.390  1.00  0.00    -0.021 A 
HETATM   23  C   UNL     1      45.401  -9.566   9.682  1.00  0.00     0.056 C 
HETATM   24  C   UNL     1      46.255 -10.733   7.541  1.00  0.00     0.015 A 
HETATM   25  C   UNL     1      45.733 -11.400   6.397  1.00  0.00     0.015 A 
ENDBRANCH  19  20
ENDBRANCH  18  19
ENDBRANCH  17  18
ENDBRANCH   1  17
TORSDOF 6
ENDMDL
