MODEL 1
REMARK VINA RESULT:      -7.7      0.000      0.000
REMARK  6 active torsions:
REMARK  status: ('A' for Active; 'I' for Inactive)
REMARK    1  A    between atoms: C_4  and  C_5 
REMARK    2  A    between atoms: C_5  and  N_6 
REMARK    3  A    between atoms: C_5  and  C_10 
REMARK    4  A    between atoms: C_10  and  N_11 
REMARK       I    between atoms: N_11  and  C_12 
REMARK       I    between atoms: C_12  and  N_13 
REMARK    5  A    between atoms: N_13  and  C_14 
REMARK    6  A    between atoms: C_17  and  N_18 
ROOT
HETATM    1  N   UNL     1      43.566 -12.155   7.873  1.00  0.00    -0.340 N 
HETATM    2  C   UNL     1      43.811 -12.953   6.773  1.00  0.00     0.320 C 
HETATM    3  N   UNL     1      43.261 -14.199   6.934  1.00  0.00    -0.309 N 
HETATM    4  O   UNL     1      44.435 -12.519   5.814  1.00  0.00    -0.247 OA
HETATM    5  H   UNL     1      43.455 -12.654   8.747  1.00  0.00     0.164 HD
HETATM    6  H   UNL     1      42.585 -14.295   7.678  1.00  0.00     0.170 HD
ENDROOT
BRANCH   1   7
HETATM    7  C   UNL     1      44.177 -10.834   7.943  1.00  0.00     0.164 C 
BRANCH   7   8
HETATM    8  C   UNL     1      43.230  -9.694   8.443  1.00  0.00     0.261 C 
BRANCH   8   9
HETATM    9  C   UNL     1      42.181  -9.452   7.400  1.00  0.00     0.085 A 
HETATM   10  O   UNL     1      41.321 -10.487   7.163  1.00  0.00    -0.318 OA
HETATM   11  C   UNL     1      40.473 -10.079   6.178  1.00  0.00     0.049 A 
HETATM   12  C   UNL     1      39.464 -11.058   5.720  1.00  0.00     0.076 C 
HETATM   13  C   UNL     1      40.761  -8.781   5.812  1.00  0.00     0.035 A 
HETATM   14  C   UNL     1      41.864  -8.376   6.600  1.00  0.00     0.037 A 
ENDBRANCH   8   9
BRANCH   8  15
HETATM   15  N   UNL     1      42.568 -10.068   9.790  1.00  0.00    -0.067 N 
HETATM   16  H   UNL     1      41.997 -10.899   9.588  1.00  0.00     0.280 HD
HETATM   17  C   UNL     1      43.545 -10.397  10.882  1.00  0.00     0.270 C 
HETATM   18  C   UNL     1      41.606  -9.001  10.256  1.00  0.00     0.270 C 
ENDBRANCH   8  15
ENDBRANCH   7   8
ENDBRANCH   1   7
BRANCH   3  19
HETATM   19  C   UNL     1      43.448 -15.335   6.122  1.00  0.00     0.036 A 
HETATM   20  C   UNL     1      44.578 -16.149   6.167  1.00  0.00     0.032 A 
HETATM   21  C   UNL     1      44.666 -17.300   5.368  1.00  0.00     0.032 A 
HETATM   22  C   UNL     1      43.625 -17.654   4.505  1.00  0.00     0.040 A 
HETATM   23  C   UNL     1      42.490 -16.831   4.460  1.00  0.00     0.032 A 
HETATM   24  C   UNL     1      42.407 -15.683   5.258  1.00  0.00     0.032 A 
BRANCH  22  25
HETATM   25  N   UNL     1      43.670 -18.846   3.715  1.00  0.00    -0.309 N 
HETATM   26  C   UNL     1      43.866 -20.174   4.100  1.00  0.00     0.106 A 
HETATM   27  C   UNL     1      44.265 -20.648   5.451  1.00  0.00     0.091 C 
HETATM   28  N   UNL     1      43.752 -20.994   3.071  1.00  0.00    -0.246 NA
HETATM   29  C   UNL     1      43.531 -20.209   1.982  1.00  0.00     0.136 A 
HETATM   30  C   UNL     1      43.503 -18.887   2.342  1.00  0.00     0.118 A 
ENDBRANCH  22  25
ENDBRANCH   3  19
TORSDOF 6
ENDMDL
MODEL 2
REMARK VINA RESULT:      -7.7      5.682      7.278
REMARK  6 active torsions:
REMARK  status: ('A' for Active; 'I' for Inactive)
REMARK    1  A    between atoms: C_4  and  C_5 
REMARK    2  A    between atoms: C_5  and  N_6 
REMARK    3  A    between atoms: C_5  and  C_10 
REMARK    4  A    between atoms: C_10  and  N_11 
REMARK       I    between atoms: N_11  and  C_12 
REMARK       I    between atoms: C_12  and  N_13 
REMARK    5  A    between atoms: N_13  and  C_14 
REMARK    6  A    between atoms: C_17  and  N_18 
ROOT
HETATM    1  N   UNL     1      41.668 -11.889   1.213  1.00  0.00    -0.340 N 
HETATM    2  C   UNL     1      41.527 -13.155   1.746  1.00  0.00     0.320 C 
HETATM    3  N   UNL     1      42.705 -13.598   2.290  1.00  0.00    -0.309 N 
HETATM    4  O   UNL     1      40.447 -13.731   1.707  1.00  0.00    -0.247 OA
HETATM    5  H   UNL     1      42.601 -11.663   0.891  1.00  0.00     0.164 HD
HETATM    6  H   UNL     1      43.416 -12.897   2.442  1.00  0.00     0.170 HD
ENDROOT
BRANCH   1   7
HETATM    7  C   UNL     1      40.557 -11.298   0.479  1.00  0.00     0.164 C 
BRANCH   7   8
HETATM    8  C   UNL     1      40.637 -11.454  -1.076  1.00  0.00     0.261 C 
BRANCH   8   9
HETATM    9  C   UNL     1      39.396 -12.147  -1.552  1.00  0.00     0.085 A 
HETATM   10  O   UNL     1      39.588 -13.294  -2.270  1.00  0.00    -0.318 OA
HETATM   11  C   UNL     1      38.354 -13.751  -2.625  1.00  0.00     0.049 A 
HETATM   12  C   UNL     1      38.310 -14.975  -3.452  1.00  0.00     0.076 C 
HETATM   13  C   UNL     1      37.377 -12.927  -2.108  1.00  0.00     0.035 A 
HETATM   14  C   UNL     1      38.049 -11.891  -1.416  1.00  0.00     0.037 A 
ENDBRANCH   8   9
BRANCH   8  15
HETATM   15  N   UNL     1      40.779 -10.078  -1.769  1.00  0.00    -0.067 N 
HETATM   16  H   UNL     1      39.902  -9.582  -1.564  1.00  0.00     0.280 HD
HETATM   17  C   UNL     1      41.935  -9.259  -1.272  1.00  0.00     0.270 C 
HETATM   18  C   UNL     1      40.844 -10.214  -3.272  1.00  0.00     0.270 C 
ENDBRANCH   8  15
ENDBRANCH   7   8
ENDBRANCH   1   7
BRANCH   3  19
HETATM   19  C   UNL     1      43.005 -14.891   2.759  1.00  0.00     0.036 A 
HETATM   20  C   UNL     1      43.019 -15.250   4.106  1.00  0.00     0.032 A 
HETATM   21  C   UNL     1      43.269 -16.576   4.493  1.00  0.00     0.032 A 
HETATM   22  C   UNL     1      43.515 -17.567   3.537  1.00  0.00     0.040 A 
HETATM   23  C   UNL     1      43.502 -17.202   2.183  1.00  0.00     0.032 A 
HETATM   24  C   UNL     1      43.253 -15.878   1.802  1.00  0.00     0.032 A 
BRANCH  22  25
HETATM   25  N   UNL     1      43.726 -18.934   3.903  1.00  0.00    -0.309 N 
HETATM   26  C   UNL     1      43.671 -20.093   3.125  1.00  0.00     0.106 A 
HETATM   27  C   UNL     1      43.189 -20.187   1.723  1.00  0.00     0.091 C 
HETATM   28  N   UNL     1      44.016 -21.158   3.825  1.00  0.00    -0.246 NA
HETATM   29  C   UNL     1      44.251 -20.721   5.092  1.00  0.00     0.136 A 
HETATM   30  C   UNL     1      44.054 -19.367   5.175  1.00  0.00     0.118 A 
ENDBRANCH  22  25
ENDBRANCH   3  19
TORSDOF 6
ENDMDL
MODEL 3
REMARK VINA RESULT:      -7.5      1.631      2.766
REMARK  6 active torsions:
REMARK  status: ('A' for Active; 'I' for Inactive)
REMARK    1  A    between atoms: C_4  and  C_5 
REMARK    2  A    between atoms: C_5  and  N_6 
REMARK    3  A    between atoms: C_5  and  C_10 
REMARK    4  A    between atoms: C_10  and  N_11 
REMARK       I    between atoms: N_11  and  C_12 
REMARK       I    between atoms: C_12  and  N_13 
REMARK    5  A    between atoms: N_13  and  C_14 
REMARK    6  A    between atoms: C_17  and  N_18 
ROOT
HETATM    1  N   UNL     1      42.480 -11.288   7.179  1.00  0.00    -0.340 N 
HETATM    2  C   UNL     1      42.874 -12.295   6.320  1.00  0.00     0.320 C 
HETATM    3  N   UNL     1      42.455 -13.521   6.769  1.00  0.00    -0.309 N 
HETATM    4  O   UNL     1      43.502 -12.036   5.302  1.00  0.00    -0.247 OA
HETATM    5  H   UNL     1      42.373 -11.568   8.146  1.00  0.00     0.164 HD
HETATM    6  H   UNL     1      41.751 -13.513   7.494  1.00  0.00     0.170 HD
ENDROOT
BRANCH   1   7
HETATM    7  C   UNL     1      42.938  -9.926   6.935  1.00  0.00     0.164 C 
BRANCH   7   8
HETATM    8  C   UNL     1      43.941  -9.367   7.998  1.00  0.00     0.261 C 
BRANCH   8   9
HETATM    9  C   UNL     1      43.157  -8.809   9.148  1.00  0.00     0.085 A 
HETATM   10  O   UNL     1      42.176  -9.616   9.652  1.00  0.00    -0.318 OA
HETATM   11  C   UNL     1      41.575  -8.925  10.660  1.00  0.00     0.049 A 
HETATM   12  C   UNL     1      40.442  -9.589  11.339  1.00  0.00     0.076 C 
HETATM   13  C   UNL     1      42.187  -7.701  10.828  1.00  0.00     0.035 A 
HETATM   14  C   UNL     1      43.209  -7.625   9.850  1.00  0.00     0.037 A 
ENDBRANCH   8   9
BRANCH   8  15
HETATM   15  N   UNL     1      44.904 -10.471   8.492  1.00  0.00    -0.067 N 
HETATM   16  H   UNL     1      44.320 -11.311   8.597  1.00  0.00     0.280 HD
HETATM   17  C   UNL     1      46.030 -10.770   7.546  1.00  0.00     0.270 C 
HETATM   18  C   UNL     1      45.447 -10.164   9.868  1.00  0.00     0.270 C 
ENDBRANCH   8  15
ENDBRANCH   7   8
ENDBRANCH   1   7
BRANCH   3  19
HETATM   19  C   UNL     1      42.813 -14.789   6.272  1.00  0.00     0.036 A 
HETATM   20  C   UNL     1      44.081 -15.350   6.405  1.00  0.00     0.032 A 
HETATM   21  C   UNL     1      44.346 -16.647   5.935  1.00  0.00     0.032 A 
HETATM   22  C   UNL     1      43.344 -17.404   5.319  1.00  0.00     0.040 A 
HETATM   23  C   UNL     1      42.069 -16.835   5.185  1.00  0.00     0.032 A 
HETATM   24  C   UNL     1      41.810 -15.541   5.654  1.00  0.00     0.032 A 
BRANCH  22  25
HETATM   25  N   UNL     1      43.574 -18.743   4.874  1.00  0.00    -0.309 N 
HETATM   26  C   UNL     1      43.664 -19.259   3.579  1.00  0.00     0.106 A 
HETATM   27  C   UNL     1      43.353 -18.532   2.321  1.00  0.00     0.091 C 
HETATM   28  N   UNL     1      43.974 -20.543   3.594  1.00  0.00    -0.246 NA
HETATM   29  C   UNL     1      44.039 -20.903   4.904  1.00  0.00     0.136 A 
HETATM   30  C   UNL     1      43.772 -19.828   5.710  1.00  0.00     0.118 A 
ENDBRANCH  22  25
ENDBRANCH   3  19
TORSDOF 6
ENDMDL
MODEL 4
REMARK VINA RESULT:      -7.4      1.514      3.056
REMARK  6 active torsions:
REMARK  status: ('A' for Active; 'I' for Inactive)
REMARK    1  A    between atoms: C_4  and  C_5 
REMARK    2  A    between atoms: C_5  and  N_6 
REMARK    3  A    between atoms: C_5  and  C_10 
REMARK    4  A    between atoms: C_10  and  N_11 
REMARK       I    between atoms: N_11  and  C_12 
REMARK       I    between atoms: C_12  and  N_13 
REMARK    5  A    between atoms: N_13  and  C_14 
REMARK    6  A    between atoms: C_17  and  N_18 
ROOT
HETATM    1  N   UNL     1      42.850 -11.834   6.994  1.00  0.00    -0.340 N 
HETATM    2  C   UNL     1      42.720 -12.786   6.003  1.00  0.00     0.320 C 
HETATM    3  N   UNL     1      42.828 -14.053   6.516  1.00  0.00    -0.309 N 
HETATM    4  O   UNL     1      42.519 -12.454   4.842  1.00  0.00    -0.247 OA
HETATM    5  H   UNL     1      43.418 -12.115   7.784  1.00  0.00     0.164 HD
HETATM    6  H   UNL     1      42.752 -14.134   7.520  1.00  0.00     0.170 HD
ENDROOT
BRANCH   1   7
HETATM    7  C   UNL     1      42.887 -10.424   6.625  1.00  0.00     0.164 C 
BRANCH   7   8
HETATM    8  C   UNL     1      42.395  -9.439   7.736  1.00  0.00     0.261 C 
BRANCH   8   9
HETATM    9  C   UNL     1      43.255  -9.619   8.951  1.00  0.00     0.085 A 
HETATM   10  O   UNL     1      42.603  -9.974  10.099  1.00  0.00    -0.318 OA
HETATM   11  C   UNL     1      43.547 -10.062  11.078  1.00  0.00     0.049 A 
HETATM   12  C   UNL     1      43.068 -10.399  12.435  1.00  0.00     0.076 C 
HETATM   13  C   UNL     1      44.797  -9.804  10.557  1.00  0.00     0.035 A 
HETATM   14  C   UNL     1      44.609  -9.517   9.184  1.00  0.00     0.037 A 
ENDBRANCH   8   9
BRANCH   8  15
HETATM   15  N   UNL     1      42.458  -7.972   7.250  1.00  0.00    -0.067 N 
HETATM   16  H   UNL     1      43.444  -7.812   7.002  1.00  0.00     0.280 HD
HETATM   17  C   UNL     1      41.598  -7.687   6.053  1.00  0.00     0.270 C 
HETATM   18  C   UNL     1      42.142  -7.001   8.362  1.00  0.00     0.270 C 
ENDBRANCH   8  15
ENDBRANCH   7   8
ENDBRANCH   1   7
BRANCH   3  19
HETATM   19  C   UNL     1      42.930 -15.265   5.806  1.00  0.00     0.036 A 
HETATM   20  C   UNL     1      42.021 -15.678   4.834  1.00  0.00     0.032 A 
HETATM   21  C   UNL     1      42.223 -16.873   4.124  1.00  0.00     0.032 A 
HETATM   22  C   UNL     1      43.337 -17.679   4.380  1.00  0.00     0.040 A 
HETATM   23  C   UNL     1      44.248 -17.261   5.361  1.00  0.00     0.032 A 
HETATM   24  C   UNL     1      44.042 -16.069   6.067  1.00  0.00     0.032 A 
BRANCH  22  25
HETATM   25  N   UNL     1      43.590 -18.877   3.640  1.00  0.00    -0.309 N 
HETATM   26  C   UNL     1      43.820 -20.180   4.088  1.00  0.00     0.106 A 
HETATM   27  C   UNL     1      44.037 -20.600   5.496  1.00  0.00     0.091 C 
HETATM   28  N   UNL     1      43.926 -21.023   3.076  1.00  0.00    -0.246 NA
HETATM   29  C   UNL     1      43.821 -20.275   1.945  1.00  0.00     0.136 A 
HETATM   30  C   UNL     1      43.642 -18.953   2.260  1.00  0.00     0.118 A 
ENDBRANCH  22  25
ENDBRANCH   3  19
TORSDOF 6
ENDMDL
MODEL 5
REMARK VINA RESULT:      -7.3      1.956      3.636
REMARK  6 active torsions:
REMARK  status: ('A' for Active; 'I' for Inactive)
REMARK    1  A    between atoms: C_4  and  C_5 
REMARK    2  A    between atoms: C_5  and  N_6 
REMARK    3  A    between atoms: C_5  and  C_10 
REMARK    4  A    between atoms: C_10  and  N_11 
REMARK       I    between atoms: N_11  and  C_12 
REMARK       I    between atoms: C_12  and  N_13 
REMARK    5  A    between atoms: N_13  and  C_14 
REMARK    6  A    between atoms: C_17  and  N_18 
ROOT
HETATM    1  N   UNL     1      41.361 -10.286   7.218  1.00  0.00    -0.340 N 
HETATM    2  C   UNL     1      41.860 -11.239   6.353  1.00  0.00     0.320 C 
HETATM    3  N   UNL     1      41.358 -12.482   6.644  1.00  0.00    -0.309 N 
HETATM    4  O   UNL     1      42.635 -10.926   5.460  1.00  0.00    -0.247 OA
HETATM    5  H   UNL     1      41.108 -10.631   8.136  1.00  0.00     0.164 HD
HETATM    6  H   UNL     1      40.555 -12.505   7.257  1.00  0.00     0.170 HD
ENDROOT
BRANCH   1   7
HETATM    7  C   UNL     1      41.874  -8.923   7.147  1.00  0.00     0.164 C 
BRANCH   7   8
HETATM    8  C   UNL     1      42.371  -8.332   8.508  1.00  0.00     0.261 C 
BRANCH   8   9
HETATM    9  C   UNL     1      43.633  -9.038   8.903  1.00  0.00     0.085 A 
HETATM   10  O   UNL     1      44.382  -9.546   7.878  1.00  0.00    -0.318 OA
HETATM   11  C   UNL     1      45.458 -10.162   8.443  1.00  0.00     0.049 A 
HETATM   12  C   UNL     1      46.403 -10.828   7.521  1.00  0.00     0.076 C 
HETATM   13  C   UNL     1      45.422 -10.018   9.814  1.00  0.00     0.035 A 
HETATM   14  C   UNL     1      44.243  -9.294  10.111  1.00  0.00     0.037 A 
ENDBRANCH   8   9
BRANCH   8  15
HETATM   15  N   UNL     1      42.622  -6.810   8.398  1.00  0.00    -0.067 N 
HETATM   16  H   UNL     1      43.615  -6.718   8.148  1.00  0.00     0.280 HD
HETATM   17  C   UNL     1      41.786  -6.126   7.355  1.00  0.00     0.270 C 
HETATM   18  C   UNL     1      42.459  -6.120   9.731  1.00  0.00     0.270 C 
ENDBRANCH   8  15
ENDBRANCH   7   8
ENDBRANCH   1   7
BRANCH   3  19
HETATM   19  C   UNL     1      41.763 -13.721   6.111  1.00  0.00     0.036 A 
HETATM   20  C   UNL     1      40.948 -14.538   5.330  1.00  0.00     0.032 A 
HETATM   21  C   UNL     1      41.442 -15.733   4.783  1.00  0.00     0.032 A 
HETATM   22  C   UNL     1      42.762 -16.134   5.013  1.00  0.00     0.040 A 
HETATM   23  C   UNL     1      43.578 -15.311   5.802  1.00  0.00     0.032 A 
HETATM   24  C   UNL     1      43.081 -14.120   6.346  1.00  0.00     0.032 A 
BRANCH  22  25
HETATM   25  N   UNL     1      43.304 -17.322   4.430  1.00  0.00    -0.309 N 
HETATM   26  C   UNL     1      43.578 -17.625   3.095  1.00  0.00     0.106 A 
HETATM   27  C   UNL     1      43.189 -16.814   1.912  1.00  0.00     0.091 C 
HETATM   28  N   UNL     1      44.158 -18.806   2.980  1.00  0.00    -0.246 NA
HETATM   29  C   UNL     1      44.224 -19.321   4.237  1.00  0.00     0.136 A 
HETATM   30  C   UNL     1      43.684 -18.446   5.142  1.00  0.00     0.118 A 
ENDBRANCH  22  25
ENDBRANCH   3  19
TORSDOF 6
ENDMDL
MODEL 6
REMARK VINA RESULT:      -7.2      2.242      9.819
REMARK  6 active torsions:
REMARK  status: ('A' for Active; 'I' for Inactive)
REMARK    1  A    between atoms: C_4  and  C_5 
REMARK    2  A    between atoms: C_5  and  N_6 
REMARK    3  A    between atoms: C_5  and  C_10 
REMARK    4  A    between atoms: C_10  and  N_11 
REMARK       I    between atoms: N_11  and  C_12 
REMARK       I    between atoms: C_12  and  N_13 
REMARK    5  A    between atoms: N_13  and  C_14 
REMARK    6  A    between atoms: C_17  and  N_18 
ROOT
HETATM    1  N   UNL     1      43.464 -14.708   4.550  1.00  0.00    -0.340 N 
HETATM    2  C   UNL     1      42.967 -13.939   5.584  1.00  0.00     0.320 C 
HETATM    3  N   UNL     1      43.540 -12.694   5.595  1.00  0.00    -0.309 N 
HETATM    4  O   UNL     1      42.115 -14.387   6.340  1.00  0.00    -0.247 OA
HETATM    5  H   UNL     1      44.408 -14.479   4.262  1.00  0.00     0.164 HD
HETATM    6  H   UNL     1      44.040 -12.427   4.759  1.00  0.00     0.170 HD
ENDROOT
BRANCH   1   7
HETATM    7  C   UNL     1      43.067 -16.106   4.449  1.00  0.00     0.164 C 
BRANCH   7   8
HETATM    8  C   UNL     1      42.990 -16.667   2.990  1.00  0.00     0.261 C 
BRANCH   8   9
HETATM    9  C   UNL     1      43.277 -18.137   3.027  1.00  0.00     0.085 A 
HETATM   10  O   UNL     1      43.716 -18.633   4.223  1.00  0.00    -0.318 OA
HETATM   11  C   UNL     1      43.940 -19.964   4.042  1.00  0.00     0.049 A 
HETATM   12  C   UNL     1      44.464 -20.715   5.203  1.00  0.00     0.076 C 
HETATM   13  C   UNL     1      43.612 -20.330   2.753  1.00  0.00     0.035 A 
HETATM   14  C   UNL     1      43.185 -19.150   2.097  1.00  0.00     0.037 A 
ENDBRANCH   8   9
BRANCH   8  15
HETATM   15  N   UNL     1      41.600 -16.408   2.365  1.00  0.00    -0.067 N 
HETATM   16  H   UNL     1      41.364 -17.276   1.864  1.00  0.00     0.280 HD
HETATM   17  C   UNL     1      40.523 -16.111   3.367  1.00  0.00     0.270 C 
HETATM   18  C   UNL     1      41.652 -15.321   1.318  1.00  0.00     0.270 C 
ENDBRANCH   8  15
ENDBRANCH   7   8
ENDBRANCH   1   7
BRANCH   3  19
HETATM   19  C   UNL     1      43.430 -11.703   6.589  1.00  0.00     0.036 A 
HETATM   20  C   UNL     1      44.374 -11.495   7.593  1.00  0.00     0.032 A 
HETATM   21  C   UNL     1      44.224 -10.446   8.514  1.00  0.00     0.032 A 
HETATM   22  C   UNL     1      43.122  -9.589   8.449  1.00  0.00     0.040 A 
HETATM   23  C   UNL     1      42.172  -9.802   7.440  1.00  0.00     0.032 A 
HETATM   24  C   UNL     1      42.325 -10.850   6.523  1.00  0.00     0.032 A 
BRANCH  22  25
HETATM   25  N   UNL     1      42.969  -8.485   9.346  1.00  0.00    -0.309 N 
HETATM   26  C   UNL     1      42.822  -8.467  10.735  1.00  0.00     0.106 A 
HETATM   27  C   UNL     1      42.607  -9.648  11.611  1.00  0.00     0.091 C 
HETATM   28  N   UNL     1      42.796  -7.231  11.199  1.00  0.00    -0.246 NA
HETATM   29  C   UNL     1      42.871  -6.415  10.114  1.00  0.00     0.136 A 
HETATM   30  C   UNL     1      42.950  -7.156   8.963  1.00  0.00     0.118 A 
ENDBRANCH  22  25
ENDBRANCH   3  19
TORSDOF 6
ENDMDL
MODEL 7
REMARK VINA RESULT:      -7.1      2.954     10.453
REMARK  6 active torsions:
REMARK  status: ('A' for Active; 'I' for Inactive)
REMARK    1  A    between atoms: C_4  and  C_5 
REMARK    2  A    between atoms: C_5  and  N_6 
REMARK    3  A    between atoms: C_5  and  C_10 
REMARK    4  A    between atoms: C_10  and  N_11 
REMARK       I    between atoms: N_11  and  C_12 
REMARK       I    between atoms: C_12  and  N_13 
REMARK    5  A    between atoms: N_13  and  C_14 
REMARK    6  A    between atoms: C_17  and  N_18 
ROOT
HETATM    1  N   UNL     1      43.811 -12.032   7.749  1.00  0.00    -0.340 N 
HETATM    2  C   UNL     1      43.612 -10.772   8.278  1.00  0.00     0.320 C 
HETATM    3  N   UNL     1      43.364 -10.835   9.625  1.00  0.00    -0.309 N 
HETATM    4  O   UNL     1      43.681  -9.779   7.566  1.00  0.00    -0.247 OA
HETATM    5  H   UNL     1      43.336 -12.781   8.238  1.00  0.00     0.164 HD
HETATM    6  H   UNL     1      43.582 -11.711  10.078  1.00  0.00     0.170 HD
ENDROOT
BRANCH   1   7
HETATM    7  C   UNL     1      43.966 -12.182   6.308  1.00  0.00     0.164 C 
BRANCH   7   8
HETATM    8  C   UNL     1      42.828 -12.991   5.602  1.00  0.00     0.261 C 
BRANCH   8   9
HETATM    9  C   UNL     1      43.234 -14.432   5.540  1.00  0.00     0.085 A 
HETATM   10  O   UNL     1      43.067 -15.051   4.333  1.00  0.00    -0.318 OA
HETATM   11  C   UNL     1      43.466 -16.344   4.492  1.00  0.00     0.049 A 
HETATM   12  C   UNL     1      43.338 -17.230   3.316  1.00  0.00     0.076 C 
HETATM   13  C   UNL     1      43.920 -16.545   5.779  1.00  0.00     0.035 A 
HETATM   14  C   UNL     1      43.769 -15.312   6.456  1.00  0.00     0.037 A 
ENDBRANCH   8   9
BRANCH   8  15
HETATM   15  N   UNL     1      41.487 -12.844   6.357  1.00  0.00    -0.067 N 
HETATM   16  H   UNL     1      41.738 -12.845   7.355  1.00  0.00     0.280 HD
HETATM   17  C   UNL     1      40.740 -11.581   6.040  1.00  0.00     0.270 C 
HETATM   18  C   UNL     1      40.594 -14.044   6.148  1.00  0.00     0.270 C 
ENDBRANCH   8  15
ENDBRANCH   7   8
ENDBRANCH   1   7
BRANCH   3  19
HETATM   19  C   UNL     1      42.938  -9.793  10.472  1.00  0.00     0.036 A 
HETATM   20  C   UNL     1      41.636  -9.298  10.506  1.00  0.00     0.032 A 
HETATM   21  C   UNL     1      41.272  -8.297  11.422  1.00  0.00     0.032 A 
HETATM   22  C   UNL     1      42.208  -7.771  12.317  1.00  0.00     0.040 A 
HETATM   23  C   UNL     1      43.518  -8.270  12.278  1.00  0.00     0.032 A 
HETATM   24  C   UNL     1      43.877  -9.267  11.362  1.00  0.00     0.032 A 
BRANCH  22  25
HETATM   25  N   UNL     1      41.852  -6.785  13.290  1.00  0.00    -0.309 N 
HETATM   26  C   UNL     1      41.593  -6.921  14.656  1.00  0.00     0.106 A 
HETATM   27  C   UNL     1      41.451  -8.198  15.401  1.00  0.00     0.091 C 
HETATM   28  N   UNL     1      41.382  -5.747  15.223  1.00  0.00    -0.246 NA
HETATM   29  C   UNL     1      41.446  -4.825  14.225  1.00  0.00     0.136 A 
HETATM   30  C   UNL     1      41.705  -5.435  13.026  1.00  0.00     0.118 A 
ENDBRANCH  22  25
ENDBRANCH   3  19
TORSDOF 6
ENDMDL
MODEL 8
REMARK VINA RESULT:      -7.0      6.722     10.069
REMARK  6 active torsions:
REMARK  status: ('A' for Active; 'I' for Inactive)
REMARK    1  A    between atoms: C_4  and  C_5 
REMARK    2  A    between atoms: C_5  and  N_6 
REMARK    3  A    between atoms: C_5  and  C_10 
REMARK    4  A    between atoms: C_10  and  N_11 
REMARK       I    between atoms: N_11  and  C_12 
REMARK       I    between atoms: C_12  and  N_13 
REMARK    5  A    between atoms: N_13  and  C_14 
REMARK    6  A    between atoms: C_17  and  N_18 
ROOT
HETATM    1  N   UNL     1      42.477 -15.179   1.371  1.00  0.00    -0.340 N 
HETATM    2  C   UNL     1      41.474 -14.253   1.165  1.00  0.00     0.320 C 
HETATM    3  N   UNL     1      40.975 -14.339  -0.109  1.00  0.00    -0.309 N 
HETATM    4  O   UNL     1      41.127 -13.499   2.064  1.00  0.00    -0.247 OA
HETATM    5  H   UNL     1      42.993 -15.443   0.540  1.00  0.00     0.164 HD
HETATM    6  H   UNL     1      41.216 -15.172  -0.627  1.00  0.00     0.170 HD
ENDROOT
BRANCH   1   7
HETATM    7  C   UNL     1      43.216 -15.160   2.627  1.00  0.00     0.164 C 
BRANCH   7   8
HETATM    8  C   UNL     1      42.589 -16.017   3.775  1.00  0.00     0.261 C 
BRANCH   8   9
HETATM    9  C   UNL     1      43.250 -17.362   3.783  1.00  0.00     0.085 A 
HETATM   10  O   UNL     1      43.039 -18.141   2.679  1.00  0.00    -0.318 OA
HETATM   11  C   UNL     1      43.696 -19.315   2.892  1.00  0.00     0.049 A 
HETATM   12  C   UNL     1      43.577 -20.344   1.837  1.00  0.00     0.076 C 
HETATM   13  C   UNL     1      44.354 -19.279   4.103  1.00  0.00     0.035 A 
HETATM   14  C   UNL     1      44.066 -18.018   4.679  1.00  0.00     0.037 A 
ENDBRANCH   8   9
BRANCH   8  15
HETATM   15  N   UNL     1      42.765 -15.327   5.148  1.00  0.00    -0.067 N 
HETATM   16  H   UNL     1      43.586 -15.777   5.573  1.00  0.00     0.280 HD
HETATM   17  C   UNL     1      43.003 -13.847   5.063  1.00  0.00     0.270 C 
HETATM   18  C   UNL     1      41.605 -15.616   6.071  1.00  0.00     0.270 C 
ENDBRANCH   8  15
ENDBRANCH   7   8
ENDBRANCH   1   7
BRANCH   3  19
HETATM   19  C   UNL     1      40.083 -13.455  -0.747  1.00  0.00     0.036 A 
HETATM   20  C   UNL     1      39.652 -12.249  -0.197  1.00  0.00     0.032 A 
HETATM   21  C   UNL     1      38.808 -11.391  -0.920  1.00  0.00     0.032 A 
HETATM   22  C   UNL     1      38.377 -11.728  -2.207  1.00  0.00     0.040 A 
HETATM   23  C   UNL     1      38.810 -12.943  -2.757  1.00  0.00     0.032 A 
HETATM   24  C   UNL     1      39.651 -13.796  -2.031  1.00  0.00     0.032 A 
BRANCH  22  25
HETATM   25  N   UNL     1      37.555 -10.851  -2.983  1.00  0.00    -0.309 N 
HETATM   26  C   UNL     1      37.909  -9.785  -3.813  1.00  0.00     0.106 A 
HETATM   27  C   UNL     1      39.262  -9.186  -3.945  1.00  0.00     0.091 C 
HETATM   28  N   UNL     1      36.852  -9.279  -4.422  1.00  0.00    -0.246 NA
HETATM   29  C   UNL     1      35.778  -9.972  -3.958  1.00  0.00     0.136 A 
HETATM   30  C   UNL     1      36.175 -10.923  -3.054  1.00  0.00     0.118 A 
ENDBRANCH  22  25
ENDBRANCH   3  19
TORSDOF 6
ENDMDL
MODEL 9
REMARK VINA RESULT:      -6.9      1.838      2.587
REMARK  6 active torsions:
REMARK  status: ('A' for Active; 'I' for Inactive)
REMARK    1  A    between atoms: C_4  and  C_5 
REMARK    2  A    between atoms: C_5  and  N_6 
REMARK    3  A    between atoms: C_5  and  C_10 
REMARK    4  A    between atoms: C_10  and  N_11 
REMARK       I    between atoms: N_11  and  C_12 
REMARK       I    between atoms: C_12  and  N_13 
REMARK    5  A    between atoms: N_13  and  C_14 
REMARK    6  A    between atoms: C_17  and  N_18 
ROOT
HETATM    1  N   UNL     1      42.821 -10.444   8.008  1.00  0.00    -0.340 N 
HETATM    2  C   UNL     1      43.477 -11.472   7.361  1.00  0.00     0.320 C 
HETATM    3  N   UNL     1      42.589 -12.309   6.735  1.00  0.00    -0.309 N 
HETATM    4  O   UNL     1      44.699 -11.544   7.383  1.00  0.00    -0.247 OA
HETATM    5  H   UNL     1      41.882 -10.664   8.318  1.00  0.00     0.164 HD
HETATM    6  H   UNL     1      41.648 -11.960   6.627  1.00  0.00     0.170 HD
ENDROOT
BRANCH   1   7
HETATM    7  C   UNL     1      43.587  -9.520   8.835  1.00  0.00     0.164 C 
BRANCH   7   8
HETATM    8  C   UNL     1      42.783  -8.854  10.000  1.00  0.00     0.261 C 
BRANCH   8   9
HETATM    9  C   UNL     1      41.332  -8.827   9.625  1.00  0.00     0.085 A 
HETATM   10  O   UNL     1      41.027  -8.192   8.453  1.00  0.00    -0.318 OA
HETATM   11  C   UNL     1      39.674  -8.256   8.309  1.00  0.00     0.049 A 
HETATM   12  C   UNL     1      39.100  -7.593   7.118  1.00  0.00     0.076 C 
HETATM   13  C   UNL     1      39.117  -8.957   9.357  1.00  0.00     0.035 A 
HETATM   14  C   UNL     1      40.187  -9.326  10.208  1.00  0.00     0.037 A 
ENDBRANCH   8   9
BRANCH   8  15
HETATM   15  N   UNL     1      42.978  -9.626  11.326  1.00  0.00    -0.067 N 
HETATM   16  H   UNL     1      42.071 -10.074  11.513  1.00  0.00     0.280 HD
HETATM   17  C   UNL     1      44.045 -10.680  11.270  1.00  0.00     0.270 C 
HETATM   18  C   UNL     1      43.230  -8.690  12.485  1.00  0.00     0.270 C 
ENDBRANCH   8  15
ENDBRANCH   7   8
ENDBRANCH   1   7
BRANCH   3  19
HETATM   19  C   UNL     1      42.856 -13.554   6.134  1.00  0.00     0.036 A 
HETATM   20  C   UNL     1      43.017 -14.744   6.841  1.00  0.00     0.032 A 
HETATM   21  C   UNL     1      43.221 -15.959   6.166  1.00  0.00     0.032 A 
HETATM   22  C   UNL     1      43.274 -16.002   4.769  1.00  0.00     0.040 A 
HETATM   23  C   UNL     1      43.115 -14.802   4.061  1.00  0.00     0.032 A 
HETATM   24  C   UNL     1      42.912 -13.593   4.738  1.00  0.00     0.032 A 
BRANCH  22  25
HETATM   25  N   UNL     1      43.435 -17.231   4.056  1.00  0.00    -0.309 N 
HETATM   26  C   UNL     1      42.859 -17.659   2.857  1.00  0.00     0.106 A 
HETATM   27  C   UNL     1      41.771 -16.975   2.112  1.00  0.00     0.091 C 
HETATM   28  N   UNL     1      43.336 -18.834   2.488  1.00  0.00    -0.246 NA
HETATM   29  C   UNL     1      44.193 -19.222   3.470  1.00  0.00     0.136 A 
HETATM   30  C   UNL     1      44.253 -18.272   4.456  1.00  0.00     0.118 A 
ENDBRANCH  22  25
ENDBRANCH   3  19
TORSDOF 6
ENDMDL
MODEL 10
REMARK VINA RESULT:      -6.8     16.485     18.378
REMARK  6 active torsions:
REMARK  status: ('A' for Active; 'I' for Inactive)
REMARK    1  A    between atoms: C_4  and  C_5 
REMARK    2  A    between atoms: C_5  and  N_6 
REMARK    3  A    between atoms: C_5  and  C_10 
REMARK    4  A    between atoms: C_10  and  N_11 
REMARK       I    between atoms: N_11  and  C_12 
REMARK       I    between atoms: C_12  and  N_13 
REMARK    5  A    between atoms: N_13  and  C_14 
REMARK    6  A    between atoms: C_17  and  N_18 
ROOT
HETATM    1  N   UNL     1      44.433 -29.101   1.928  1.00  0.00    -0.340 N 
HETATM    2  C   UNL     1      43.761 -30.088   2.622  1.00  0.00     0.320 C 
HETATM    3  N   UNL     1      42.428 -30.096   2.303  1.00  0.00    -0.309 N 
HETATM    4  O   UNL     1      44.360 -30.827   3.392  1.00  0.00    -0.247 OA
HETATM    5  H   UNL     1      43.871 -28.297   1.676  1.00  0.00     0.164 HD
HETATM    6  H   UNL     1      42.164 -29.577   1.478  1.00  0.00     0.170 HD
ENDROOT
BRANCH   1   7
HETATM    7  C   UNL     1      45.838 -28.854   2.225  1.00  0.00     0.164 C 
BRANCH   7   8
HETATM    8  C   UNL     1      46.847 -29.453   1.190  1.00  0.00     0.261 C 
BRANCH   8   9
HETATM    9  C   UNL     1      46.481 -28.958  -0.176  1.00  0.00     0.085 A 
HETATM   10  O   UNL     1      45.350 -29.494  -0.726  1.00  0.00    -0.318 OA
HETATM   11  C   UNL     1      45.209 -28.938  -1.962  1.00  0.00     0.049 A 
HETATM   12  C   UNL     1      44.062 -29.401  -2.773  1.00  0.00     0.076 C 
HETATM   13  C   UNL     1      46.216 -28.024  -2.190  1.00  0.00     0.035 A 
HETATM   14  C   UNL     1      47.039 -28.038  -1.038  1.00  0.00     0.037 A 
ENDBRANCH   8   9
BRANCH   8  15
HETATM   15  N   UNL     1      48.302 -29.055   1.532  1.00  0.00    -0.067 N 
HETATM   16  H   UNL     1      48.510 -28.250   0.926  1.00  0.00     0.280 HD
HETATM   17  C   UNL     1      48.507 -28.658   2.965  1.00  0.00     0.270 C 
HETATM   18  C   UNL     1      49.282 -30.137   1.144  1.00  0.00     0.270 C 
ENDBRANCH   8  15
ENDBRANCH   7   8
ENDBRANCH   1   7
BRANCH   3  19
HETATM   19  C   UNL     1      41.397 -30.824   2.929  1.00  0.00     0.036 A 
HETATM   20  C   UNL     1      40.669 -31.837   2.307  1.00  0.00     0.032 A 
HETATM   21  C   UNL     1      39.696 -32.560   3.015  1.00  0.00     0.032 A 
HETATM   22  C   UNL     1      39.430 -32.278   4.359  1.00  0.00     0.040 A 
HETATM   23  C   UNL     1      40.163 -31.256   4.980  1.00  0.00     0.032 A 
HETATM   24  C   UNL     1      41.132 -30.537   4.270  1.00  0.00     0.032 A 
BRANCH  22  25
HETATM   25  N   UNL     1      38.477 -33.030   5.116  1.00  0.00    -0.309 N 
HETATM   26  C   UNL     1      37.232 -33.539   4.742  1.00  0.00     0.106 A 
HETATM   27  C   UNL     1      36.509 -33.253   3.476  1.00  0.00     0.091 C 
HETATM   28  N   UNL     1      36.696 -34.256   5.714  1.00  0.00    -0.246 NA
HETATM   29  C   UNL     1      37.559 -34.182   6.762  1.00  0.00     0.136 A 
HETATM   30  C   UNL     1      38.646 -33.415   6.433  1.00  0.00     0.118 A 
ENDBRANCH  22  25
ENDBRANCH   3  19
TORSDOF 6
ENDMDL
