MODEL 1
REMARK VINA RESULT:      -8.7      0.000      0.000
REMARK  7 active torsions:
REMARK  status: ('A' for Active; 'I' for Inactive)
REMARK    1  A    between atoms: C_3  and  N_4 
REMARK       I    between atoms: N_4  and  C_5 
REMARK    2  A    between atoms: C_5  and  C_6 
REMARK    3  A    between atoms: C_7  and  C_8 
REMARK    4  A    between atoms: C_19  and  C_20 
REMARK    5  A    between atoms: C_20  and  C_21 
REMARK    6  A    between atoms: C_21  and  C_22 
REMARK    7  A    between atoms: C_22  and  O_23 
ROOT
HETATM    1  C   UNL     1      40.906 -12.299   3.021  1.00  0.00     0.062 A 
HETATM    2  C   UNL     1      42.395 -12.619   3.061  1.00  0.00     0.202 A 
HETATM    3  N   UNL     1      43.045 -12.000   4.224  1.00  0.00    -0.083 N 
HETATM    4  C   UNL     1      42.405 -11.174   5.107  1.00  0.00     0.726 A 
HETATM    5  N   UNL     1      41.096 -10.911   4.938  1.00  0.00    -0.192 N 
HETATM    6  N   UNL     1      44.368 -12.067   4.488  1.00  0.00    -0.140 NA
HETATM    7  C   UNL     1      44.435 -11.339   5.613  1.00  0.00     0.166 A 
HETATM    8  N   UNL     1      43.254 -10.761   6.012  1.00  0.00    -0.046 NA
HETATM    9  C   UNL     1      40.325 -11.482   3.933  1.00  0.00     0.037 A 
HETATM   10  C   UNL     1      38.859 -11.124   3.948  1.00  0.00     0.070 C 
HETATM   11  H   UNL     1      40.622 -10.332   5.625  1.00  0.00     0.184 HD
ENDROOT
BRANCH   1  12
HETATM   12  C   UNL     1      40.072 -13.029   2.030  1.00  0.00     0.256 C 
HETATM   13  N   UNL     1      40.104 -12.465   0.773  1.00  0.00    -0.323 N 
HETATM   14  H   UNL     1      40.603 -11.594   0.669  1.00  0.00     0.169 HD
HETATM   15  O   UNL     1      39.446 -14.014   2.397  1.00  0.00    -0.267 OA
BRANCH  13  16
HETATM   16  C   UNL     1      39.471 -12.953  -0.399  1.00  0.00     0.041 A 
HETATM   17  C   UNL     1      38.295 -12.319  -0.859  1.00  0.00    -0.035 A 
HETATM   18  C   UNL     1      37.686 -11.133  -0.160  1.00  0.00     0.050 C 
HETATM   19  C   UNL     1      37.671 -12.785  -2.032  1.00  0.00     0.009 A 
HETATM   20  C   UNL     1      38.190 -13.867  -2.738  1.00  0.00     0.001 A 
HETATM   21  C   UNL     1      39.344 -14.492  -2.286  1.00  0.00     0.002 A 
HETATM   22  C   UNL     1      39.980 -14.036  -1.130  1.00  0.00     0.030 A 
ENDBRANCH  13  16
ENDBRANCH   1  12
BRANCH   2  23
HETATM   23  C   UNL     1      42.709 -14.110   3.000  1.00  0.00    -0.027 A 
HETATM   24  C   UNL     1      42.638 -14.885   4.170  1.00  0.00     0.028 A 
HETATM   25  C   UNL     1      42.945 -16.246   4.133  1.00  0.00     0.011 A 
HETATM   26 BR   UNL     1      42.852 -17.268   5.721  1.00  0.00    -0.051 Br
HETATM   27  C   UNL     1      43.322 -16.854   2.940  1.00  0.00     0.019 A 
HETATM   28  C   UNL     1      43.388 -16.098   1.771  1.00  0.00     0.002 A 
HETATM   29  C   UNL     1      43.082 -14.735   1.797  1.00  0.00     0.010 A 
ENDBRANCH   2  23
BRANCH   7  30
HETATM   30  C   UNL     1      45.695 -11.146   6.374  1.00  0.00     0.085 C 
BRANCH  30  31
HETATM   31  C   UNL     1      45.471 -10.822   7.848  1.00  0.00     0.034 C 
BRANCH  31  32
HETATM   32  C   UNL     1      45.854  -9.392   8.211  1.00  0.00     0.164 C 
BRANCH  32  33
HETATM   33  O   UNL     1      46.972  -8.985   7.429  1.00  0.00    -0.401 OA
HETATM   34  H   UNL     1      46.967  -9.514   6.613  1.00  0.00     0.209 HD
ENDBRANCH  32  33
ENDBRANCH  31  32
ENDBRANCH  30  31
ENDBRANCH   7  30
TORSDOF 7
ENDMDL
MODEL 2
REMARK VINA RESULT:      -8.2      1.354      2.094
REMARK  7 active torsions:
REMARK  status: ('A' for Active; 'I' for Inactive)
REMARK    1  A    between atoms: C_3  and  N_4 
REMARK       I    between atoms: N_4  and  C_5 
REMARK    2  A    between atoms: C_5  and  C_6 
REMARK    3  A    between atoms: C_7  and  C_8 
REMARK    4  A    between atoms: C_19  and  C_20 
REMARK    5  A    between atoms: C_20  and  C_21 
REMARK    6  A    between atoms: C_21  and  C_22 
REMARK    7  A    between atoms: C_22  and  O_23 
ROOT
HETATM    1  C   UNL     1      40.637 -11.685   3.717  1.00  0.00     0.062 A 
HETATM    2  C   UNL     1      41.917 -12.406   4.119  1.00  0.00     0.202 A 
HETATM    3  N   UNL     1      42.562 -11.754   5.266  1.00  0.00    -0.083 N 
HETATM    4  C   UNL     1      42.109 -10.597   5.841  1.00  0.00     0.726 A 
HETATM    5  N   UNL     1      40.997 -10.011   5.362  1.00  0.00    -0.192 N 
HETATM    6  N   UNL     1      43.738 -12.140   5.806  1.00  0.00    -0.140 NA
HETATM    7  C   UNL     1      43.880 -11.225   6.777  1.00  0.00     0.166 A 
HETATM    8  N   UNL     1      42.909 -10.252   6.816  1.00  0.00    -0.046 NA
HETATM    9  C   UNL     1      40.232 -10.548   4.332  1.00  0.00     0.037 A 
HETATM   10  C   UNL     1      38.978  -9.785   3.981  1.00  0.00     0.070 C 
HETATM   11  H   UNL     1      40.647  -9.177   5.824  1.00  0.00     0.184 HD
ENDROOT
BRANCH   1  12
HETATM   12  C   UNL     1      39.760 -12.348   2.716  1.00  0.00     0.256 C 
HETATM   13  N   UNL     1      40.140 -12.106   1.414  1.00  0.00    -0.323 N 
HETATM   14  H   UNL     1      40.899 -11.456   1.267  1.00  0.00     0.169 HD
HETATM   15  O   UNL     1      38.810 -13.011   3.111  1.00  0.00    -0.267 OA
BRANCH  13  16
HETATM   16  C   UNL     1      39.553 -12.639   0.238  1.00  0.00     0.041 A 
HETATM   17  C   UNL     1      39.930 -13.932  -0.190  1.00  0.00    -0.035 A 
HETATM   18  C   UNL     1      40.925 -14.778   0.558  1.00  0.00     0.050 C 
HETATM   19  C   UNL     1      39.339 -14.478  -1.346  1.00  0.00     0.009 A 
HETATM   20  C   UNL     1      38.398 -13.758  -2.078  1.00  0.00     0.001 A 
HETATM   21  C   UNL     1      38.029 -12.487  -1.659  1.00  0.00     0.002 A 
HETATM   22  C   UNL     1      38.599 -11.935  -0.510  1.00  0.00     0.030 A 
ENDBRANCH  13  16
ENDBRANCH   1  12
BRANCH   2  23
HETATM   23  C   UNL     1      41.731 -13.896   4.383  1.00  0.00    -0.027 A 
HETATM   24  C   UNL     1      42.398 -14.835   3.577  1.00  0.00     0.028 A 
HETATM   25  C   UNL     1      42.218 -16.202   3.793  1.00  0.00     0.011 A 
HETATM   26 BR   UNL     1      43.119 -17.448   2.691  1.00  0.00    -0.051 Br
HETATM   27  C   UNL     1      41.381 -16.655   4.807  1.00  0.00     0.019 A 
HETATM   28  C   UNL     1      40.720 -15.734   5.618  1.00  0.00     0.002 A 
HETATM   29  C   UNL     1      40.894 -14.363   5.412  1.00  0.00     0.010 A 
ENDBRANCH   2  23
BRANCH   7  30
HETATM   30  C   UNL     1      45.012 -11.238   7.737  1.00  0.00     0.085 C 
BRANCH  30  31
HETATM   31  C   UNL     1      45.956 -10.049   7.580  1.00  0.00     0.034 C 
BRANCH  31  32
HETATM   32  C   UNL     1      45.889  -9.074   8.749  1.00  0.00     0.164 C 
BRANCH  32  33
HETATM   33  O   UNL     1      45.288  -7.856   8.319  1.00  0.00    -0.401 OA
HETATM   34  H   UNL     1      44.514  -7.696   8.886  1.00  0.00     0.209 HD
ENDBRANCH  32  33
ENDBRANCH  31  32
ENDBRANCH  30  31
ENDBRANCH   7  30
TORSDOF 7
ENDMDL
MODEL 3
REMARK VINA RESULT:      -8.2      3.211      6.347
REMARK  7 active torsions:
REMARK  status: ('A' for Active; 'I' for Inactive)
REMARK    1  A    between atoms: C_3  and  N_4 
REMARK       I    between atoms: N_4  and  C_5 
REMARK    2  A    between atoms: C_5  and  C_6 
REMARK    3  A    between atoms: C_7  and  C_8 
REMARK    4  A    between atoms: C_19  and  C_20 
REMARK    5  A    between atoms: C_20  and  C_21 
REMARK    6  A    between atoms: C_21  and  C_22 
REMARK    7  A    between atoms: C_22  and  O_23 
ROOT
HETATM    1  C   UNL     1      41.394 -13.925   1.971  1.00  0.00     0.062 A 
HETATM    2  C   UNL     1      41.595 -12.571   2.640  1.00  0.00     0.202 A 
HETATM    3  N   UNL     1      40.375 -11.756   2.577  1.00  0.00    -0.083 N 
HETATM    4  C   UNL     1      39.233 -12.138   1.926  1.00  0.00     0.726 A 
HETATM    5  N   UNL     1      39.189 -13.335   1.315  1.00  0.00    -0.192 N 
HETATM    6  N   UNL     1      40.274 -10.491   3.040  1.00  0.00    -0.140 NA
HETATM    7  C   UNL     1      39.001 -10.210   2.724  1.00  0.00     0.166 A 
HETATM    8  N   UNL     1      38.337 -11.190   2.023  1.00  0.00    -0.046 NA
HETATM    9  C   UNL     1      40.234 -14.252   1.351  1.00  0.00     0.037 A 
HETATM   10  C   UNL     1      39.971 -15.572   0.669  1.00  0.00     0.070 C 
HETATM   11  H   UNL     1      38.322 -13.626   0.872  1.00  0.00     0.184 HD
ENDROOT
BRANCH   1  12
HETATM   12  C   UNL     1      42.464 -14.943   2.143  1.00  0.00     0.256 C 
HETATM   13  N   UNL     1      42.041 -16.067   2.817  1.00  0.00    -0.323 N 
HETATM   14  H   UNL     1      41.104 -16.057   3.191  1.00  0.00     0.169 HD
HETATM   15  O   UNL     1      43.581 -14.704   1.705  1.00  0.00    -0.267 OA
BRANCH  13  16
HETATM   16  C   UNL     1      42.797 -17.237   3.087  1.00  0.00     0.041 A 
HETATM   17  C   UNL     1      43.545 -17.310   4.283  1.00  0.00    -0.035 A 
HETATM   18  C   UNL     1      43.568 -16.197   5.297  1.00  0.00     0.050 C 
HETATM   19  C   UNL     1      44.283 -18.475   4.567  1.00  0.00     0.009 A 
HETATM   20  C   UNL     1      44.294 -19.550   3.682  1.00  0.00     0.001 A 
HETATM   21  C   UNL     1      43.560 -19.479   2.507  1.00  0.00     0.002 A 
HETATM   22  C   UNL     1      42.816 -18.334   2.214  1.00  0.00     0.030 A 
ENDBRANCH  13  16
ENDBRANCH   1  12
BRANCH   2  23
HETATM   23  C   UNL     1      42.110 -12.660   4.072  1.00  0.00    -0.027 A 
HETATM   24  C   UNL     1      43.353 -12.091   4.402  1.00  0.00     0.028 A 
HETATM   25  C   UNL     1      43.847 -12.185   5.704  1.00  0.00     0.011 A 
HETATM   26 BR   UNL     1      45.525 -11.422   6.122  1.00  0.00    -0.051 Br
HETATM   27  C   UNL     1      43.117 -12.837   6.692  1.00  0.00     0.019 A 
HETATM   28  C   UNL     1      41.880 -13.398   6.380  1.00  0.00     0.002 A 
HETATM   29  C   UNL     1      41.375 -13.309   5.080  1.00  0.00     0.010 A 
ENDBRANCH   2  23
BRANCH   7  30
HETATM   30  C   UNL     1      38.346  -8.927   3.081  1.00  0.00     0.085 C 
BRANCH  30  31
HETATM   31  C   UNL     1      39.067  -8.164   4.188  1.00  0.00     0.034 C 
BRANCH  31  32
HETATM   32  C   UNL     1      38.336  -8.218   5.525  1.00  0.00     0.164 C 
BRANCH  32  33
HETATM   33  O   UNL     1      36.978  -8.587   5.311  1.00  0.00    -0.401 OA
HETATM   34  H   UNL     1      36.936  -9.077   4.472  1.00  0.00     0.209 HD
ENDBRANCH  32  33
ENDBRANCH  31  32
ENDBRANCH  30  31
ENDBRANCH   7  30
TORSDOF 7
ENDMDL
MODEL 4
REMARK VINA RESULT:      -8.1      3.265      6.650
REMARK  7 active torsions:
REMARK  status: ('A' for Active; 'I' for Inactive)
REMARK    1  A    between atoms: C_3  and  N_4 
REMARK       I    between atoms: N_4  and  C_5 
REMARK    2  A    between atoms: C_5  and  C_6 
REMARK    3  A    between atoms: C_7  and  C_8 
REMARK    4  A    between atoms: C_19  and  C_20 
REMARK    5  A    between atoms: C_20  and  C_21 
REMARK    6  A    between atoms: C_21  and  C_22 
REMARK    7  A    between atoms: C_22  and  O_23 
ROOT
HETATM    1  C   UNL     1      41.160 -14.776   1.601  1.00  0.00     0.062 A 
HETATM    2  C   UNL     1      41.834 -13.484   2.045  1.00  0.00     0.202 A 
HETATM    3  N   UNL     1      41.348 -12.334   1.272  1.00  0.00    -0.083 N 
HETATM    4  C   UNL     1      40.464 -12.431   0.232  1.00  0.00     0.726 A 
HETATM    5  N   UNL     1      39.979 -13.636  -0.114  1.00  0.00    -0.192 N 
HETATM    6  N   UNL     1      41.805 -11.070   1.409  1.00  0.00    -0.140 NA
HETATM    7  C   UNL     1      41.070 -10.436   0.483  1.00  0.00     0.166 A 
HETATM    8  N   UNL     1      40.250 -11.242  -0.271  1.00  0.00    -0.046 NA
HETATM    9  C   UNL     1      40.282 -14.808   0.570  1.00  0.00     0.037 A 
HETATM   10  C   UNL     1      39.583 -16.053   0.080  1.00  0.00     0.070 C 
HETATM   11  H   UNL     1      39.290 -13.691  -0.860  1.00  0.00     0.184 HD
ENDROOT
BRANCH   1  12
HETATM   12  C   UNL     1      41.385 -15.989   2.432  1.00  0.00     0.256 C 
HETATM   13  N   UNL     1      42.573 -16.628   2.150  1.00  0.00    -0.323 N 
HETATM   14  H   UNL     1      43.117 -16.273   1.378  1.00  0.00     0.169 HD
HETATM   15  O   UNL     1      40.531 -16.312   3.247  1.00  0.00    -0.267 OA
BRANCH  13  16
HETATM   16  C   UNL     1      43.107 -17.768   2.805  1.00  0.00     0.041 A 
HETATM   17  C   UNL     1      43.617 -17.629   4.115  1.00  0.00    -0.035 A 
HETATM   18  C   UNL     1      43.610 -16.319   4.856  1.00  0.00     0.050 C 
HETATM   19  C   UNL     1      44.132 -18.759   4.779  1.00  0.00     0.009 A 
HETATM   20  C   UNL     1      44.154 -20.007   4.160  1.00  0.00     0.001 A 
HETATM   21  C   UNL     1      43.654 -20.142   2.873  1.00  0.00     0.002 A 
HETATM   22  C   UNL     1      43.132 -19.034   2.203  1.00  0.00     0.030 A 
ENDBRANCH  13  16
ENDBRANCH   1  12
BRANCH   2  23
HETATM   23  C   UNL     1      41.725 -13.211   3.541  1.00  0.00    -0.027 A 
HETATM   24  C   UNL     1      42.891 -13.009   4.299  1.00  0.00     0.028 A 
HETATM   25  C   UNL     1      42.807 -12.782   5.674  1.00  0.00     0.011 A 
HETATM   26 BR   UNL     1      44.390 -12.522   6.675  1.00  0.00    -0.051 Br
HETATM   27  C   UNL     1      41.571 -12.749   6.311  1.00  0.00     0.019 A 
HETATM   28  C   UNL     1      40.407 -12.940   5.570  1.00  0.00     0.002 A 
HETATM   29  C   UNL     1      40.479 -13.167   4.193  1.00  0.00     0.010 A 
ENDBRANCH   2  23
BRANCH   7  30
HETATM   30  C   UNL     1      41.141  -8.970   0.262  1.00  0.00     0.085 C 
BRANCH  30  31
HETATM   31  C   UNL     1      41.011  -8.570  -1.205  1.00  0.00     0.034 C 
BRANCH  31  32
HETATM   32  C   UNL     1      42.346  -8.222  -1.851  1.00  0.00     0.164 C 
BRANCH  32  33
HETATM   33  O   UNL     1      43.304  -7.931  -0.838  1.00  0.00    -0.401 OA
HETATM   34  H   UNL     1      43.081  -8.471  -0.061  1.00  0.00     0.209 HD
ENDBRANCH  32  33
ENDBRANCH  31  32
ENDBRANCH  30  31
ENDBRANCH   7  30
TORSDOF 7
ENDMDL
MODEL 5
REMARK VINA RESULT:      -7.9      3.195      6.663
REMARK  7 active torsions:
REMARK  status: ('A' for Active; 'I' for Inactive)
REMARK    1  A    between atoms: C_3  and  N_4 
REMARK       I    between atoms: N_4  and  C_5 
REMARK    2  A    between atoms: C_5  and  C_6 
REMARK    3  A    between atoms: C_7  and  C_8 
REMARK    4  A    between atoms: C_19  and  C_20 
REMARK    5  A    between atoms: C_20  and  C_21 
REMARK    6  A    between atoms: C_21  and  C_22 
REMARK    7  A    between atoms: C_22  and  O_23 
ROOT
HETATM    1  C   UNL     1      42.346 -12.871   3.106  1.00  0.00     0.062 A 
HETATM    2  C   UNL     1      40.879 -12.744   2.717  1.00  0.00     0.202 A 
HETATM    3  N   UNL     1      40.393 -11.370   2.901  1.00  0.00    -0.083 N 
HETATM    4  C   UNL     1      41.145 -10.358   3.433  1.00  0.00     0.726 A 
HETATM    5  N   UNL     1      42.416 -10.601   3.800  1.00  0.00    -0.192 N 
HETATM    6  N   UNL     1      39.119 -10.973   2.688  1.00  0.00    -0.140 NA
HETATM    7  C   UNL     1      39.204  -9.675   3.016  1.00  0.00     0.166 A 
HETATM    8  N   UNL     1      40.427  -9.267   3.494  1.00  0.00    -0.046 NA
HETATM    9  C   UNL     1      43.044 -11.828   3.617  1.00  0.00     0.037 A 
HETATM   10  C   UNL     1      44.496 -11.887   4.024  1.00  0.00     0.070 C 
HETATM   11  H   UNL     1      42.978  -9.832   4.153  1.00  0.00     0.184 HD
ENDROOT
BRANCH   1  12
HETATM   12  C   UNL     1      43.039 -14.143   2.772  1.00  0.00     0.256 C 
HETATM   13  N   UNL     1      42.673 -15.192   3.588  1.00  0.00    -0.323 N 
HETATM   14  H   UNL     1      42.057 -14.984   4.360  1.00  0.00     0.169 HD
HETATM   15  O   UNL     1      43.848 -14.151   1.853  1.00  0.00    -0.267 OA
BRANCH  13  16
HETATM   16  C   UNL     1      43.102 -16.540   3.491  1.00  0.00     0.041 A 
HETATM   17  C   UNL     1      43.852 -17.099   4.550  1.00  0.00    -0.035 A 
HETATM   18  C   UNL     1      44.209 -16.325   5.790  1.00  0.00     0.050 C 
HETATM   19  C   UNL     1      44.266 -18.443   4.470  1.00  0.00     0.009 A 
HETATM   20  C   UNL     1      43.955 -19.224   3.360  1.00  0.00     0.001 A 
HETATM   21  C   UNL     1      43.220 -18.675   2.319  1.00  0.00     0.002 A 
HETATM   22  C   UNL     1      42.795 -17.347   2.385  1.00  0.00     0.030 A 
ENDBRANCH  13  16
ENDBRANCH   1  12
BRANCH   2  23
HETATM   23  C   UNL     1      40.567 -13.241   1.310  1.00  0.00    -0.027 A 
HETATM   24  C   UNL     1      40.867 -12.429   0.202  1.00  0.00     0.028 A 
HETATM   25  C   UNL     1      40.565 -12.863  -1.090  1.00  0.00     0.011 A 
HETATM   26 BR   UNL     1      40.969 -11.750  -2.565  1.00  0.00    -0.051 Br
HETATM   27  C   UNL     1      39.968 -14.101  -1.300  1.00  0.00     0.019 A 
HETATM   28  C   UNL     1      39.673 -14.919  -0.211  1.00  0.00     0.002 A 
HETATM   29  C   UNL     1      39.972 -14.496   1.087  1.00  0.00     0.010 A 
ENDBRANCH   2  23
BRANCH   7  30
HETATM   30  C   UNL     1      38.061  -8.737   2.894  1.00  0.00     0.085 C 
BRANCH  30  31
HETATM   31  C   UNL     1      37.857  -7.864   4.129  1.00  0.00     0.034 C 
BRANCH  31  32
HETATM   32  C   UNL     1      36.476  -7.220   4.185  1.00  0.00     0.164 C 
BRANCH  32  33
HETATM   33  O   UNL     1      35.693  -7.861   5.187  1.00  0.00    -0.401 OA
HETATM   34  H   UNL     1      35.009  -8.383   4.734  1.00  0.00     0.209 HD
ENDBRANCH  32  33
ENDBRANCH  31  32
ENDBRANCH  30  31
ENDBRANCH   7  30
TORSDOF 7
ENDMDL
MODEL 6
REMARK VINA RESULT:      -7.8      3.456      6.069
REMARK  7 active torsions:
REMARK  status: ('A' for Active; 'I' for Inactive)
REMARK    1  A    between atoms: C_3  and  N_4 
REMARK       I    between atoms: N_4  and  C_5 
REMARK    2  A    between atoms: C_5  and  C_6 
REMARK    3  A    between atoms: C_7  and  C_8 
REMARK    4  A    between atoms: C_19  and  C_20 
REMARK    5  A    between atoms: C_20  and  C_21 
REMARK    6  A    between atoms: C_21  and  C_22 
REMARK    7  A    between atoms: C_22  and  O_23 
ROOT
HETATM    1  C   UNL     1      42.189 -15.091   6.075  1.00  0.00     0.062 A 
HETATM    2  C   UNL     1      41.586 -13.992   5.208  1.00  0.00     0.202 A 
HETATM    3  N   UNL     1      41.970 -12.659   5.691  1.00  0.00    -0.083 N 
HETATM    4  C   UNL     1      42.707 -12.438   6.823  1.00  0.00     0.726 A 
HETATM    5  N   UNL     1      43.136 -13.487   7.547  1.00  0.00    -0.192 N 
HETATM    6  N   UNL     1      41.541 -11.496   5.153  1.00  0.00    -0.140 NA
HETATM    7  C   UNL     1      42.149 -10.610   5.956  1.00  0.00     0.166 A 
HETATM    8  N   UNL     1      42.857 -11.152   7.002  1.00  0.00    -0.046 NA
HETATM    9  C   UNL     1      42.921 -14.810   7.179  1.00  0.00     0.037 A 
HETATM   10  C   UNL     1      43.543 -15.850   8.079  1.00  0.00     0.070 C 
HETATM   11  H   UNL     1      43.719 -13.313   8.362  1.00  0.00     0.184 HD
ENDROOT
BRANCH   1  12
HETATM   12  C   UNL     1      42.071 -16.491   5.589  1.00  0.00     0.256 C 
HETATM   13  N   UNL     1      43.282 -17.049   5.240  1.00  0.00    -0.323 N 
HETATM   14  H   UNL     1      44.092 -16.448   5.267  1.00  0.00     0.169 HD
HETATM   15  O   UNL     1      40.961 -17.003   5.528  1.00  0.00    -0.267 OA
BRANCH  13  16
HETATM   16  C   UNL     1      43.517 -18.378   4.804  1.00  0.00     0.041 A 
HETATM   17  C   UNL     1      43.516 -18.654   3.418  1.00  0.00    -0.035 A 
HETATM   18  C   UNL     1      43.287 -17.591   2.377  1.00  0.00     0.050 C 
HETATM   19  C   UNL     1      43.766 -19.967   2.974  1.00  0.00     0.009 A 
HETATM   20  C   UNL     1      44.004 -20.997   3.881  1.00  0.00     0.001 A 
HETATM   21  C   UNL     1      44.003 -20.726   5.242  1.00  0.00     0.002 A 
HETATM   22  C   UNL     1      43.765 -19.428   5.698  1.00  0.00     0.030 A 
ENDBRANCH  13  16
ENDBRANCH   1  12
BRANCH   2  23
HETATM   23  C   UNL     1      41.895 -14.136   3.722  1.00  0.00    -0.027 A 
HETATM   24  C   UNL     1      40.865 -14.470   2.826  1.00  0.00     0.028 A 
HETATM   25  C   UNL     1      41.138 -14.628   1.467  1.00  0.00     0.011 A 
HETATM   26 BR   UNL     1      39.739 -15.086   0.281  1.00  0.00    -0.051 Br
HETATM   27  C   UNL     1      42.429 -14.454   0.980  1.00  0.00     0.019 A 
HETATM   28  C   UNL     1      43.458 -14.115   1.857  1.00  0.00     0.002 A 
HETATM   29  C   UNL     1      43.195 -13.953   3.219  1.00  0.00     0.010 A 
ENDBRANCH   2  23
BRANCH   7  30
HETATM   30  C   UNL     1      42.055  -9.142   5.753  1.00  0.00     0.085 C 
BRANCH  30  31
HETATM   31  C   UNL     1      41.517  -8.394   6.969  1.00  0.00     0.034 C 
BRANCH  31  32
HETATM   32  C   UNL     1      40.234  -9.001   7.525  1.00  0.00     0.164 C 
BRANCH  32  33
HETATM   33  O   UNL     1      40.534  -9.758   8.694  1.00  0.00    -0.401 OA
HETATM   34  H   UNL     1      41.157  -9.237   9.228  1.00  0.00     0.209 HD
ENDBRANCH  32  33
ENDBRANCH  31  32
ENDBRANCH  30  31
ENDBRANCH   7  30
TORSDOF 7
ENDMDL
MODEL 7
REMARK VINA RESULT:      -7.8      3.075      6.478
REMARK  7 active torsions:
REMARK  status: ('A' for Active; 'I' for Inactive)
REMARK    1  A    between atoms: C_3  and  N_4 
REMARK       I    between atoms: N_4  and  C_5 
REMARK    2  A    between atoms: C_5  and  C_6 
REMARK    3  A    between atoms: C_7  and  C_8 
REMARK    4  A    between atoms: C_19  and  C_20 
REMARK    5  A    between atoms: C_20  and  C_21 
REMARK    6  A    between atoms: C_21  and  C_22 
REMARK    7  A    between atoms: C_22  and  O_23 
ROOT
HETATM    1  C   UNL     1      41.917 -13.152   4.654  1.00  0.00     0.062 A 
HETATM    2  C   UNL     1      40.629 -12.658   4.008  1.00  0.00     0.202 A 
HETATM    3  N   UNL     1      40.109 -11.468   4.694  1.00  0.00    -0.083 N 
HETATM    4  C   UNL     1      40.670 -10.928   5.820  1.00  0.00     0.726 A 
HETATM    5  N   UNL     1      41.777 -11.487   6.340  1.00  0.00    -0.192 N 
HETATM    6  N   UNL     1      38.954 -10.844   4.376  1.00  0.00    -0.140 NA
HETATM    7  C   UNL     1      38.937  -9.866   5.294  1.00  0.00     0.166 A 
HETATM    8  N   UNL     1      39.964  -9.898   6.208  1.00  0.00    -0.046 NA
HETATM    9  C   UNL     1      42.432 -12.568   5.763  1.00  0.00     0.037 A 
HETATM   10  C   UNL     1      43.701 -13.010   6.451  1.00  0.00     0.070 C 
HETATM   11  H   UNL     1      42.209 -11.052   7.151  1.00  0.00     0.184 HD
ENDROOT
BRANCH   1  12
HETATM   12  C   UNL     1      42.679 -14.214   3.943  1.00  0.00     0.256 C 
HETATM   13  N   UNL     1      42.387 -15.484   4.390  1.00  0.00    -0.323 N 
HETATM   14  H   UNL     1      41.771 -15.564   5.185  1.00  0.00     0.169 HD
HETATM   15  O   UNL     1      43.474 -13.886   3.072  1.00  0.00    -0.267 OA
BRANCH  13  16
HETATM   16  C   UNL     1      42.894 -16.707   3.880  1.00  0.00     0.041 A 
HETATM   17  C   UNL     1      43.880 -17.401   4.616  1.00  0.00    -0.035 A 
HETATM   18  C   UNL     1      44.412 -16.902   5.933  1.00  0.00     0.050 C 
HETATM   19  C   UNL     1      44.374 -18.625   4.126  1.00  0.00     0.009 A 
HETATM   20  C   UNL     1      43.914 -19.155   2.924  1.00  0.00     0.001 A 
HETATM   21  C   UNL     1      42.947 -18.472   2.199  1.00  0.00     0.002 A 
HETATM   22  C   UNL     1      42.439 -17.261   2.675  1.00  0.00     0.030 A 
ENDBRANCH  13  16
ENDBRANCH   1  12
BRANCH   2  23
HETATM   23  C   UNL     1      40.746 -12.406   2.509  1.00  0.00    -0.027 A 
HETATM   24  C   UNL     1      40.201 -13.334   1.603  1.00  0.00     0.028 A 
HETATM   25  C   UNL     1      40.321 -13.128   0.228  1.00  0.00     0.011 A 
HETATM   26 BR   UNL     1      39.590 -14.393  -0.972  1.00  0.00    -0.051 Br
HETATM   27  C   UNL     1      40.976 -12.005  -0.265  1.00  0.00     0.019 A 
HETATM   28  C   UNL     1      41.512 -11.073   0.622  1.00  0.00     0.002 A 
HETATM   29  C   UNL     1      41.397 -11.269   2.001  1.00  0.00     0.010 A 
ENDBRANCH   2  23
BRANCH   7  30
HETATM   30  C   UNL     1      37.879  -8.827   5.346  1.00  0.00     0.085 C 
BRANCH  30  31
HETATM   31  C   UNL     1      38.135  -7.651   4.407  1.00  0.00     0.034 C 
BRANCH  31  32
HETATM   32  C   UNL     1      37.195  -7.626   3.208  1.00  0.00     0.164 C 
BRANCH  32  33
HETATM   33  O   UNL     1      37.188  -8.906   2.583  1.00  0.00    -0.401 OA
HETATM   34  H   UNL     1      36.703  -8.819   1.744  1.00  0.00     0.209 HD
ENDBRANCH  32  33
ENDBRANCH  31  32
ENDBRANCH  30  31
ENDBRANCH   7  30
TORSDOF 7
ENDMDL
MODEL 8
REMARK VINA RESULT:      -7.7      3.485      6.325
REMARK  7 active torsions:
REMARK  status: ('A' for Active; 'I' for Inactive)
REMARK    1  A    between atoms: C_3  and  N_4 
REMARK       I    between atoms: N_4  and  C_5 
REMARK    2  A    between atoms: C_5  and  C_6 
REMARK    3  A    between atoms: C_7  and  C_8 
REMARK    4  A    between atoms: C_19  and  C_20 
REMARK    5  A    between atoms: C_20  and  C_21 
REMARK    6  A    between atoms: C_21  and  C_22 
REMARK    7  A    between atoms: C_22  and  O_23 
ROOT
HETATM    1  C   UNL     1      41.208 -14.074   5.049  1.00  0.00     0.062 A 
HETATM    2  C   UNL     1      40.090 -13.470   4.208  1.00  0.00     0.202 A 
HETATM    3  N   UNL     1      40.079 -12.005   4.306  1.00  0.00    -0.083 N 
HETATM    4  C   UNL     1      40.915 -11.286   5.117  1.00  0.00     0.726 A 
HETATM    5  N   UNL     1      41.827 -11.932   5.866  1.00  0.00    -0.192 N 
HETATM    6  N   UNL     1      39.167 -11.204   3.711  1.00  0.00    -0.140 NA
HETATM    7  C   UNL     1      39.584  -9.998   4.128  1.00  0.00     0.166 A 
HETATM    8  N   UNL     1      40.642 -10.012   5.006  1.00  0.00    -0.046 NA
HETATM    9  C   UNL     1      42.013 -13.309   5.824  1.00  0.00     0.037 A 
HETATM   10  C   UNL     1      43.135 -13.844   6.681  1.00  0.00     0.070 C 
HETATM   11  H   UNL     1      42.471 -11.386   6.431  1.00  0.00     0.184 HD
ENDROOT
BRANCH   1  12
HETATM   12  C   UNL     1      41.485 -15.525   4.883  1.00  0.00     0.256 C 
HETATM   13  N   UNL     1      42.495 -15.786   3.984  1.00  0.00    -0.323 N 
HETATM   14  H   UNL     1      42.879 -15.001   3.478  1.00  0.00     0.169 HD
HETATM   15  O   UNL     1      40.816 -16.330   5.518  1.00  0.00    -0.267 OA
BRANCH  13  16
HETATM   16  C   UNL     1      43.038 -17.054   3.651  1.00  0.00     0.041 A 
HETATM   17  C   UNL     1      44.019 -17.622   4.494  1.00  0.00    -0.035 A 
HETATM   18  C   UNL     1      44.510 -16.942   5.744  1.00  0.00     0.050 C 
HETATM   19  C   UNL     1      44.550 -18.889   4.182  1.00  0.00     0.009 A 
HETATM   20  C   UNL     1      44.129 -19.583   3.051  1.00  0.00     0.001 A 
HETATM   21  C   UNL     1      43.167 -19.025   2.221  1.00  0.00     0.002 A 
HETATM   22  C   UNL     1      42.624 -17.773   2.521  1.00  0.00     0.030 A 
ENDBRANCH  13  16
ENDBRANCH   1  12
BRANCH   2  23
HETATM   23  C   UNL     1      40.107 -13.911   2.749  1.00  0.00    -0.027 A 
HETATM   24  C   UNL     1      40.453 -12.988   1.746  1.00  0.00     0.028 A 
HETATM   25  C   UNL     1      40.450 -13.373   0.405  1.00  0.00     0.011 A 
HETATM   26 BR   UNL     1      40.910 -12.112  -0.928  1.00  0.00    -0.051 Br
HETATM   27  C   UNL     1      40.108 -14.671   0.041  1.00  0.00     0.019 A 
HETATM   28  C   UNL     1      39.771 -15.597   1.026  1.00  0.00     0.002 A 
HETATM   29  C   UNL     1      39.772 -15.224   2.372  1.00  0.00     0.010 A 
ENDBRANCH   2  23
BRANCH   7  30
HETATM   30  C   UNL     1      38.945  -8.731   3.696  1.00  0.00     0.085 C 
BRANCH  30  31
HETATM   31  C   UNL     1      39.039  -7.617   4.734  1.00  0.00     0.034 C 
BRANCH  31  32
HETATM   32  C   UNL     1      37.740  -7.402   5.501  1.00  0.00     0.164 C 
BRANCH  32  33
HETATM   33  O   UNL     1      36.788  -8.387   5.111  1.00  0.00    -0.401 OA
HETATM   34  H   UNL     1      36.738  -8.377   4.140  1.00  0.00     0.209 HD
ENDBRANCH  32  33
ENDBRANCH  31  32
ENDBRANCH  30  31
ENDBRANCH   7  30
TORSDOF 7
ENDMDL
MODEL 9
REMARK VINA RESULT:      -7.6     17.084     19.615
REMARK  7 active torsions:
REMARK  status: ('A' for Active; 'I' for Inactive)
REMARK    1  A    between atoms: C_3  and  N_4 
REMARK       I    between atoms: N_4  and  C_5 
REMARK    2  A    between atoms: C_5  and  C_6 
REMARK    3  A    between atoms: C_7  and  C_8 
REMARK    4  A    between atoms: C_19  and  C_20 
REMARK    5  A    between atoms: C_20  and  C_21 
REMARK    6  A    between atoms: C_21  and  C_22 
REMARK    7  A    between atoms: C_22  and  O_23 
ROOT
HETATM    1  C   UNL     1      47.024 -29.781   0.903  1.00  0.00     0.062 A 
HETATM    2  C   UNL     1      45.802 -30.376   0.214  1.00  0.00     0.202 A 
HETATM    3  N   UNL     1      44.597 -30.225   1.039  1.00  0.00    -0.083 N 
HETATM    4  C   UNL     1      44.594 -29.693   2.299  1.00  0.00     0.726 A 
HETATM    5  N   UNL     1      45.748 -29.253   2.834  1.00  0.00    -0.192 N 
HETATM    6  N   UNL     1      43.377 -30.704   0.708  1.00  0.00    -0.140 NA
HETATM    7  C   UNL     1      42.662 -30.328   1.780  1.00  0.00     0.166 A 
HETATM    8  N   UNL     1      43.380 -29.722   2.784  1.00  0.00    -0.046 NA
HETATM    9  C   UNL     1      46.958 -29.256   2.150  1.00  0.00     0.037 A 
HETATM   10  C   UNL     1      48.129 -28.655   2.888  1.00  0.00     0.070 C 
HETATM   11  H   UNL     1      45.727 -28.821   3.753  1.00  0.00     0.184 HD
ENDROOT
BRANCH   1  12
HETATM   12  C   UNL     1      48.273 -29.662   0.104  1.00  0.00     0.256 C 
HETATM   13  N   UNL     1      49.020 -30.819   0.088  1.00  0.00    -0.323 N 
HETATM   14  H   UNL     1      48.703 -31.582   0.668  1.00  0.00     0.169 HD
HETATM   15  O   UNL     1      48.529 -28.593  -0.434  1.00  0.00    -0.267 OA
BRANCH  13  16
HETATM   16  C   UNL     1      50.223 -31.050  -0.627  1.00  0.00     0.041 A 
HETATM   17  C   UNL     1      51.201 -31.903  -0.067  1.00  0.00    -0.035 A 
HETATM   18  C   UNL     1      51.016 -32.591   1.259  1.00  0.00     0.050 C 
HETATM   19  C   UNL     1      52.390 -32.153  -0.779  1.00  0.00     0.009 A 
HETATM   20  C   UNL     1      52.620 -31.564  -2.020  1.00  0.00     0.001 A 
HETATM   21  C   UNL     1      51.661 -30.725  -2.569  1.00  0.00     0.002 A 
HETATM   22  C   UNL     1      50.473 -30.473  -1.880  1.00  0.00     0.030 A 
ENDBRANCH  13  16
ENDBRANCH   1  12
BRANCH   2  23
HETATM   23  C   UNL     1      45.562 -29.838  -1.193  1.00  0.00    -0.027 A 
HETATM   24  C   UNL     1      45.731 -30.687  -2.301  1.00  0.00     0.028 A 
HETATM   25  C   UNL     1      45.538 -30.202  -3.595  1.00  0.00     0.011 A 
HETATM   26 BR   UNL     1      45.780 -31.359  -5.071  1.00  0.00    -0.051 Br
HETATM   27  C   UNL     1      45.173 -28.877  -3.807  1.00  0.00     0.019 A 
HETATM   28  C   UNL     1      44.995 -28.027  -2.717  1.00  0.00     0.002 A 
HETATM   29  C   UNL     1      45.184 -28.503  -1.417  1.00  0.00     0.010 A 
ENDBRANCH   2  23
BRANCH   7  30
HETATM   30  C   UNL     1      41.201 -30.562   1.896  1.00  0.00     0.085 C 
BRANCH  30  31
HETATM   31  C   UNL     1      40.837 -31.641   2.912  1.00  0.00     0.034 C 
BRANCH  31  32
HETATM   32  C   UNL     1      40.644 -31.096   4.321  1.00  0.00     0.164 C 
BRANCH  32  33
HETATM   33  O   UNL     1      39.340 -31.428   4.786  1.00  0.00    -0.401 OA
HETATM   34  H   UNL     1      38.851 -31.811   4.038  1.00  0.00     0.209 HD
ENDBRANCH  32  33
ENDBRANCH  31  32
ENDBRANCH  30  31
ENDBRANCH   7  30
TORSDOF 7
ENDMDL
MODEL 10
REMARK VINA RESULT:      -7.6      3.468      7.000
REMARK  7 active torsions:
REMARK  status: ('A' for Active; 'I' for Inactive)
REMARK    1  A    between atoms: C_3  and  N_4 
REMARK       I    between atoms: N_4  and  C_5 
REMARK    2  A    between atoms: C_5  and  C_6 
REMARK    3  A    between atoms: C_7  and  C_8 
REMARK    4  A    between atoms: C_19  and  C_20 
REMARK    5  A    between atoms: C_20  and  C_21 
REMARK    6  A    between atoms: C_21  and  C_22 
REMARK    7  A    between atoms: C_22  and  O_23 
ROOT
HETATM    1  C   UNL     1      41.377 -13.298   1.742  1.00  0.00     0.062 A 
HETATM    2  C   UNL     1      41.963 -11.910   1.970  1.00  0.00     0.202 A 
HETATM    3  N   UNL     1      41.638 -11.004   0.861  1.00  0.00    -0.083 N 
HETATM    4  C   UNL     1      40.966 -11.387  -0.268  1.00  0.00     0.726 A 
HETATM    5  N   UNL     1      40.547 -12.659  -0.389  1.00  0.00    -0.192 N 
HETATM    6  N   UNL     1      42.070  -9.727   0.763  1.00  0.00    -0.140 NA
HETATM    7  C   UNL     1      41.527  -9.369  -0.410  1.00  0.00     0.166 A 
HETATM    8  N   UNL     1      40.858 -10.367  -1.080  1.00  0.00    -0.046 NA
HETATM    9  C   UNL     1      40.709 -13.615   0.607  1.00  0.00     0.037 A 
HETATM   10  C   UNL     1      40.106 -14.969   0.320  1.00  0.00     0.070 C 
HETATM   11  H   UNL     1      40.011 -12.921  -1.211  1.00  0.00     0.184 HD
ENDROOT
BRANCH   1  12
HETATM   12  C   UNL     1      41.433 -14.262   2.873  1.00  0.00     0.256 C 
HETATM   13  N   UNL     1      42.680 -14.822   3.048  1.00  0.00    -0.323 N 
HETATM   14  H   UNL     1      43.387 -14.597   2.365  1.00  0.00     0.169 HD
HETATM   15  O   UNL     1      40.414 -14.478   3.516  1.00  0.00    -0.267 OA
BRANCH  13  16
HETATM   16  C   UNL     1      43.076 -15.723   4.069  1.00  0.00     0.041 A 
HETATM   17  C   UNL     1      43.280 -17.083   3.743  1.00  0.00    -0.035 A 
HETATM   18  C   UNL     1      43.105 -17.618   2.347  1.00  0.00     0.050 C 
HETATM   19  C   UNL     1      43.692 -17.981   4.746  1.00  0.00     0.009 A 
HETATM   20  C   UNL     1      43.891 -17.551   6.056  1.00  0.00     0.001 A 
HETATM   21  C   UNL     1      43.689 -16.216   6.377  1.00  0.00     0.002 A 
HETATM   22  C   UNL     1      43.288 -15.311   5.392  1.00  0.00     0.030 A 
ENDBRANCH  13  16
ENDBRANCH   1  12
BRANCH   2  23
HETATM   23  C   UNL     1      41.575 -11.286   3.306  1.00  0.00    -0.027 A 
HETATM   24  C   UNL     1      42.524 -11.212   4.341  1.00  0.00     0.028 A 
HETATM   25  C   UNL     1      42.176 -10.664   5.576  1.00  0.00     0.011 A 
HETATM   26 BR   UNL     1      43.465 -10.582   6.957  1.00  0.00    -0.051 Br
HETATM   27  C   UNL     1      40.890 -10.182   5.800  1.00  0.00     0.019 A 
HETATM   28  C   UNL     1      39.943 -10.243   4.780  1.00  0.00     0.002 A 
HETATM   29  C   UNL     1      40.281 -10.788   3.538  1.00  0.00     0.010 A 
ENDBRANCH   2  23
BRANCH   7  30
HETATM   30  C   UNL     1      41.647  -7.999  -0.969  1.00  0.00     0.085 C 
BRANCH  30  31
HETATM   31  C   UNL     1      42.835  -7.830  -1.912  1.00  0.00     0.034 C 
BRANCH  31  32
HETATM   32  C   UNL     1      43.060  -6.384  -2.337  1.00  0.00     0.164 C 
BRANCH  32  33
HETATM   33  O   UNL     1      44.372  -5.976  -1.960  1.00  0.00    -0.401 OA
HETATM   34  H   UNL     1      44.762  -5.508  -2.718  1.00  0.00     0.209 HD
ENDBRANCH  32  33
ENDBRANCH  31  32
ENDBRANCH  30  31
ENDBRANCH   7  30
TORSDOF 7
ENDMDL
