MODEL 1
REMARK VINA RESULT:      -8.7      0.000      0.000
REMARK  6 active torsions:
REMARK  status: ('A' for Active; 'I' for Inactive)
REMARK    1  A    between atoms: C_2  and  O_3 
REMARK    2  A    between atoms: O_3  and  C_4 
REMARK    3  A    between atoms: C_5  and  O_6 
REMARK    4  A    between atoms: C_10  and  C_11 
REMARK    5  A    between atoms: C_20  and  C_21 
REMARK       I    between atoms: C_21  and  N_22 
REMARK    6  A    between atoms: N_22  and  C_23 
ROOT
HETATM    1  C   UNL     1      42.595 -13.178   2.332  1.00  0.00     0.202 C 
HETATM    2  N   UNL     1      41.801 -11.994   1.986  1.00  0.00    -0.084 N 
HETATM    3  C   UNL     1      40.534 -12.044   1.474  1.00  0.00     0.725 A 
HETATM    4  N   UNL     1      40.094 -10.829   1.279  1.00  0.00    -0.054 NA
HETATM    5  C   UNL     1      41.160 -10.055   1.662  1.00  0.00     0.275 A 
HETATM    6  N   UNL     1      42.239 -10.722   2.092  1.00  0.00    -0.149 NA
HETATM    7  N   UNL     1      39.970 -13.242   1.221  1.00  0.00    -0.192 N 
HETATM    8  C   UNL     1      40.676 -14.440   1.291  1.00  0.00     0.037 C 
HETATM    9  C   UNL     1      39.997 -15.626   0.650  1.00  0.00     0.070 C 
HETATM   10  C   UNL     1      41.919 -14.456   1.837  1.00  0.00     0.062 C 
HETATM   11  H   UNL     1      39.088 -13.247   0.713  1.00  0.00     0.184 HD
ENDROOT
BRANCH   1  12
HETATM   12  C   UNL     1      42.858 -13.190   3.839  1.00  0.00    -0.024 A 
HETATM   13  C   UNL     1      43.845 -12.344   4.374  1.00  0.00     0.031 A 
HETATM   14  C   UNL     1      44.071 -12.297   5.752  1.00  0.00     0.047 A 
HETATM   15  C   UNL     1      43.316 -13.102   6.602  1.00  0.00     0.116 A 
HETATM   16 BR   UNL     1      45.398 -11.118   6.415  1.00  0.00    -0.048 Br
HETATM   17  C   UNL     1      42.334 -13.963   6.092  1.00  0.00     0.103 A 
HETATM   18  C   UNL     1      42.105 -14.001   4.715  1.00  0.00     0.049 A 
BRANCH  15  19
HETATM   19  O   UNL     1      43.517 -13.061   7.959  1.00  0.00    -0.357 OA
HETATM   20  H   UNL     1      44.256 -12.437   8.093  1.00  0.00     0.218 HD
ENDBRANCH  15  19
BRANCH  17  21
HETATM   21  O   UNL     1      41.668 -14.698   7.040  1.00  0.00    -0.349 OA
BRANCH  21  22
HETATM   22  C   UNL     1      41.688 -16.118   6.898  1.00  0.00     0.171 C 
HETATM   23  C   UNL     1      43.063 -16.609   7.312  1.00  0.00     0.034 C 
ENDBRANCH  21  22
ENDBRANCH  17  21
ENDBRANCH   1  12
BRANCH  10  24
HETATM   24  C   UNL     1      42.800 -15.656   1.887  1.00  0.00     0.256 C 
HETATM   25  N   UNL     1      42.360 -16.632   2.753  1.00  0.00    -0.323 N 
HETATM   26  H   UNL     1      41.523 -16.436   3.286  1.00  0.00     0.169 HD
HETATM   27  O   UNL     1      43.822 -15.660   1.213  1.00  0.00    -0.267 OA
BRANCH  25  28
HETATM   28  C   UNL     1      42.913 -17.917   2.942  1.00  0.00     0.035 A 
HETATM   29  C   UNL     1      42.760 -18.974   2.043  1.00  0.00     0.029 A 
HETATM   30  C   UNL     1      43.315 -20.227   2.320  1.00  0.00     0.002 A 
HETATM   31  C   UNL     1      44.024 -20.437   3.500  1.00  0.00     0.000 A 
HETATM   32  C   UNL     1      44.186 -19.389   4.403  1.00  0.00     0.002 A 
HETATM   33  C   UNL     1      43.638 -18.134   4.123  1.00  0.00     0.029 A 
ENDBRANCH  25  28
ENDBRANCH  10  24
TORSDOF 6
ENDMDL
MODEL 2
REMARK VINA RESULT:      -8.5      1.390      2.367
REMARK  6 active torsions:
REMARK  status: ('A' for Active; 'I' for Inactive)
REMARK    1  A    between atoms: C_2  and  O_3 
REMARK    2  A    between atoms: O_3  and  C_4 
REMARK    3  A    between atoms: C_5  and  O_6 
REMARK    4  A    between atoms: C_10  and  C_11 
REMARK    5  A    between atoms: C_20  and  C_21 
REMARK       I    between atoms: C_21  and  N_22 
REMARK    6  A    between atoms: N_22  and  C_23 
ROOT
HETATM    1  C   UNL     1      42.542 -13.121   2.266  1.00  0.00     0.202 C 
HETATM    2  N   UNL     1      41.718 -11.979   1.857  1.00  0.00    -0.084 N 
HETATM    3  C   UNL     1      40.456 -12.090   1.341  1.00  0.00     0.725 A 
HETATM    4  N   UNL     1      39.984 -10.899   1.083  1.00  0.00    -0.054 NA
HETATM    5  C   UNL     1      41.025 -10.077   1.432  1.00  0.00     0.275 A 
HETATM    6  N   UNL     1      42.119 -10.691   1.901  1.00  0.00    -0.149 NA
HETATM    7  N   UNL     1      39.928 -13.314   1.145  1.00  0.00    -0.192 N 
HETATM    8  C   UNL     1      40.667 -14.487   1.279  1.00  0.00     0.037 C 
HETATM    9  C   UNL     1      40.025 -15.722   0.695  1.00  0.00     0.070 C 
HETATM   10  C   UNL     1      41.906 -14.441   1.832  1.00  0.00     0.062 C 
HETATM   11  H   UNL     1      39.050 -13.369   0.634  1.00  0.00     0.184 HD
ENDROOT
BRANCH   1  12
HETATM   12  C   UNL     1      42.795 -13.050   3.773  1.00  0.00    -0.024 A 
HETATM   13  C   UNL     1      42.337 -14.092   4.599  1.00  0.00     0.031 A 
HETATM   14  C   UNL     1      42.598 -14.078   5.971  1.00  0.00     0.047 A 
HETATM   15  C   UNL     1      43.313 -13.019   6.526  1.00  0.00     0.116 A 
HETATM   16 BR   UNL     1      41.977 -15.523   7.029  1.00  0.00    -0.048 Br
HETATM   17  C   UNL     1      43.770 -11.963   5.726  1.00  0.00     0.103 A 
HETATM   18  C   UNL     1      43.514 -11.984   4.353  1.00  0.00     0.049 A 
BRANCH  15  19
HETATM   19  O   UNL     1      43.588 -12.995   7.871  1.00  0.00    -0.357 OA
HETATM   20  H   UNL     1      43.928 -12.097   8.050  1.00  0.00     0.218 HD
ENDBRANCH  15  19
BRANCH  17  21
HETATM   21  O   UNL     1      44.458 -10.987   6.403  1.00  0.00    -0.349 OA
BRANCH  21  22
HETATM   22  C   UNL     1      45.874 -11.135   6.499  1.00  0.00     0.171 C 
HETATM   23  C   UNL     1      46.325 -10.473   7.788  1.00  0.00     0.034 C 
ENDBRANCH  21  22
ENDBRANCH  17  21
ENDBRANCH   1  12
BRANCH  10  24
HETATM   24  C   UNL     1      42.820 -15.611   1.947  1.00  0.00     0.256 C 
HETATM   25  N   UNL     1      42.349 -16.603   2.778  1.00  0.00    -0.323 N 
HETATM   26  H   UNL     1      41.469 -16.436   3.248  1.00  0.00     0.169 HD
HETATM   27  O   UNL     1      43.888 -15.580   1.350  1.00  0.00    -0.267 OA
BRANCH  25  28
HETATM   28  C   UNL     1      42.928 -17.870   3.008  1.00  0.00     0.035 A 
HETATM   29  C   UNL     1      42.866 -18.933   2.106  1.00  0.00     0.029 A 
HETATM   30  C   UNL     1      43.441 -20.167   2.423  1.00  0.00     0.002 A 
HETATM   31  C   UNL     1      44.079 -20.352   3.646  1.00  0.00     0.000 A 
HETATM   32  C   UNL     1      44.150 -19.298   4.553  1.00  0.00     0.002 A 
HETATM   33  C   UNL     1      43.582 -18.061   4.233  1.00  0.00     0.029 A 
ENDBRANCH  25  28
ENDBRANCH  10  24
TORSDOF 6
ENDMDL
MODEL 3
REMARK VINA RESULT:      -8.3      2.776      5.853
REMARK  6 active torsions:
REMARK  status: ('A' for Active; 'I' for Inactive)
REMARK    1  A    between atoms: C_2  and  O_3 
REMARK    2  A    between atoms: O_3  and  C_4 
REMARK    3  A    between atoms: C_5  and  O_6 
REMARK    4  A    between atoms: C_10  and  C_11 
REMARK    5  A    between atoms: C_20  and  C_21 
REMARK       I    between atoms: C_21  and  N_22 
REMARK    6  A    between atoms: N_22  and  C_23 
ROOT
HETATM    1  C   UNL     1      41.543 -15.277   5.193  1.00  0.00     0.202 C 
HETATM    2  N   UNL     1      42.494 -15.910   6.113  1.00  0.00    -0.084 N 
HETATM    3  C   UNL     1      43.570 -16.653   5.711  1.00  0.00     0.725 A 
HETATM    4  N   UNL     1      44.227 -17.074   6.761  1.00  0.00    -0.054 NA
HETATM    5  C   UNL     1      43.482 -16.581   7.802  1.00  0.00     0.275 A 
HETATM    6  N   UNL     1      42.400 -15.870   7.459  1.00  0.00    -0.149 NA
HETATM    7  N   UNL     1      43.769 -16.871   4.396  1.00  0.00    -0.192 N 
HETATM    8  C   UNL     1      42.836 -16.521   3.423  1.00  0.00     0.037 C 
HETATM    9  C   UNL     1      43.062 -17.140   2.064  1.00  0.00     0.070 C 
HETATM   10  C   UNL     1      41.776 -15.742   3.757  1.00  0.00     0.062 C 
HETATM   11  H   UNL     1      44.491 -17.538   4.135  1.00  0.00     0.184 HD
ENDROOT
BRANCH   1  12
HETATM   12  C   UNL     1      41.625 -13.757   5.347  1.00  0.00    -0.024 A 
HETATM   13  C   UNL     1      40.470 -13.037   5.703  1.00  0.00     0.031 A 
HETATM   14  C   UNL     1      40.527 -11.655   5.900  1.00  0.00     0.047 A 
HETATM   15  C   UNL     1      41.737 -10.984   5.734  1.00  0.00     0.116 A 
HETATM   16 BR   UNL     1      38.944 -10.744   6.404  1.00  0.00    -0.048 Br
HETATM   17  C   UNL     1      42.898 -11.678   5.367  1.00  0.00     0.103 A 
HETATM   18  C   UNL     1      42.840 -13.060   5.180  1.00  0.00     0.049 A 
BRANCH  15  19
HETATM   19  O   UNL     1      41.813  -9.628   5.934  1.00  0.00    -0.357 OA
HETATM   20  H   UNL     1      42.028  -9.249   5.060  1.00  0.00     0.218 HD
ENDBRANCH  15  19
BRANCH  17  21
HETATM   21  O   UNL     1      44.017 -10.893   5.237  1.00  0.00    -0.349 OA
BRANCH  21  22
HETATM   22  C   UNL     1      45.211 -11.351   5.869  1.00  0.00     0.171 C 
HETATM   23  C   UNL     1      45.168 -10.912   7.322  1.00  0.00     0.034 C 
ENDBRANCH  21  22
ENDBRANCH  17  21
ENDBRANCH   1  12
BRANCH  10  24
HETATM   24  C   UNL     1      40.673 -15.377   2.824  1.00  0.00     0.256 C 
HETATM   25  N   UNL     1      40.990 -14.349   1.964  1.00  0.00    -0.323 N 
HETATM   26  H   UNL     1      41.903 -13.925   2.065  1.00  0.00     0.169 HD
HETATM   27  O   UNL     1      39.607 -15.969   2.921  1.00  0.00    -0.267 OA
BRANCH  25  28
HETATM   28  C   UNL     1      40.203 -13.852   0.904  1.00  0.00     0.035 A 
HETATM   29  C   UNL     1      40.005 -14.522  -0.304  1.00  0.00     0.029 A 
HETATM   30  C   UNL     1      39.234 -13.945  -1.318  1.00  0.00     0.002 A 
HETATM   31  C   UNL     1      38.659 -12.690  -1.136  1.00  0.00     0.000 A 
HETATM   32  C   UNL     1      38.848 -12.012   0.065  1.00  0.00     0.002 A 
HETATM   33  C   UNL     1      39.612 -12.593   1.082  1.00  0.00     0.029 A 
ENDBRANCH  25  28
ENDBRANCH  10  24
TORSDOF 6
ENDMDL
MODEL 4
REMARK VINA RESULT:      -8.3      1.795      2.429
REMARK  6 active torsions:
REMARK  status: ('A' for Active; 'I' for Inactive)
REMARK    1  A    between atoms: C_2  and  O_3 
REMARK    2  A    between atoms: O_3  and  C_4 
REMARK    3  A    between atoms: C_5  and  O_6 
REMARK    4  A    between atoms: C_10  and  C_11 
REMARK    5  A    between atoms: C_20  and  C_21 
REMARK       I    between atoms: C_21  and  N_22 
REMARK    6  A    between atoms: N_22  and  C_23 
ROOT
HETATM    1  C   UNL     1      42.042 -12.522   2.038  1.00  0.00     0.202 C 
HETATM    2  N   UNL     1      41.138 -11.549   1.414  1.00  0.00    -0.084 N 
HETATM    3  C   UNL     1      39.939 -11.876   0.843  1.00  0.00     0.725 A 
HETATM    4  N   UNL     1      39.367 -10.794   0.382  1.00  0.00    -0.054 NA
HETATM    5  C   UNL     1      40.286  -9.818   0.671  1.00  0.00     0.275 A 
HETATM    6  N   UNL     1      41.398 -10.231   1.292  1.00  0.00    -0.149 NA
HETATM    7  N   UNL     1      39.558 -13.168   0.797  1.00  0.00    -0.192 N 
HETATM    8  C   UNL     1      40.403 -14.217   1.148  1.00  0.00     0.037 C 
HETATM    9  C   UNL     1      39.941 -15.587   0.714  1.00  0.00     0.070 C 
HETATM   10  C   UNL     1      41.583 -13.953   1.765  1.00  0.00     0.062 C 
HETATM   11  H   UNL     1      38.734 -13.393   0.246  1.00  0.00     0.184 HD
ENDROOT
BRANCH   1  12
HETATM   12  C   UNL     1      42.168 -12.212   3.531  1.00  0.00    -0.024 A 
HETATM   13  C   UNL     1      43.442 -12.002   4.087  1.00  0.00     0.031 A 
HETATM   14  C   UNL     1      43.583 -11.668   5.436  1.00  0.00     0.047 A 
HETATM   15  C   UNL     1      42.450 -11.549   6.239  1.00  0.00     0.116 A 
HETATM   16 BR   UNL     1      45.324 -11.373   6.122  1.00  0.00    -0.048 Br
HETATM   17  C   UNL     1      41.170 -11.766   5.710  1.00  0.00     0.103 A 
HETATM   18  C   UNL     1      41.033 -12.091   4.359  1.00  0.00     0.049 A 
BRANCH  15  19
HETATM   19  O   UNL     1      42.569 -11.211   7.563  1.00  0.00    -0.357 OA
HETATM   20  H   UNL     1      41.850 -10.573   7.734  1.00  0.00     0.218 HD
ENDBRANCH  15  19
BRANCH  17  21
HETATM   21  O   UNL     1      40.145 -11.617   6.612  1.00  0.00    -0.349 OA
BRANCH  21  22
HETATM   22  C   UNL     1      38.992 -10.899   6.175  1.00  0.00     0.171 C 
HETATM   23  C   UNL     1      39.242  -9.422   6.419  1.00  0.00     0.034 C 
ENDBRANCH  21  22
ENDBRANCH  17  21
ENDBRANCH   1  12
BRANCH  10  24
HETATM   24  C   UNL     1      42.602 -14.984   2.108  1.00  0.00     0.256 C 
HETATM   25  N   UNL     1      42.173 -15.897   3.045  1.00  0.00    -0.323 N 
HETATM   26  H   UNL     1      41.246 -15.768   3.429  1.00  0.00     0.169 HD
HETATM   27  O   UNL     1      43.705 -14.913   1.581  1.00  0.00    -0.267 OA
BRANCH  25  28
HETATM   28  C   UNL     1      42.862 -17.045   3.494  1.00  0.00     0.035 A 
HETATM   29  C   UNL     1      43.351 -17.205   4.791  1.00  0.00     0.029 A 
HETATM   30  C   UNL     1      44.052 -18.362   5.148  1.00  0.00     0.002 A 
HETATM   31  C   UNL     1      44.274 -19.366   4.210  1.00  0.00     0.000 A 
HETATM   32  C   UNL     1      43.788 -19.219   2.913  1.00  0.00     0.002 A 
HETATM   33  C   UNL     1      43.081 -18.066   2.559  1.00  0.00     0.029 A 
ENDBRANCH  25  28
ENDBRANCH  10  24
TORSDOF 6
ENDMDL
MODEL 5
REMARK VINA RESULT:      -8.2      3.003      5.605
REMARK  6 active torsions:
REMARK  status: ('A' for Active; 'I' for Inactive)
REMARK    1  A    between atoms: C_2  and  O_3 
REMARK    2  A    between atoms: O_3  and  C_4 
REMARK    3  A    between atoms: C_5  and  O_6 
REMARK    4  A    between atoms: C_10  and  C_11 
REMARK    5  A    between atoms: C_20  and  C_21 
REMARK       I    between atoms: C_21  and  N_22 
REMARK    6  A    between atoms: N_22  and  C_23 
ROOT
HETATM    1  C   UNL     1      40.800 -12.526   2.636  1.00  0.00     0.202 C 
HETATM    2  N   UNL     1      40.039 -11.434   3.253  1.00  0.00    -0.084 N 
HETATM    3  C   UNL     1      40.581 -10.507   4.101  1.00  0.00     0.725 A 
HETATM    4  N   UNL     1      39.654  -9.664   4.475  1.00  0.00    -0.054 NA
HETATM    5  C   UNL     1      38.534 -10.145   3.845  1.00  0.00     0.275 A 
HETATM    6  N   UNL     1      38.714 -11.238   3.093  1.00  0.00    -0.149 NA
HETATM    7  N   UNL     1      41.881 -10.604   4.442  1.00  0.00    -0.192 N 
HETATM    8  C   UNL     1      42.669 -11.703   4.114  1.00  0.00     0.037 C 
HETATM    9  C   UNL     1      43.978 -11.803   4.859  1.00  0.00     0.070 C 
HETATM   10  C   UNL     1      42.201 -12.628   3.237  1.00  0.00     0.062 C 
HETATM   11  H   UNL     1      42.219  -9.988   5.178  1.00  0.00     0.184 HD
ENDROOT
BRANCH   1  12
HETATM   12  C   UNL     1      40.816 -12.339   1.118  1.00  0.00    -0.024 A 
HETATM   13  C   UNL     1      41.217 -11.103   0.579  1.00  0.00     0.031 A 
HETATM   14  C   UNL     1      41.290 -10.920  -0.803  1.00  0.00     0.047 A 
HETATM   15  C   UNL     1      40.955 -11.970  -1.656  1.00  0.00     0.116 A 
HETATM   16 BR   UNL     1      41.862  -9.241  -1.469  1.00  0.00    -0.048 Br
HETATM   17  C   UNL     1      40.541 -13.207  -1.144  1.00  0.00     0.103 A 
HETATM   18  C   UNL     1      40.477 -13.389   0.239  1.00  0.00     0.049 A 
BRANCH  15  19
HETATM   19  O   UNL     1      41.031 -11.812  -3.017  1.00  0.00    -0.357 OA
HETATM   20  H   UNL     1      41.956 -12.021  -3.252  1.00  0.00     0.218 HD
ENDBRANCH  15  19
BRANCH  17  21
HETATM   21  O   UNL     1      40.240 -14.150  -2.096  1.00  0.00    -0.349 OA
BRANCH  21  22
HETATM   22  C   UNL     1      38.933 -14.720  -2.058  1.00  0.00     0.171 C 
HETATM   23  C   UNL     1      38.283 -14.485  -3.410  1.00  0.00     0.034 C 
ENDBRANCH  21  22
ENDBRANCH  17  21
ENDBRANCH   1  12
BRANCH  10  24
HETATM   24  C   UNL     1      42.916 -13.884   2.877  1.00  0.00     0.256 C 
HETATM   25  N   UNL     1      42.579 -14.960   3.669  1.00  0.00    -0.323 N 
HETATM   26  H   UNL     1      41.924 -14.795   4.422  1.00  0.00     0.169 HD
HETATM   27  O   UNL     1      43.738 -13.850   1.971  1.00  0.00    -0.267 OA
BRANCH  25  28
HETATM   28  C   UNL     1      43.001 -16.297   3.513  1.00  0.00     0.035 A 
HETATM   29  C   UNL     1      42.682 -17.095   2.412  1.00  0.00     0.029 A 
HETATM   30  C   UNL     1      43.114 -18.423   2.349  1.00  0.00     0.002 A 
HETATM   31  C   UNL     1      43.865 -18.968   3.387  1.00  0.00     0.000 A 
HETATM   32  C   UNL     1      44.192 -18.182   4.489  1.00  0.00     0.002 A 
HETATM   33  C   UNL     1      43.766 -16.852   4.549  1.00  0.00     0.029 A 
ENDBRANCH  25  28
ENDBRANCH  10  24
TORSDOF 6
ENDMDL
MODEL 6
REMARK VINA RESULT:      -8.1      3.308      5.916
REMARK  6 active torsions:
REMARK  status: ('A' for Active; 'I' for Inactive)
REMARK    1  A    between atoms: C_2  and  O_3 
REMARK    2  A    between atoms: O_3  and  C_4 
REMARK    3  A    between atoms: C_5  and  O_6 
REMARK    4  A    between atoms: C_10  and  C_11 
REMARK    5  A    between atoms: C_20  and  C_21 
REMARK       I    between atoms: C_21  and  N_22 
REMARK    6  A    between atoms: N_22  and  C_23 
ROOT
HETATM    1  C   UNL     1      40.812 -12.619   2.679  1.00  0.00     0.202 C 
HETATM    2  N   UNL     1      40.068 -11.523   3.309  1.00  0.00    -0.084 N 
HETATM    3  C   UNL     1      40.632 -10.589   4.135  1.00  0.00     0.725 A 
HETATM    4  N   UNL     1      39.715  -9.745   4.528  1.00  0.00    -0.054 NA
HETATM    5  C   UNL     1      38.579 -10.230   3.933  1.00  0.00     0.275 A 
HETATM    6  N   UNL     1      38.739 -11.329   3.184  1.00  0.00    -0.149 NA
HETATM    7  N   UNL     1      41.941 -10.683   4.441  1.00  0.00    -0.192 N 
HETATM    8  C   UNL     1      42.721 -11.784   4.099  1.00  0.00     0.037 C 
HETATM    9  C   UNL     1      44.050 -11.878   4.809  1.00  0.00     0.070 C 
HETATM   10  C   UNL     1      42.229 -12.715   3.242  1.00  0.00     0.062 C 
HETATM   11  H   UNL     1      42.299 -10.061   5.163  1.00  0.00     0.184 HD
ENDROOT
BRANCH   1  12
HETATM   12  C   UNL     1      40.786 -12.442   1.160  1.00  0.00    -0.024 A 
HETATM   13  C   UNL     1      40.162 -13.418   0.362  1.00  0.00     0.031 A 
HETATM   14  C   UNL     1      40.079 -13.257  -1.023  1.00  0.00     0.047 A 
HETATM   15  C   UNL     1      40.626 -12.123  -1.619  1.00  0.00     0.116 A 
HETATM   16 BR   UNL     1      39.204 -14.594  -2.042  1.00  0.00    -0.048 Br
HETATM   17  C   UNL     1      41.264 -11.142  -0.847  1.00  0.00     0.103 A 
HETATM   18  C   UNL     1      41.337 -11.302   0.538  1.00  0.00     0.049 A 
BRANCH  15  19
HETATM   19  O   UNL     1      40.544 -11.943  -2.977  1.00  0.00    -0.357 OA
HETATM   20  H   UNL     1      41.087 -12.656  -3.367  1.00  0.00     0.218 HD
ENDBRANCH  15  19
BRANCH  17  21
HETATM   21  O   UNL     1      41.757 -10.080  -1.563  1.00  0.00    -0.349 OA
BRANCH  21  22
HETATM   22  C   UNL     1      41.955  -8.855  -0.860  1.00  0.00     0.171 C 
HETATM   23  C   UNL     1      42.987  -8.042  -1.620  1.00  0.00     0.034 C 
ENDBRANCH  21  22
ENDBRANCH  17  21
ENDBRANCH   1  12
BRANCH  10  24
HETATM   24  C   UNL     1      42.935 -13.974   2.871  1.00  0.00     0.256 C 
HETATM   25  N   UNL     1      42.612 -15.047   3.672  1.00  0.00    -0.323 N 
HETATM   26  H   UNL     1      41.972 -14.879   4.437  1.00  0.00     0.169 HD
HETATM   27  O   UNL     1      43.740 -13.943   1.950  1.00  0.00    -0.267 OA
BRANCH  25  28
HETATM   28  C   UNL     1      43.028 -16.386   3.511  1.00  0.00     0.035 A 
HETATM   29  C   UNL     1      42.712 -17.175   2.405  1.00  0.00     0.029 A 
HETATM   30  C   UNL     1      43.138 -18.505   2.336  1.00  0.00     0.002 A 
HETATM   31  C   UNL     1      43.881 -19.060   3.376  1.00  0.00     0.000 A 
HETATM   32  C   UNL     1      44.205 -18.281   4.483  1.00  0.00     0.002 A 
HETATM   33  C   UNL     1      43.786 -16.949   4.548  1.00  0.00     0.029 A 
ENDBRANCH  25  28
ENDBRANCH  10  24
TORSDOF 6
ENDMDL
MODEL 7
REMARK VINA RESULT:      -8.1      3.129      5.564
REMARK  6 active torsions:
REMARK  status: ('A' for Active; 'I' for Inactive)
REMARK    1  A    between atoms: C_2  and  O_3 
REMARK    2  A    between atoms: O_3  and  C_4 
REMARK    3  A    between atoms: C_5  and  O_6 
REMARK    4  A    between atoms: C_10  and  C_11 
REMARK    5  A    between atoms: C_20  and  C_21 
REMARK       I    between atoms: C_21  and  N_22 
REMARK    6  A    between atoms: N_22  and  C_23 
ROOT
HETATM    1  C   UNL     1      40.372 -12.999   4.571  1.00  0.00     0.202 C 
HETATM    2  N   UNL     1      40.145 -11.692   5.197  1.00  0.00    -0.084 N 
HETATM    3  C   UNL     1      40.959 -11.150   6.154  1.00  0.00     0.725 A 
HETATM    4  N   UNL     1      40.497  -9.979   6.506  1.00  0.00    -0.054 NA
HETATM    5  C   UNL     1      39.360  -9.860   5.748  1.00  0.00     0.275 A 
HETATM    6  N   UNL     1      39.091 -10.891   4.937  1.00  0.00    -0.149 NA
HETATM    7  N   UNL     1      42.017 -11.855   6.599  1.00  0.00    -0.192 N 
HETATM    8  C   UNL     1      42.234 -13.188   6.261  1.00  0.00     0.037 C 
HETATM    9  C   UNL     1      43.253 -13.910   7.107  1.00  0.00     0.070 C 
HETATM   10  C   UNL     1      41.489 -13.762   5.281  1.00  0.00     0.062 C 
HETATM   11  H   UNL     1      42.520 -11.489   7.404  1.00  0.00     0.184 HD
ENDROOT
BRANCH   1  12
HETATM   12  C   UNL     1      40.642 -12.805   3.077  1.00  0.00    -0.024 A 
HETATM   13  C   UNL     1      40.198 -13.779   2.164  1.00  0.00     0.031 A 
HETATM   14  C   UNL     1      40.386 -13.603   0.791  1.00  0.00     0.047 A 
HETATM   15  C   UNL     1      41.025 -12.456   0.323  1.00  0.00     0.116 A 
HETATM   16 BR   UNL     1      39.743 -14.937  -0.391  1.00  0.00    -0.048 Br
HETATM   17  C   UNL     1      41.487 -11.478   1.214  1.00  0.00     0.103 A 
HETATM   18  C   UNL     1      41.290 -11.653   2.586  1.00  0.00     0.049 A 
BRANCH  15  19
HETATM   19  O   UNL     1      41.208 -12.263  -1.023  1.00  0.00    -0.357 OA
HETATM   20  H   UNL     1      42.121 -12.555  -1.206  1.00  0.00     0.218 HD
ENDBRANCH  15  19
BRANCH  17  21
HETATM   21  O   UNL     1      42.098 -10.403   0.618  1.00  0.00    -0.349 OA
BRANCH  21  22
HETATM   22  C   UNL     1      41.294  -9.251   0.370  1.00  0.00     0.171 C 
HETATM   23  C   UNL     1      41.980  -8.427  -0.705  1.00  0.00     0.034 C 
ENDBRANCH  21  22
ENDBRANCH  17  21
ENDBRANCH   1  12
BRANCH  10  24
HETATM   24  C   UNL     1      41.570 -15.199   4.894  1.00  0.00     0.256 C 
HETATM   25  N   UNL     1      42.727 -15.528   4.223  1.00  0.00    -0.323 N 
HETATM   26  H   UNL     1      43.380 -14.779   4.029  1.00  0.00     0.169 HD
HETATM   27  O   UNL     1      40.625 -15.930   5.159  1.00  0.00    -0.267 OA
BRANCH  25  28
HETATM   28  C   UNL     1      43.143 -16.815   3.823  1.00  0.00     0.035 A 
HETATM   29  C   UNL     1      44.037 -17.608   4.544  1.00  0.00     0.029 A 
HETATM   30  C   UNL     1      44.423 -18.862   4.062  1.00  0.00     0.002 A 
HETATM   31  C   UNL     1      43.923 -19.334   2.851  1.00  0.00     0.000 A 
HETATM   32  C   UNL     1      43.028 -18.553   2.123  1.00  0.00     0.002 A 
HETATM   33  C   UNL     1      42.636 -17.302   2.610  1.00  0.00     0.029 A 
ENDBRANCH  25  28
ENDBRANCH  10  24
TORSDOF 6
ENDMDL
MODEL 8
REMARK VINA RESULT:      -7.8      3.215      5.429
REMARK  6 active torsions:
REMARK  status: ('A' for Active; 'I' for Inactive)
REMARK    1  A    between atoms: C_2  and  O_3 
REMARK    2  A    between atoms: O_3  and  C_4 
REMARK    3  A    between atoms: C_5  and  O_6 
REMARK    4  A    between atoms: C_10  and  C_11 
REMARK    5  A    between atoms: C_20  and  C_21 
REMARK       I    between atoms: C_21  and  N_22 
REMARK    6  A    between atoms: N_22  and  C_23 
ROOT
HETATM    1  C   UNL     1      40.592 -12.781   4.509  1.00  0.00     0.202 C 
HETATM    2  N   UNL     1      39.969 -11.898   5.501  1.00  0.00    -0.084 N 
HETATM    3  C   UNL     1      40.670 -11.147   6.405  1.00  0.00     0.725 A 
HETATM    4  N   UNL     1      39.835 -10.464   7.144  1.00  0.00    -0.054 NA
HETATM    5  C   UNL     1      38.612 -10.863   6.668  1.00  0.00     0.275 A 
HETATM    6  N   UNL     1      38.638 -11.753   5.668  1.00  0.00    -0.149 NA
HETATM    7  N   UNL     1      42.014 -11.237   6.438  1.00  0.00    -0.192 N 
HETATM    8  C   UNL     1      42.726 -12.188   5.713  1.00  0.00     0.037 C 
HETATM    9  C   UNL     1      44.166 -12.369   6.128  1.00  0.00     0.070 C 
HETATM   10  C   UNL     1      42.091 -12.926   4.766  1.00  0.00     0.062 C 
HETATM   11  H   UNL     1      42.495 -10.777   7.208  1.00  0.00     0.184 HD
ENDROOT
BRANCH   1  12
HETATM   12  C   UNL     1      40.278 -12.266   3.103  1.00  0.00    -0.024 A 
HETATM   13  C   UNL     1      40.508 -10.913   2.796  1.00  0.00     0.031 A 
HETATM   14  C   UNL     1      40.278 -10.427   1.507  1.00  0.00     0.047 A 
HETATM   15  C   UNL     1      39.809 -11.290   0.518  1.00  0.00     0.116 A 
HETATM   16 BR   UNL     1      40.632  -8.600   1.148  1.00  0.00    -0.048 Br
HETATM   17  C   UNL     1      39.560 -12.640   0.803  1.00  0.00     0.103 A 
HETATM   18  C   UNL     1      39.799 -13.124   2.091  1.00  0.00     0.049 A 
BRANCH  15  19
HETATM   19  O   UNL     1      39.588 -10.832  -0.756  1.00  0.00    -0.357 OA
HETATM   20  H   UNL     1      39.491 -11.633  -1.307  1.00  0.00     0.218 HD
ENDBRANCH  15  19
BRANCH  17  21
HETATM   21  O   UNL     1      39.100 -13.374  -0.262  1.00  0.00    -0.349 OA
BRANCH  21  22
HETATM   22  C   UNL     1      40.002 -14.316  -0.842  1.00  0.00     0.171 C 
HETATM   23  C   UNL     1      40.133 -13.986  -2.319  1.00  0.00     0.034 C 
ENDBRANCH  21  22
ENDBRANCH  17  21
ENDBRANCH   1  12
BRANCH  10  24
HETATM   24  C   UNL     1      42.727 -14.028   3.991  1.00  0.00     0.256 C 
HETATM   25  N   UNL     1      42.596 -15.266   4.579  1.00  0.00    -0.323 N 
HETATM   26  H   UNL     1      42.125 -15.308   5.473  1.00  0.00     0.169 HD
HETATM   27  O   UNL     1      43.323 -13.748   2.960  1.00  0.00    -0.267 OA
BRANCH  25  28
HETATM   28  C   UNL     1      42.994 -16.510   4.043  1.00  0.00     0.035 A 
HETATM   29  C   UNL     1      43.948 -17.344   4.628  1.00  0.00     0.029 A 
HETATM   30  C   UNL     1      44.309 -18.548   4.016  1.00  0.00     0.002 A 
HETATM   31  C   UNL     1      43.723 -18.927   2.810  1.00  0.00     0.000 A 
HETATM   32  C   UNL     1      42.769 -18.105   2.219  1.00  0.00     0.002 A 
HETATM   33  C   UNL     1      42.401 -16.904   2.835  1.00  0.00     0.029 A 
ENDBRANCH  25  28
ENDBRANCH  10  24
TORSDOF 6
ENDMDL
MODEL 9
REMARK VINA RESULT:      -7.6      3.429      4.586
REMARK  6 active torsions:
REMARK  status: ('A' for Active; 'I' for Inactive)
REMARK    1  A    between atoms: C_2  and  O_3 
REMARK    2  A    between atoms: O_3  and  C_4 
REMARK    3  A    between atoms: C_5  and  O_6 
REMARK    4  A    between atoms: C_10  and  C_11 
REMARK    5  A    between atoms: C_20  and  C_21 
REMARK       I    between atoms: C_21  and  N_22 
REMARK    6  A    between atoms: N_22  and  C_23 
ROOT
HETATM    1  C   UNL     1      41.376 -11.348   0.363  1.00  0.00     0.202 C 
HETATM    2  N   UNL     1      41.554 -10.302  -0.650  1.00  0.00    -0.084 N 
HETATM    3  C   UNL     1      41.132 -10.412  -1.946  1.00  0.00     0.725 A 
HETATM    4  N   UNL     1      41.428  -9.317  -2.596  1.00  0.00    -0.054 NA
HETATM    5  C   UNL     1      42.073  -8.566  -1.646  1.00  0.00     0.275 A 
HETATM    6  N   UNL     1      42.189  -9.131  -0.438  1.00  0.00    -0.149 NA
HETATM    7  N   UNL     1      40.552 -11.557  -2.358  1.00  0.00    -0.192 N 
HETATM    8  C   UNL     1      40.513 -12.708  -1.576  1.00  0.00     0.037 C 
HETATM    9  C   UNL     1      40.143 -13.973  -2.311  1.00  0.00     0.070 C 
HETATM   10  C   UNL     1      40.872 -12.644  -0.268  1.00  0.00     0.062 C 
HETATM   11  H   UNL     1      40.376 -11.661  -3.354  1.00  0.00     0.184 HD
ENDROOT
BRANCH   1  12
HETATM   12  C   UNL     1      40.457 -10.829   1.471  1.00  0.00    -0.024 A 
HETATM   13  C   UNL     1      39.280 -10.141   1.125  1.00  0.00     0.031 A 
HETATM   14  C   UNL     1      38.398  -9.702   2.114  1.00  0.00     0.047 A 
HETATM   15  C   UNL     1      38.689  -9.942   3.455  1.00  0.00     0.116 A 
HETATM   16 BR   UNL     1      36.816  -8.802   1.585  1.00  0.00    -0.048 Br
HETATM   17  C   UNL     1      39.861 -10.615   3.825  1.00  0.00     0.103 A 
HETATM   18  C   UNL     1      40.738 -11.060   2.834  1.00  0.00     0.049 A 
BRANCH  15  19
HETATM   19  O   UNL     1      37.828  -9.527   4.439  1.00  0.00    -0.357 OA
HETATM   20  H   UNL     1      37.511  -8.648   4.154  1.00  0.00     0.218 HD
ENDBRANCH  15  19
BRANCH  17  21
HETATM   21  O   UNL     1      40.023 -10.782   5.178  1.00  0.00    -0.349 OA
BRANCH  21  22
HETATM   22  C   UNL     1      40.831 -11.876   5.608  1.00  0.00     0.171 C 
HETATM   23  C   UNL     1      39.924 -13.079   5.797  1.00  0.00     0.034 C 
ENDBRANCH  21  22
ENDBRANCH  17  21
ENDBRANCH   1  12
BRANCH  10  24
HETATM   24  C   UNL     1      40.953 -13.822   0.641  1.00  0.00     0.256 C 
HETATM   25  N   UNL     1      42.238 -14.143   1.020  1.00  0.00    -0.323 N 
HETATM   26  H   UNL     1      42.989 -13.588   0.631  1.00  0.00     0.169 HD
HETATM   27  O   UNL     1      39.919 -14.408   0.931  1.00  0.00    -0.267 OA
BRANCH  25  28
HETATM   28  C   UNL     1      42.630 -15.130   1.950  1.00  0.00     0.035 A 
HETATM   29  C   UNL     1      42.962 -16.441   1.604  1.00  0.00     0.029 A 
HETATM   30  C   UNL     1      43.311 -17.368   2.591  1.00  0.00     0.002 A 
HETATM   31  C   UNL     1      43.327 -16.995   3.932  1.00  0.00     0.000 A 
HETATM   32  C   UNL     1      43.000 -15.690   4.289  1.00  0.00     0.002 A 
HETATM   33  C   UNL     1      42.659 -14.760   3.302  1.00  0.00     0.029 A 
ENDBRANCH  25  28
ENDBRANCH  10  24
TORSDOF 6
ENDMDL
MODEL 10
REMARK VINA RESULT:      -7.5      3.453      5.130
REMARK  6 active torsions:
REMARK  status: ('A' for Active; 'I' for Inactive)
REMARK    1  A    between atoms: C_2  and  O_3 
REMARK    2  A    between atoms: O_3  and  C_4 
REMARK    3  A    between atoms: C_5  and  O_6 
REMARK    4  A    between atoms: C_10  and  C_11 
REMARK    5  A    between atoms: C_20  and  C_21 
REMARK       I    between atoms: C_21  and  N_22 
REMARK    6  A    between atoms: N_22  and  C_23 
ROOT
HETATM    1  C   UNL     1      41.300 -11.510   0.507  1.00  0.00     0.202 C 
HETATM    2  N   UNL     1      41.456 -10.438  -0.481  1.00  0.00    -0.084 N 
HETATM    3  C   UNL     1      41.052 -10.534  -1.785  1.00  0.00     0.725 A 
HETATM    4  N   UNL     1      41.322  -9.416  -2.408  1.00  0.00    -0.054 NA
HETATM    5  C   UNL     1      41.932  -8.666  -1.435  1.00  0.00     0.275 A 
HETATM    6  N   UNL     1      42.052  -9.252  -0.237  1.00  0.00    -0.149 NA
HETATM    7  N   UNL     1      40.513 -11.687  -2.227  1.00  0.00    -0.192 N 
HETATM    8  C   UNL     1      40.501 -12.855  -1.470  1.00  0.00     0.037 C 
HETATM    9  C   UNL     1      40.178 -14.115  -2.236  1.00  0.00     0.070 C 
HETATM   10  C   UNL     1      40.844 -12.808  -0.157  1.00  0.00     0.062 C 
HETATM   11  H   UNL     1      40.351 -11.775  -3.228  1.00  0.00     0.184 HD
ENDROOT
BRANCH   1  12
HETATM   12  C   UNL     1      40.352 -11.044   1.614  1.00  0.00    -0.024 A 
HETATM   13  C   UNL     1      40.645 -11.364   2.953  1.00  0.00     0.031 A 
HETATM   14  C   UNL     1      39.825 -10.908   3.987  1.00  0.00     0.047 A 
HETATM   15  C   UNL     1      38.704 -10.136   3.690  1.00  0.00     0.116 A 
HETATM   16 BR   UNL     1      40.285 -11.350   5.772  1.00  0.00    -0.048 Br
HETATM   17  C   UNL     1      38.384  -9.815   2.364  1.00  0.00     0.103 A 
HETATM   18  C   UNL     1      39.211 -10.265   1.332  1.00  0.00     0.049 A 
BRANCH  15  19
HETATM   19  O   UNL     1      37.893  -9.672   4.695  1.00  0.00    -0.357 OA
HETATM   20  H   UNL     1      36.988  -9.694   4.331  1.00  0.00     0.218 HD
ENDBRANCH  15  19
BRANCH  17  21
HETATM   21  O   UNL     1      37.253  -9.051   2.216  1.00  0.00    -0.349 OA
BRANCH  21  22
HETATM   22  C   UNL     1      36.861  -8.719   0.885  1.00  0.00     0.171 C 
HETATM   23  C   UNL     1      35.640  -9.552   0.537  1.00  0.00     0.034 C 
ENDBRANCH  21  22
ENDBRANCH  17  21
ENDBRANCH   1  12
BRANCH  10  24
HETATM   24  C   UNL     1      40.951 -14.002   0.727  1.00  0.00     0.256 C 
HETATM   25  N   UNL     1      42.243 -14.306   1.095  1.00  0.00    -0.323 N 
HETATM   26  H   UNL     1      42.981 -13.730   0.713  1.00  0.00     0.169 HD
HETATM   27  O   UNL     1      39.928 -14.612   1.011  1.00  0.00    -0.267 OA
BRANCH  25  28
HETATM   28  C   UNL     1      42.658 -15.304   2.002  1.00  0.00     0.035 A 
HETATM   29  C   UNL     1      42.936 -16.623   1.640  1.00  0.00     0.029 A 
HETATM   30  C   UNL     1      43.313 -17.560   2.607  1.00  0.00     0.002 A 
HETATM   31  C   UNL     1      43.410 -17.189   3.946  1.00  0.00     0.000 A 
HETATM   32  C   UNL     1      43.138 -15.875   4.319  1.00  0.00     0.002 A 
HETATM   33  C   UNL     1      42.769 -14.936   3.351  1.00  0.00     0.029 A 
ENDBRANCH  25  28
ENDBRANCH  10  24
TORSDOF 6
ENDMDL
