MODEL 1
REMARK VINA RESULT:      -9.3      0.000      0.000
REMARK  9 active torsions:
REMARK  status: ('A' for Active; 'I' for Inactive)
REMARK    1  A    between atoms: C_3  and  N_4 
REMARK    2  A    between atoms: N_4  and  C_5 
REMARK    3  A    between atoms: C_7  and  C_8 
REMARK    4  A    between atoms: C_19  and  N_20 
REMARK       I    between atoms: N_20  and  C_21 
REMARK    5  A    between atoms: C_21  and  C_22 
REMARK    6  A    between atoms: C_24  and  N_25 
REMARK       I    between atoms: N_25  and  C_26 
REMARK    7  A    between atoms: C_26  and  C_27 
REMARK    8  A    between atoms: C_28  and  C_29 
REMARK    9  A    between atoms: C_29  and  N_30 
ROOT
HETATM    1  C   UNL     1      42.628 -15.892   1.609  1.00  0.00     0.050 C 
HETATM    2  C   UNL     1      41.834 -14.836   2.334  1.00  0.00    -0.033 A 
HETATM    3  C   UNL     1      40.542 -14.463   1.910  1.00  0.00     0.055 A 
HETATM    4  C   UNL     1      39.880 -13.467   2.639  1.00  0.00     0.033 A 
HETATM    5  C   UNL     1      40.474 -12.827   3.733  1.00  0.00     0.032 A 
HETATM    6  C   UNL     1      41.768 -13.151   4.116  1.00  0.00     0.035 A 
HETATM    7  C   UNL     1      42.434 -14.168   3.422  1.00  0.00     0.038 A 
ENDROOT
BRANCH   6   8
HETATM    8  N   UNL     1      42.479 -12.485   5.140  1.00  0.00    -0.323 N 
HETATM    9  C   UNL     1      43.552 -11.623   4.984  1.00  0.00     0.256 C 
HETATM   10  O   UNL     1      44.018 -11.217   3.926  1.00  0.00    -0.267 OA
HETATM   11  H   UNL     1      42.220 -12.750   6.079  1.00  0.00     0.169 HD
BRANCH   9  12
HETATM   12  C   UNL     1      44.223 -11.190   6.247  1.00  0.00     0.034 A 
HETATM   13  C   UNL     1      43.511 -10.686   7.346  1.00  0.00     0.046 A 
HETATM   14  C   UNL     1      44.181 -10.324   8.519  1.00  0.00     0.035 A 
HETATM   15  C   UNL     1      45.577 -10.435   8.569  1.00  0.00     0.029 A 
HETATM   16  C   UNL     1      46.294 -10.910   7.471  1.00  0.00     0.003 A 
HETATM   17  C   UNL     1      45.619 -11.287   6.313  1.00  0.00     0.017 A 
BRANCH  14  18
HETATM   18  N   UNL     1      43.531  -9.837   9.676  1.00  0.00    -0.324 N 
HETATM   19  C   UNL     1      43.534 -10.413  10.925  1.00  0.00     0.245 C 
HETATM   20  O   UNL     1      44.121 -11.426  11.284  1.00  0.00    -0.268 OA
HETATM   21  H   UNL     1      43.028  -8.968   9.548  1.00  0.00     0.169 HD
BRANCH  19  22
HETATM   22  C   UNL     1      42.722  -9.643  11.913  1.00  0.00     0.072 C 
HETATM   23  C   UNL     1      43.270  -8.557  12.483  1.00  0.00     0.006 C 
BRANCH  23  24
HETATM   24  C   UNL     1      42.585  -7.649  13.446  1.00  0.00     0.261 C 
BRANCH  24  25
HETATM   25  N   UNL     1      41.386  -8.299  14.091  1.00  0.00    -0.076 N 
HETATM   26  H   UNL     1      41.466  -9.309  13.915  1.00  0.00     0.279 HD
HETATM   27  C   UNL     1      41.346  -8.122  15.584  1.00  0.00     0.269 C 
HETATM   28  C   UNL     1      40.102  -7.853  13.450  1.00  0.00     0.269 C 
ENDBRANCH  24  25
ENDBRANCH  23  24
ENDBRANCH  19  22
ENDBRANCH  14  18
ENDBRANCH   9  12
ENDBRANCH   6   8
BRANCH   3  29
HETATM   29  N   UNL     1      39.990 -15.005   0.740  1.00  0.00    -0.188 N 
HETATM   30  H   UNL     1      39.737 -15.979   0.737  1.00  0.00     0.184 HD
BRANCH  29  31
HETATM   31  C   UNL     1      39.815 -14.474  -0.537  1.00  0.00     0.727 A 
HETATM   32  N   UNL     1      40.277 -13.225  -0.715  1.00  0.00    -0.062 NA
HETATM   33  C   UNL     1      40.103 -12.641  -1.926  1.00  0.00     0.089 A 
HETATM   34  C   UNL     1      39.445 -13.290  -2.952  1.00  0.00     0.053 A 
HETATM   35  C   UNL     1      38.998 -14.555  -2.678  1.00  0.00     0.139 A 
HETATM   36  N   UNL     1      39.174 -15.158  -1.493  1.00  0.00    -0.075 NA
BRANCH  33  37
HETATM   37  C   UNL     1      40.643 -11.277  -2.064  1.00  0.00     0.011 A 
HETATM   38  C   UNL     1      40.513 -10.560  -3.257  1.00  0.00     0.130 A 
HETATM   39  N   UNL     1      40.994  -9.310  -3.476  1.00  0.00    -0.272 NA
HETATM   40  C   UNL     1      41.640  -8.722  -2.450  1.00  0.00     0.116 A 
HETATM   41  C   UNL     1      41.822  -9.324  -1.219  1.00  0.00     0.020 A 
HETATM   42  C   UNL     1      41.317 -10.610  -1.029  1.00  0.00     0.017 A 
ENDBRANCH  33  37
ENDBRANCH  29  31
ENDBRANCH   3  29
TORSDOF 9
ENDMDL
MODEL 2
REMARK VINA RESULT:      -9.1      4.028     14.634
REMARK  9 active torsions:
REMARK  status: ('A' for Active; 'I' for Inactive)
REMARK    1  A    between atoms: C_3  and  N_4 
REMARK    2  A    between atoms: N_4  and  C_5 
REMARK    3  A    between atoms: C_7  and  C_8 
REMARK    4  A    between atoms: C_19  and  N_20 
REMARK       I    between atoms: N_20  and  C_21 
REMARK    5  A    between atoms: C_21  and  C_22 
REMARK    6  A    between atoms: C_24  and  N_25 
REMARK       I    between atoms: N_25  and  C_26 
REMARK    7  A    between atoms: C_26  and  C_27 
REMARK    8  A    between atoms: C_28  and  C_29 
REMARK    9  A    between atoms: C_29  and  N_30 
ROOT
HETATM    1  C   UNL     1      39.833 -10.092  13.449  1.00  0.00     0.050 C 
HETATM    2  C   UNL     1      41.150  -9.412  13.181  1.00  0.00    -0.033 A 
HETATM    3  C   UNL     1      41.573  -8.297  13.934  1.00  0.00     0.055 A 
HETATM    4  C   UNL     1      42.809  -7.723  13.610  1.00  0.00     0.033 A 
HETATM    5  C   UNL     1      43.600  -8.204  12.559  1.00  0.00     0.032 A 
HETATM    6  C   UNL     1      43.159  -9.264  11.779  1.00  0.00     0.035 A 
HETATM    7  C   UNL     1      41.942  -9.874  12.108  1.00  0.00     0.038 A 
ENDROOT
BRANCH   6   8
HETATM    8  N   UNL     1      43.842  -9.744  10.639  1.00  0.00    -0.323 N 
HETATM    9  C   UNL     1      43.751  -9.256   9.346  1.00  0.00     0.256 C 
HETATM   10  O   UNL     1      43.128  -8.267   8.979  1.00  0.00    -0.267 OA
HETATM   11  H   UNL     1      44.377 -10.587  10.788  1.00  0.00     0.169 HD
BRANCH   9  12
HETATM   12  C   UNL     1      44.454 -10.058   8.300  1.00  0.00     0.034 A 
HETATM   13  C   UNL     1      43.773 -10.901   7.410  1.00  0.00     0.046 A 
HETATM   14  C   UNL     1      44.472 -11.607   6.426  1.00  0.00     0.035 A 
HETATM   15  C   UNL     1      45.866 -11.491   6.364  1.00  0.00     0.029 A 
HETATM   16  C   UNL     1      46.554 -10.675   7.262  1.00  0.00     0.003 A 
HETATM   17  C   UNL     1      45.850  -9.959   8.227  1.00  0.00     0.017 A 
BRANCH  14  18
HETATM   18  N   UNL     1      43.853 -12.452   5.476  1.00  0.00    -0.324 N 
HETATM   19  C   UNL     1      43.448 -12.107   4.208  1.00  0.00     0.245 C 
HETATM   20  O   UNL     1      43.577 -11.025   3.646  1.00  0.00    -0.268 OA
HETATM   21  H   UNL     1      43.713 -13.407   5.782  1.00  0.00     0.169 HD
BRANCH  19  22
HETATM   22  C   UNL     1      42.807 -13.242   3.482  1.00  0.00     0.072 C 
HETATM   23  C   UNL     1      42.356 -14.286   4.197  1.00  0.00     0.006 C 
BRANCH  23  24
HETATM   24  C   UNL     1      41.649 -15.473   3.640  1.00  0.00     0.261 C 
BRANCH  24  25
HETATM   25  N   UNL     1      42.576 -16.644   3.426  1.00  0.00    -0.076 N 
HETATM   26  H   UNL     1      42.008 -17.495   3.534  1.00  0.00     0.279 HD
HETATM   27  C   UNL     1      43.166 -16.690   2.043  1.00  0.00     0.269 C 
HETATM   28  C   UNL     1      43.645 -16.706   4.482  1.00  0.00     0.269 C 
ENDBRANCH  24  25
ENDBRANCH  23  24
ENDBRANCH  19  22
ENDBRANCH  14  18
ENDBRANCH   9  12
ENDBRANCH   6   8
BRANCH   3  29
HETATM   29  N   UNL     1      40.732  -7.729  14.902  1.00  0.00    -0.188 N 
HETATM   30  H   UNL     1      39.756  -7.620  14.683  1.00  0.00     0.184 HD
BRANCH  29  31
HETATM   31  C   UNL     1      41.003  -7.138  16.135  1.00  0.00     0.727 A 
HETATM   32  N   UNL     1      40.973  -7.964  17.194  1.00  0.00    -0.062 NA
HETATM   33  C   UNL     1      41.192  -7.441  18.425  1.00  0.00     0.089 A 
HETATM   34  C   UNL     1      41.414  -6.090  18.606  1.00  0.00     0.053 A 
HETATM   35  C   UNL     1      41.416  -5.322  17.472  1.00  0.00     0.139 A 
HETATM   36  N   UNL     1      41.218  -5.821  16.244  1.00  0.00    -0.075 NA
BRANCH  33  37
HETATM   37  C   UNL     1      41.161  -8.399  19.545  1.00  0.00     0.011 A 
HETATM   38  C   UNL     1      39.964  -8.982  19.970  1.00  0.00     0.130 A 
HETATM   39  N   UNL     1      39.842  -9.856  21.001  1.00  0.00    -0.272 NA
HETATM   40  C   UNL     1      40.974 -10.187  21.651  1.00  0.00     0.116 A 
HETATM   41  C   UNL     1      42.219  -9.687  21.317  1.00  0.00     0.020 A 
HETATM   42  C   UNL     1      42.308  -8.788  20.254  1.00  0.00     0.017 A 
ENDBRANCH  33  37
ENDBRANCH  29  31
ENDBRANCH   3  29
TORSDOF 9
ENDMDL
MODEL 3
REMARK VINA RESULT:      -9.0      4.780      7.684
REMARK  9 active torsions:
REMARK  status: ('A' for Active; 'I' for Inactive)
REMARK    1  A    between atoms: C_3  and  N_4 
REMARK    2  A    between atoms: N_4  and  C_5 
REMARK    3  A    between atoms: C_7  and  C_8 
REMARK    4  A    between atoms: C_19  and  N_20 
REMARK       I    between atoms: N_20  and  C_21 
REMARK    5  A    between atoms: C_21  and  C_22 
REMARK    6  A    between atoms: C_24  and  N_25 
REMARK       I    between atoms: N_25  and  C_26 
REMARK    7  A    between atoms: C_26  and  C_27 
REMARK    8  A    between atoms: C_28  and  C_29 
REMARK    9  A    between atoms: C_29  and  N_30 
ROOT
HETATM    1  C   UNL     1      41.174 -10.471   5.501  1.00  0.00     0.050 C 
HETATM    2  C   UNL     1      42.239 -10.615   6.556  1.00  0.00    -0.033 A 
HETATM    3  C   UNL     1      43.135 -11.703   6.557  1.00  0.00     0.055 A 
HETATM    4  C   UNL     1      44.090 -11.760   7.582  1.00  0.00     0.033 A 
HETATM    5  C   UNL     1      44.149 -10.798   8.598  1.00  0.00     0.032 A 
HETATM    6  C   UNL     1      43.230  -9.758   8.631  1.00  0.00     0.035 A 
HETATM    7  C   UNL     1      42.290  -9.664   7.597  1.00  0.00     0.038 A 
ENDROOT
BRANCH   6   8
HETATM    8  N   UNL     1      43.153  -8.806   9.673  1.00  0.00    -0.323 N 
HETATM    9  C   UNL     1      42.981  -9.060  11.023  1.00  0.00     0.256 C 
HETATM   10  O   UNL     1      42.954 -10.159  11.564  1.00  0.00    -0.267 OA
HETATM   11  H   UNL     1      43.131  -7.844   9.367  1.00  0.00     0.169 HD
BRANCH   9  12
HETATM   12  C   UNL     1      42.764  -7.860  11.886  1.00  0.00     0.034 A 
HETATM   13  C   UNL     1      42.851  -7.910  13.285  1.00  0.00     0.046 A 
HETATM   14  C   UNL     1      42.671  -6.753  14.049  1.00  0.00     0.035 A 
HETATM   15  C   UNL     1      42.367  -5.549  13.401  1.00  0.00     0.029 A 
HETATM   16  C   UNL     1      42.254  -5.495  12.012  1.00  0.00     0.003 A 
HETATM   17  C   UNL     1      42.453  -6.648  11.256  1.00  0.00     0.017 A 
BRANCH  14  18
HETATM   18  N   UNL     1      42.771  -6.719  15.459  1.00  0.00    -0.324 N 
HETATM   19  C   UNL     1      41.768  -6.990  16.361  1.00  0.00     0.245 C 
HETATM   20  O   UNL     1      40.619  -7.345  16.124  1.00  0.00    -0.268 OA
HETATM   21  H   UNL     1      43.686  -6.478  15.816  1.00  0.00     0.169 HD
BRANCH  19  22
HETATM   22  C   UNL     1      42.214  -6.836  17.777  1.00  0.00     0.072 C 
HETATM   23  C   UNL     1      41.303  -6.980  18.754  1.00  0.00     0.006 C 
BRANCH  23  24
HETATM   24  C   UNL     1      41.587  -6.910  20.215  1.00  0.00     0.261 C 
BRANCH  24  25
HETATM   25  N   UNL     1      41.591  -8.271  20.864  1.00  0.00    -0.076 N 
HETATM   26  H   UNL     1      41.284  -8.137  21.837  1.00  0.00     0.279 HD
HETATM   27  C   UNL     1      40.622  -9.233  20.234  1.00  0.00     0.269 C 
HETATM   28  C   UNL     1      42.977  -8.850  20.930  1.00  0.00     0.269 C 
ENDBRANCH  24  25
ENDBRANCH  23  24
ENDBRANCH  19  22
ENDBRANCH  14  18
ENDBRANCH   9  12
ENDBRANCH   6   8
BRANCH   3  29
HETATM   29  N   UNL     1      43.003 -12.739   5.621  1.00  0.00    -0.188 N 
HETATM   30  H   UNL     1      43.400 -12.609   4.705  1.00  0.00     0.184 HD
BRANCH  29  31
HETATM   31  C   UNL     1      42.292 -13.937   5.656  1.00  0.00     0.727 A 
HETATM   32  N   UNL     1      42.839 -14.958   4.976  1.00  0.00    -0.062 NA
HETATM   33  C   UNL     1      42.175 -16.139   4.942  1.00  0.00     0.089 A 
HETATM   34  C   UNL     1      40.952 -16.297   5.564  1.00  0.00     0.053 A 
HETATM   35  C   UNL     1      40.465 -15.201   6.225  1.00  0.00     0.139 A 
HETATM   36  N   UNL     1      41.113 -14.028   6.285  1.00  0.00    -0.075 NA
BRANCH  33  37
HETATM   37  C   UNL     1      42.832 -17.224   4.192  1.00  0.00     0.011 A 
HETATM   38  C   UNL     1      43.783 -18.053   4.793  1.00  0.00     0.130 A 
HETATM   39  N   UNL     1      44.448 -19.061   4.173  1.00  0.00    -0.272 NA
HETATM   40  C   UNL     1      44.150 -19.274   2.876  1.00  0.00     0.116 A 
HETATM   41  C   UNL     1      43.220 -18.529   2.175  1.00  0.00     0.020 A 
HETATM   42  C   UNL     1      42.557 -17.498   2.843  1.00  0.00     0.017 A 
ENDBRANCH  33  37
ENDBRANCH  29  31
ENDBRANCH   3  29
TORSDOF 9
ENDMDL
MODEL 4
REMARK VINA RESULT:      -8.8      3.463     14.315
REMARK  9 active torsions:
REMARK  status: ('A' for Active; 'I' for Inactive)
REMARK    1  A    between atoms: C_3  and  N_4 
REMARK    2  A    between atoms: N_4  and  C_5 
REMARK    3  A    between atoms: C_7  and  C_8 
REMARK    4  A    between atoms: C_19  and  N_20 
REMARK       I    between atoms: N_20  and  C_21 
REMARK    5  A    between atoms: C_21  and  C_22 
REMARK    6  A    between atoms: C_24  and  N_25 
REMARK       I    between atoms: N_25  and  C_26 
REMARK    7  A    between atoms: C_26  and  C_27 
REMARK    8  A    between atoms: C_28  and  C_29 
REMARK    9  A    between atoms: C_29  and  N_30 
ROOT
HETATM    1  C   UNL     1      40.055  -6.150  11.775  1.00  0.00     0.050 C 
HETATM    2  C   UNL     1      40.640  -7.493  12.127  1.00  0.00    -0.033 A 
HETATM    3  C   UNL     1      40.551  -8.018  13.432  1.00  0.00     0.055 A 
HETATM    4  C   UNL     1      41.130  -9.272  13.671  1.00  0.00     0.033 A 
HETATM    5  C   UNL     1      41.807  -9.981  12.671  1.00  0.00     0.032 A 
HETATM    6  C   UNL     1      41.946  -9.440  11.401  1.00  0.00     0.035 A 
HETATM    7  C   UNL     1      41.345  -8.204  11.132  1.00  0.00     0.038 A 
ENDROOT
BRANCH   6   8
HETATM    8  N   UNL     1      42.699 -10.038  10.366  1.00  0.00    -0.323 N 
HETATM    9  C   UNL     1      44.059  -9.903  10.138  1.00  0.00     0.256 C 
HETATM   10  O   UNL     1      44.864  -9.310  10.847  1.00  0.00    -0.267 OA
HETATM   11  H   UNL     1      42.154 -10.539   9.679  1.00  0.00     0.169 HD
BRANCH   9  12
HETATM   12  C   UNL     1      44.568 -10.510   8.872  1.00  0.00     0.034 A 
HETATM   13  C   UNL     1      43.809 -11.411   8.110  1.00  0.00     0.046 A 
HETATM   14  C   UNL     1      44.316 -11.930   6.914  1.00  0.00     0.035 A 
HETATM   15  C   UNL     1      45.606 -11.567   6.506  1.00  0.00     0.029 A 
HETATM   16  C   UNL     1      46.377 -10.692   7.272  1.00  0.00     0.003 A 
HETATM   17  C   UNL     1      45.858 -10.165   8.452  1.00  0.00     0.017 A 
BRANCH  14  18
HETATM   18  N   UNL     1      43.602 -12.818   6.078  1.00  0.00    -0.324 N 
HETATM   19  C   UNL     1      43.129 -14.065   6.416  1.00  0.00     0.245 C 
HETATM   20  O   UNL     1      43.201 -14.627   7.502  1.00  0.00    -0.268 OA
HETATM   21  H   UNL     1      43.423 -12.474   5.143  1.00  0.00     0.169 HD
BRANCH  19  22
HETATM   22  C   UNL     1      42.438 -14.743   5.280  1.00  0.00     0.072 C 
HETATM   23  C   UNL     1      42.443 -14.144   4.078  1.00  0.00     0.006 C 
BRANCH  23  24
HETATM   24  C   UNL     1      41.848 -14.703   2.832  1.00  0.00     0.261 C 
BRANCH  24  25
HETATM   25  N   UNL     1      40.344 -14.790   2.905  1.00  0.00    -0.076 N 
HETATM   26  H   UNL     1      40.114 -15.181   3.828  1.00  0.00     0.279 HD
HETATM   27  C   UNL     1      39.668 -13.449   2.823  1.00  0.00     0.269 C 
HETATM   28  C   UNL     1      39.793 -15.747   1.886  1.00  0.00     0.269 C 
ENDBRANCH  24  25
ENDBRANCH  23  24
ENDBRANCH  19  22
ENDBRANCH  14  18
ENDBRANCH   9  12
ENDBRANCH   6   8
BRANCH   3  29
HETATM   29  N   UNL     1      39.990  -7.261  14.470  1.00  0.00    -0.188 N 
HETATM   30  H   UNL     1      39.048  -6.922  14.360  1.00  0.00     0.184 HD
BRANCH  29  31
HETATM   31  C   UNL     1      40.536  -6.747  15.646  1.00  0.00     0.727 A 
HETATM   32  N   UNL     1      40.446  -7.542  16.724  1.00  0.00    -0.062 NA
HETATM   33  C   UNL     1      40.926  -7.082  17.905  1.00  0.00     0.089 A 
HETATM   34  C   UNL     1      41.473  -5.819  18.018  1.00  0.00     0.053 A 
HETATM   35  C   UNL     1      41.515  -5.074  16.870  1.00  0.00     0.139 A 
HETATM   36  N   UNL     1      41.060  -5.515  15.689  1.00  0.00    -0.075 NA
BRANCH  33  37
HETATM   37  C   UNL     1      40.811  -8.005  19.049  1.00  0.00     0.011 A 
HETATM   38  C   UNL     1      39.566  -8.451  19.501  1.00  0.00     0.130 A 
HETATM   39  N   UNL     1      39.368  -9.283  20.555  1.00  0.00    -0.272 NA
HETATM   40  C   UNL     1      40.469  -9.714  21.201  1.00  0.00     0.116 A 
HETATM   41  C   UNL     1      41.755  -9.352  20.841  1.00  0.00     0.020 A 
HETATM   42  C   UNL     1      41.921  -8.492  19.755  1.00  0.00     0.017 A 
ENDBRANCH  33  37
ENDBRANCH  29  31
ENDBRANCH   3  29
TORSDOF 9
ENDMDL
MODEL 5
REMARK VINA RESULT:      -8.7      2.924     14.716
REMARK  9 active torsions:
REMARK  status: ('A' for Active; 'I' for Inactive)
REMARK    1  A    between atoms: C_3  and  N_4 
REMARK    2  A    between atoms: N_4  and  C_5 
REMARK    3  A    between atoms: C_7  and  C_8 
REMARK    4  A    between atoms: C_19  and  N_20 
REMARK       I    between atoms: N_20  and  C_21 
REMARK    5  A    between atoms: C_21  and  C_22 
REMARK    6  A    between atoms: C_24  and  N_25 
REMARK       I    between atoms: N_25  and  C_26 
REMARK    7  A    between atoms: C_26  and  C_27 
REMARK    8  A    between atoms: C_28  and  C_29 
REMARK    9  A    between atoms: C_29  and  N_30 
ROOT
HETATM    1  C   UNL     1      43.457  -7.084  14.191  1.00  0.00     0.050 C 
HETATM    2  C   UNL     1      42.649  -8.151  13.498  1.00  0.00    -0.033 A 
HETATM    3  C   UNL     1      41.529  -8.745  14.114  1.00  0.00     0.055 A 
HETATM    4  C   UNL     1      40.841  -9.735  13.398  1.00  0.00     0.033 A 
HETATM    5  C   UNL     1      41.254 -10.157  12.129  1.00  0.00     0.032 A 
HETATM    6  C   UNL     1      42.390  -9.614  11.545  1.00  0.00     0.035 A 
HETATM    7  C   UNL     1      43.072  -8.600  12.229  1.00  0.00     0.038 A 
ENDROOT
BRANCH   6   8
HETATM    8  N   UNL     1      42.935 -10.054  10.318  1.00  0.00    -0.323 N 
HETATM    9  C   UNL     1      44.172 -10.643  10.117  1.00  0.00     0.256 C 
HETATM   10  O   UNL     1      44.977 -10.966  10.982  1.00  0.00    -0.267 OA
HETATM   11  H   UNL     1      42.386  -9.822   9.503  1.00  0.00     0.169 HD
BRANCH   9  12
HETATM   12  C   UNL     1      44.565 -10.856   8.692  1.00  0.00     0.034 A 
HETATM   13  C   UNL     1      43.656 -11.288   7.715  1.00  0.00     0.046 A 
HETATM   14  C   UNL     1      44.063 -11.443   6.386  1.00  0.00     0.035 A 
HETATM   15  C   UNL     1      45.400 -11.197   6.050  1.00  0.00     0.029 A 
HETATM   16  C   UNL     1      46.317 -10.791   7.020  1.00  0.00     0.003 A 
HETATM   17  C   UNL     1      45.900 -10.621   8.338  1.00  0.00     0.017 A 
BRANCH  14  18
HETATM   18  N   UNL     1      43.200 -11.847   5.342  1.00  0.00    -0.324 N 
HETATM   19  C   UNL     1      42.869 -13.138   5.001  1.00  0.00     0.245 C 
HETATM   20  O   UNL     1      43.224 -14.174   5.549  1.00  0.00    -0.268 OA
HETATM   21  H   UNL     1      42.787 -11.089   4.813  1.00  0.00     0.169 HD
BRANCH  19  22
HETATM   22  C   UNL     1      41.947 -13.202   3.828  1.00  0.00     0.072 C 
HETATM   23  C   UNL     1      42.476 -13.396   2.608  1.00  0.00     0.006 C 
BRANCH  23  24
HETATM   24  C   UNL     1      41.701 -13.536   1.344  1.00  0.00     0.261 C 
BRANCH  24  25
HETATM   25  N   UNL     1      41.586 -14.972   0.899  1.00  0.00    -0.076 N 
HETATM   26  H   UNL     1      41.728 -14.979  -0.120  1.00  0.00     0.279 HD
HETATM   27  C   UNL     1      42.644 -15.864   1.489  1.00  0.00     0.269 C 
HETATM   28  C   UNL     1      40.207 -15.521   1.141  1.00  0.00     0.269 C 
ENDBRANCH  24  25
ENDBRANCH  23  24
ENDBRANCH  19  22
ENDBRANCH  14  18
ENDBRANCH   9  12
ENDBRANCH   6   8
BRANCH   3  29
HETATM   29  N   UNL     1      41.184  -8.423  15.434  1.00  0.00    -0.188 N 
HETATM   30  H   UNL     1      41.274  -9.135  16.140  1.00  0.00     0.184 HD
BRANCH  29  31
HETATM   31  C   UNL     1      40.596  -7.288  15.990  1.00  0.00     0.727 A 
HETATM   32  N   UNL     1      40.818  -7.101  17.301  1.00  0.00    -0.062 NA
HETATM   33  C   UNL     1      40.241  -6.034  17.906  1.00  0.00     0.089 A 
HETATM   34  C   UNL     1      39.420  -5.167  17.211  1.00  0.00     0.053 A 
HETATM   35  C   UNL     1      39.241  -5.441  15.882  1.00  0.00     0.139 A 
HETATM   36  N   UNL     1      39.815  -6.481  15.260  1.00  0.00    -0.075 NA
BRANCH  33  37
HETATM   37  C   UNL     1      40.533  -5.875  19.342  1.00  0.00     0.011 A 
HETATM   38  C   UNL     1      40.816  -6.976  20.154  1.00  0.00     0.130 A 
HETATM   39  N   UNL     1      41.077  -6.922  21.485  1.00  0.00    -0.272 NA
HETATM   40  C   UNL     1      41.068  -5.701  22.054  1.00  0.00     0.116 A 
HETATM   41  C   UNL     1      40.814  -4.536  21.354  1.00  0.00     0.020 A 
HETATM   42  C   UNL     1      40.546  -4.628  19.988  1.00  0.00     0.017 A 
ENDBRANCH  33  37
ENDBRANCH  29  31
ENDBRANCH   3  29
TORSDOF 9
ENDMDL
MODEL 6
REMARK VINA RESULT:      -8.7      5.010     14.399
REMARK  9 active torsions:
REMARK  status: ('A' for Active; 'I' for Inactive)
REMARK    1  A    between atoms: C_3  and  N_4 
REMARK    2  A    between atoms: N_4  and  C_5 
REMARK    3  A    between atoms: C_7  and  C_8 
REMARK    4  A    between atoms: C_19  and  N_20 
REMARK       I    between atoms: N_20  and  C_21 
REMARK    5  A    between atoms: C_21  and  C_22 
REMARK    6  A    between atoms: C_24  and  N_25 
REMARK       I    between atoms: N_25  and  C_26 
REMARK    7  A    between atoms: C_26  and  C_27 
REMARK    8  A    between atoms: C_28  and  C_29 
REMARK    9  A    between atoms: C_29  and  N_30 
ROOT
HETATM    1  C   UNL     1      41.843  -4.584  11.580  1.00  0.00     0.050 C 
HETATM    2  C   UNL     1      42.390  -5.946  11.919  1.00  0.00    -0.033 A 
HETATM    3  C   UNL     1      42.527  -6.375  13.255  1.00  0.00     0.055 A 
HETATM    4  C   UNL     1      43.051  -7.655  13.478  1.00  0.00     0.033 A 
HETATM    5  C   UNL     1      43.461  -8.484  12.427  1.00  0.00     0.032 A 
HETATM    6  C   UNL     1      43.381  -8.042  11.113  1.00  0.00     0.035 A 
HETATM    7  C   UNL     1      42.828  -6.778  10.867  1.00  0.00     0.038 A 
ENDROOT
BRANCH   6   8
HETATM    8  N   UNL     1      43.867  -8.769  10.004  1.00  0.00    -0.323 N 
HETATM    9  C   UNL     1      43.114  -9.422   9.041  1.00  0.00     0.256 C 
HETATM   10  O   UNL     1      41.894  -9.410   8.934  1.00  0.00    -0.267 OA
HETATM   11  H   UNL     1      44.869  -8.889   9.980  1.00  0.00     0.169 HD
BRANCH   9  12
HETATM   12  C   UNL     1      43.886 -10.256   8.071  1.00  0.00     0.034 A 
HETATM   13  C   UNL     1      43.288 -11.263   7.299  1.00  0.00     0.046 A 
HETATM   14  C   UNL     1      44.046 -11.996   6.381  1.00  0.00     0.035 A 
HETATM   15  C   UNL     1      45.418 -11.738   6.268  1.00  0.00     0.029 A 
HETATM   16  C   UNL     1      46.025 -10.755   7.050  1.00  0.00     0.003 A 
HETATM   17  C   UNL     1      45.260 -10.015   7.949  1.00  0.00     0.017 A 
BRANCH  14  18
HETATM   18  N   UNL     1      43.510 -13.006   5.549  1.00  0.00    -0.324 N 
HETATM   19  C   UNL     1      43.035 -14.234   5.947  1.00  0.00     0.245 C 
HETATM   20  O   UNL     1      42.950 -14.673   7.087  1.00  0.00    -0.268 OA
HETATM   21  H   UNL     1      43.473 -12.772   4.565  1.00  0.00     0.169 HD
BRANCH  19  22
HETATM   22  C   UNL     1      42.563 -15.065   4.800  1.00  0.00     0.072 C 
HETATM   23  C   UNL     1      43.323 -16.099   4.404  1.00  0.00     0.006 C 
BRANCH  23  24
HETATM   24  C   UNL     1      42.978 -17.056   3.315  1.00  0.00     0.261 C 
BRANCH  24  25
HETATM   25  N   UNL     1      43.338 -18.478   3.667  1.00  0.00    -0.076 N 
HETATM   26  H   UNL     1      42.453 -18.978   3.824  1.00  0.00     0.279 HD
HETATM   27  C   UNL     1      44.053 -19.201   2.559  1.00  0.00     0.269 C 
HETATM   28  C   UNL     1      44.105 -18.553   4.958  1.00  0.00     0.269 C 
ENDBRANCH  24  25
ENDBRANCH  23  24
ENDBRANCH  19  22
ENDBRANCH  14  18
ENDBRANCH   9  12
ENDBRANCH   6   8
BRANCH   3  29
HETATM   29  N   UNL     1      42.241  -5.505  14.318  1.00  0.00    -0.188 N 
HETATM   30  H   UNL     1      42.909  -4.787  14.542  1.00  0.00     0.184 HD
BRANCH  29  31
HETATM   31  C   UNL     1      41.216  -5.500  15.263  1.00  0.00     0.727 A 
HETATM   32  N   UNL     1      41.365  -6.356  16.287  1.00  0.00    -0.062 NA
HETATM   33  C   UNL     1      40.384  -6.422  17.219  1.00  0.00     0.089 A 
HETATM   34  C   UNL     1      39.240  -5.654  17.118  1.00  0.00     0.053 A 
HETATM   35  C   UNL     1      39.168  -4.818  16.037  1.00  0.00     0.139 A 
HETATM   36  N   UNL     1      40.135  -4.724  15.112  1.00  0.00    -0.075 NA
BRANCH  33  37
HETATM   37  C   UNL     1      40.611  -7.370  18.325  1.00  0.00     0.011 A 
HETATM   38  C   UNL     1      41.897  -7.638  18.801  1.00  0.00     0.130 A 
HETATM   39  N   UNL     1      42.197  -8.507  19.799  1.00  0.00    -0.272 NA
HETATM   40  C   UNL     1      41.161  -9.149  20.375  1.00  0.00     0.116 A 
HETATM   41  C   UNL     1      39.844  -8.959  20.000  1.00  0.00     0.020 A 
HETATM   42  C   UNL     1      39.572  -8.061  18.968  1.00  0.00     0.017 A 
ENDBRANCH  33  37
ENDBRANCH  29  31
ENDBRANCH   3  29
TORSDOF 9
ENDMDL
MODEL 7
REMARK VINA RESULT:      -8.6      2.674     12.253
REMARK  9 active torsions:
REMARK  status: ('A' for Active; 'I' for Inactive)
REMARK    1  A    between atoms: C_3  and  N_4 
REMARK    2  A    between atoms: N_4  and  C_5 
REMARK    3  A    between atoms: C_7  and  C_8 
REMARK    4  A    between atoms: C_19  and  N_20 
REMARK       I    between atoms: N_20  and  C_21 
REMARK    5  A    between atoms: C_21  and  C_22 
REMARK    6  A    between atoms: C_24  and  N_25 
REMARK       I    between atoms: N_25  and  C_26 
REMARK    7  A    between atoms: C_26  and  C_27 
REMARK    8  A    between atoms: C_28  and  C_29 
REMARK    9  A    between atoms: C_29  and  N_30 
ROOT
HETATM    1  C   UNL     1      43.103 -14.943   5.854  1.00  0.00     0.050 C 
HETATM    2  C   UNL     1      43.145 -13.684   5.028  1.00  0.00    -0.033 A 
HETATM    3  C   UNL     1      43.730 -12.498   5.518  1.00  0.00     0.055 A 
HETATM    4  C   UNL     1      43.717 -11.373   4.684  1.00  0.00     0.033 A 
HETATM    5  C   UNL     1      43.121 -11.393   3.417  1.00  0.00     0.032 A 
HETATM    6  C   UNL     1      42.493 -12.541   2.956  1.00  0.00     0.035 A 
HETATM    7  C   UNL     1      42.525 -13.688   3.761  1.00  0.00     0.038 A 
ENDROOT
BRANCH   6   8
HETATM    8  N   UNL     1      41.780 -12.618   1.739  1.00  0.00    -0.323 N 
HETATM    9  C   UNL     1      40.690 -13.427   1.460  1.00  0.00     0.256 C 
HETATM   10  O   UNL     1      40.099 -14.155   2.248  1.00  0.00    -0.267 OA
HETATM   11  H   UNL     1      42.179 -12.086   0.979  1.00  0.00     0.169 HD
BRANCH   9  12
HETATM   12  C   UNL     1      40.233 -13.431   0.038  1.00  0.00     0.034 A 
HETATM   13  C   UNL     1      40.279 -12.287  -0.773  1.00  0.00     0.046 A 
HETATM   14  C   UNL     1      39.870 -12.348  -2.109  1.00  0.00     0.035 A 
HETATM   15  C   UNL     1      39.378 -13.557  -2.617  1.00  0.00     0.029 A 
HETATM   16  C   UNL     1      39.305 -14.692  -1.810  1.00  0.00     0.003 A 
HETATM   17  C   UNL     1      39.733 -14.629  -0.486  1.00  0.00     0.017 A 
BRANCH  14  18
HETATM   18  N   UNL     1      39.914 -11.247  -2.994  1.00  0.00    -0.324 N 
HETATM   19  C   UNL     1      38.989 -10.232  -3.092  1.00  0.00     0.245 C 
HETATM   20  O   UNL     1      37.981 -10.067  -2.416  1.00  0.00    -0.268 OA
HETATM   21  H   UNL     1      40.723 -11.219  -3.601  1.00  0.00     0.169 HD
BRANCH  19  22
HETATM   22  C   UNL     1      39.336  -9.242  -4.153  1.00  0.00     0.072 C 
HETATM   23  C   UNL     1      40.612  -8.832  -4.255  1.00  0.00     0.006 C 
BRANCH  23  24
HETATM   24  C   UNL     1      41.137  -7.892  -5.284  1.00  0.00     0.261 C 
BRANCH  24  25
HETATM   25  N   UNL     1      42.540  -7.433  -4.977  1.00  0.00    -0.076 N 
HETATM   26  H   UNL     1      43.166  -8.216  -5.210  1.00  0.00     0.279 HD
HETATM   27  C   UNL     1      42.980  -6.265  -5.816  1.00  0.00     0.269 C 
HETATM   28  C   UNL     1      42.727  -7.158  -3.511  1.00  0.00     0.269 C 
ENDBRANCH  24  25
ENDBRANCH  23  24
ENDBRANCH  19  22
ENDBRANCH  14  18
ENDBRANCH   9  12
ENDBRANCH   6   8
BRANCH   3  29
HETATM   29  N   UNL     1      44.214 -12.431   6.832  1.00  0.00    -0.188 N 
HETATM   30  H   UNL     1      44.064 -13.220   7.439  1.00  0.00     0.184 HD
BRANCH  29  31
HETATM   31  C   UNL     1      44.792 -11.389   7.557  1.00  0.00     0.727 A 
HETATM   32  N   UNL     1      44.174 -11.068   8.706  1.00  0.00    -0.062 NA
HETATM   33  C   UNL     1      44.668 -10.039   9.436  1.00  0.00     0.089 A 
HETATM   34  C   UNL     1      45.762  -9.311   9.010  1.00  0.00     0.053 A 
HETATM   35  C   UNL     1      46.321  -9.702   7.823  1.00  0.00     0.139 A 
HETATM   36  N   UNL     1      45.859 -10.727   7.093  1.00  0.00    -0.075 NA
BRANCH  33  37
HETATM   37  C   UNL     1      43.956  -9.743  10.693  1.00  0.00     0.011 A 
HETATM   38  C   UNL     1      43.508 -10.765  11.533  1.00  0.00     0.130 A 
HETATM   39  N   UNL     1      42.830 -10.584  12.695  1.00  0.00    -0.272 NA
HETATM   40  C   UNL     1      42.586  -9.310  13.060  1.00  0.00     0.116 A 
HETATM   41  C   UNL     1      42.989  -8.214  12.319  1.00  0.00     0.020 A 
HETATM   42  C   UNL     1      43.680  -8.438  11.128  1.00  0.00     0.017 A 
ENDBRANCH  33  37
ENDBRANCH  29  31
ENDBRANCH   3  29
TORSDOF 9
ENDMDL
MODEL 8
REMARK VINA RESULT:      -8.6      3.799      6.900
REMARK  9 active torsions:
REMARK  status: ('A' for Active; 'I' for Inactive)
REMARK    1  A    between atoms: C_3  and  N_4 
REMARK    2  A    between atoms: N_4  and  C_5 
REMARK    3  A    between atoms: C_7  and  C_8 
REMARK    4  A    between atoms: C_19  and  N_20 
REMARK       I    between atoms: N_20  and  C_21 
REMARK    5  A    between atoms: C_21  and  C_22 
REMARK    6  A    between atoms: C_24  and  N_25 
REMARK       I    between atoms: N_25  and  C_26 
REMARK    7  A    between atoms: C_26  and  C_27 
REMARK    8  A    between atoms: C_28  and  C_29 
REMARK    9  A    between atoms: C_29  and  N_30 
ROOT
HETATM    1  C   UNL     1      45.040 -11.980   6.722  1.00  0.00     0.050 C 
HETATM    2  C   UNL     1      43.714 -11.265   6.758  1.00  0.00    -0.033 A 
HETATM    3  C   UNL     1      42.741 -11.464   5.758  1.00  0.00     0.055 A 
HETATM    4  C   UNL     1      41.539 -10.752   5.868  1.00  0.00     0.033 A 
HETATM    5  C   UNL     1      41.305  -9.845   6.909  1.00  0.00     0.032 A 
HETATM    6  C   UNL     1      42.284  -9.604   7.862  1.00  0.00     0.035 A 
HETATM    7  C   UNL     1      43.479 -10.331   7.790  1.00  0.00     0.038 A 
ENDROOT
BRANCH   6   8
HETATM    8  N   UNL     1      42.171  -8.634   8.883  1.00  0.00    -0.323 N 
HETATM    9  C   UNL     1      42.988  -7.532   9.080  1.00  0.00     0.256 C 
HETATM   10  O   UNL     1      43.899  -7.157   8.352  1.00  0.00    -0.267 OA
HETATM   11  H   UNL     1      41.472  -8.834   9.584  1.00  0.00     0.169 HD
BRANCH   9  12
HETATM   12  C   UNL     1      42.745  -6.763  10.337  1.00  0.00     0.034 A 
HETATM   13  C   UNL     1      42.675  -7.376  11.596  1.00  0.00     0.046 A 
HETATM   14  C   UNL     1      42.478  -6.610  12.749  1.00  0.00     0.035 A 
HETATM   15  C   UNL     1      42.314  -5.224  12.627  1.00  0.00     0.029 A 
HETATM   16  C   UNL     1      42.357  -4.609  11.375  1.00  0.00     0.003 A 
HETATM   17  C   UNL     1      42.573  -5.377  10.233  1.00  0.00     0.017 A 
BRANCH  14  18
HETATM   18  N   UNL     1      42.425  -7.152  14.054  1.00  0.00    -0.324 N 
HETATM   19  C   UNL     1      41.299  -7.344  14.819  1.00  0.00     0.245 C 
HETATM   20  O   UNL     1      40.134  -7.121  14.512  1.00  0.00    -0.268 OA
HETATM   21  H   UNL     1      43.320  -7.429  14.437  1.00  0.00     0.169 HD
BRANCH  19  22
HETATM   22  C   UNL     1      41.609  -7.918  16.162  1.00  0.00     0.072 C 
HETATM   23  C   UNL     1      41.046  -7.355  17.244  1.00  0.00     0.006 C 
BRANCH  23  24
HETATM   24  C   UNL     1      41.207  -7.831  18.647  1.00  0.00     0.261 C 
BRANCH  24  25
HETATM   25  N   UNL     1      40.081  -7.374  19.540  1.00  0.00    -0.076 N 
HETATM   26  H   UNL     1      39.415  -6.867  18.941  1.00  0.00     0.279 HD
HETATM   27  C   UNL     1      39.321  -8.510  20.166  1.00  0.00     0.269 C 
HETATM   28  C   UNL     1      40.555  -6.393  20.575  1.00  0.00     0.269 C 
ENDBRANCH  24  25
ENDBRANCH  23  24
ENDBRANCH  19  22
ENDBRANCH  14  18
ENDBRANCH   9  12
ENDBRANCH   6   8
BRANCH   3  29
HETATM   29  N   UNL     1      43.016 -12.269   4.644  1.00  0.00    -0.188 N 
HETATM   30  H   UNL     1      43.833 -12.063   4.093  1.00  0.00     0.184 HD
BRANCH  29  31
HETATM   31  C   UNL     1      42.286 -13.287   4.031  1.00  0.00     0.727 A 
HETATM   32  N   UNL     1      42.852 -14.505   4.058  1.00  0.00    -0.062 NA
HETATM   33  C   UNL     1      42.208 -15.528   3.446  1.00  0.00     0.089 A 
HETATM   34  C   UNL     1      41.011 -15.334   2.784  1.00  0.00     0.053 A 
HETATM   35  C   UNL     1      40.513 -14.059   2.798  1.00  0.00     0.139 A 
HETATM   36  N   UNL     1      41.126 -13.035   3.411  1.00  0.00    -0.075 NA
BRANCH  33  37
HETATM   37  C   UNL     1      42.871 -16.842   3.521  1.00  0.00     0.011 A 
HETATM   38  C   UNL     1      43.575 -17.238   4.661  1.00  0.00     0.130 A 
HETATM   39  N   UNL     1      44.229 -18.418   4.808  1.00  0.00    -0.272 NA
HETATM   40  C   UNL     1      44.179 -19.271   3.765  1.00  0.00     0.116 A 
HETATM   41  C   UNL     1      43.506 -18.998   2.589  1.00  0.00     0.020 A 
HETATM   42  C   UNL     1      42.847 -17.774   2.471  1.00  0.00     0.017 A 
ENDBRANCH  33  37
ENDBRANCH  29  31
ENDBRANCH   3  29
TORSDOF 9
ENDMDL
MODEL 9
REMARK VINA RESULT:      -8.3      2.624     14.251
REMARK  9 active torsions:
REMARK  status: ('A' for Active; 'I' for Inactive)
REMARK    1  A    between atoms: C_3  and  N_4 
REMARK    2  A    between atoms: N_4  and  C_5 
REMARK    3  A    between atoms: C_7  and  C_8 
REMARK    4  A    between atoms: C_19  and  N_20 
REMARK       I    between atoms: N_20  and  C_21 
REMARK    5  A    between atoms: C_21  and  C_22 
REMARK    6  A    between atoms: C_24  and  N_25 
REMARK       I    between atoms: N_25  and  C_26 
REMARK    7  A    between atoms: C_26  and  C_27 
REMARK    8  A    between atoms: C_28  and  C_29 
REMARK    9  A    between atoms: C_29  and  N_30 
ROOT
HETATM    1  C   UNL     1      41.971  -4.771  11.596  1.00  0.00     0.050 C 
HETATM    2  C   UNL     1      42.467  -6.171  11.850  1.00  0.00    -0.033 A 
HETATM    3  C   UNL     1      42.575  -6.690  13.157  1.00  0.00     0.055 A 
HETATM    4  C   UNL     1      43.052  -8.000  13.300  1.00  0.00     0.033 A 
HETATM    5  C   UNL     1      43.444  -8.773  12.200  1.00  0.00     0.032 A 
HETATM    6  C   UNL     1      43.393  -8.244  10.918  1.00  0.00     0.035 A 
HETATM    7  C   UNL     1      42.887  -6.949  10.750  1.00  0.00     0.038 A 
ENDROOT
BRANCH   6   8
HETATM    8  N   UNL     1      43.865  -8.914   9.768  1.00  0.00    -0.323 N 
HETATM    9  C   UNL     1      43.101  -9.488   8.765  1.00  0.00     0.256 C 
HETATM   10  O   UNL     1      41.881  -9.439   8.655  1.00  0.00    -0.267 OA
HETATM   11  H   UNL     1      44.864  -9.058   9.740  1.00  0.00     0.169 HD
BRANCH   9  12
HETATM   12  C   UNL     1      43.855 -10.281   7.748  1.00  0.00     0.034 A 
HETATM   13  C   UNL     1      43.216 -11.034   6.752  1.00  0.00     0.046 A 
HETATM   14  C   UNL     1      43.965 -11.734   5.802  1.00  0.00     0.035 A 
HETATM   15  C   UNL     1      45.363 -11.706   5.880  1.00  0.00     0.029 A 
HETATM   16  C   UNL     1      46.007 -10.980   6.883  1.00  0.00     0.003 A 
HETATM   17  C   UNL     1      45.254 -10.269   7.815  1.00  0.00     0.017 A 
BRANCH  14  18
HETATM   18  N   UNL     1      43.394 -12.490   4.752  1.00  0.00    -0.324 N 
HETATM   19  C   UNL     1      42.765 -13.709   4.864  1.00  0.00     0.245 C 
HETATM   20  O   UNL     1      42.547 -14.351   5.884  1.00  0.00    -0.268 OA
HETATM   21  H   UNL     1      43.458 -12.065   3.837  1.00  0.00     0.169 HD
BRANCH  19  22
HETATM   22  C   UNL     1      42.300 -14.236   3.548  1.00  0.00     0.072 C 
HETATM   23  C   UNL     1      41.446 -13.491   2.825  1.00  0.00     0.006 C 
BRANCH  23  24
HETATM   24  C   UNL     1      40.924 -13.842   1.475  1.00  0.00     0.261 C 
BRANCH  24  25
HETATM   25  N   UNL     1      40.799 -12.636   0.578  1.00  0.00    -0.076 N 
HETATM   26  H   UNL     1      41.400 -12.810  -0.239  1.00  0.00     0.279 HD
HETATM   27  C   UNL     1      39.405 -12.428   0.053  1.00  0.00     0.269 C 
HETATM   28  C   UNL     1      41.328 -11.394   1.240  1.00  0.00     0.269 C 
ENDBRANCH  24  25
ENDBRANCH  23  24
ENDBRANCH  19  22
ENDBRANCH  14  18
ENDBRANCH   9  12
ENDBRANCH   6   8
BRANCH   3  29
HETATM   29  N   UNL     1      42.308  -5.882  14.271  1.00  0.00    -0.188 N 
HETATM   30  H   UNL     1      43.017  -5.235  14.574  1.00  0.00     0.184 HD
BRANCH  29  31
HETATM   31  C   UNL     1      41.247  -5.866  15.175  1.00  0.00     0.727 A 
HETATM   32  N   UNL     1      41.397  -6.643  16.260  1.00  0.00    -0.062 NA
HETATM   33  C   UNL     1      40.383  -6.699  17.157  1.00  0.00     0.089 A 
HETATM   34  C   UNL     1      39.207  -6.001  16.961  1.00  0.00     0.053 A 
HETATM   35  C   UNL     1      39.137  -5.243  15.823  1.00  0.00     0.139 A 
HETATM   36  N   UNL     1      40.135  -5.161  14.930  1.00  0.00    -0.075 NA
BRANCH  33  37
HETATM   37  C   UNL     1      40.611  -7.557  18.333  1.00  0.00     0.011 A 
HETATM   38  C   UNL     1      41.888  -7.723  18.876  1.00  0.00     0.130 A 
HETATM   39  N   UNL     1      42.191  -8.506  19.942  1.00  0.00    -0.272 NA
HETATM   40  C   UNL     1      41.166  -9.164  20.520  1.00  0.00     0.116 A 
HETATM   41  C   UNL     1      39.858  -9.072  20.082  1.00  0.00     0.020 A 
HETATM   42  C   UNL     1      39.583  -8.260  18.981  1.00  0.00     0.017 A 
ENDBRANCH  33  37
ENDBRANCH  29  31
ENDBRANCH   3  29
TORSDOF 9
ENDMDL
MODEL 10
REMARK VINA RESULT:      -8.3      2.839      6.926
REMARK  9 active torsions:
REMARK  status: ('A' for Active; 'I' for Inactive)
REMARK    1  A    between atoms: C_3  and  N_4 
REMARK    2  A    between atoms: N_4  and  C_5 
REMARK    3  A    between atoms: C_7  and  C_8 
REMARK    4  A    between atoms: C_19  and  N_20 
REMARK       I    between atoms: N_20  and  C_21 
REMARK    5  A    between atoms: C_21  and  C_22 
REMARK    6  A    between atoms: C_24  and  N_25 
REMARK       I    between atoms: N_25  and  C_26 
REMARK    7  A    between atoms: C_26  and  C_27 
REMARK    8  A    between atoms: C_28  and  C_29 
REMARK    9  A    between atoms: C_29  and  N_30 
ROOT
HETATM    1  C   UNL     1      45.850 -11.098   7.092  1.00  0.00     0.050 C 
HETATM    2  C   UNL     1      44.470 -10.581   7.404  1.00  0.00    -0.033 A 
HETATM    3  C   UNL     1      43.374 -10.843   6.556  1.00  0.00     0.055 A 
HETATM    4  C   UNL     1      42.128 -10.317   6.920  1.00  0.00     0.033 A 
HETATM    5  C   UNL     1      41.960  -9.528   8.065  1.00  0.00     0.032 A 
HETATM    6  C   UNL     1      43.047  -9.220   8.870  1.00  0.00     0.035 A 
HETATM    7  C   UNL     1      44.296  -9.765   8.542  1.00  0.00     0.038 A 
ENDROOT
BRANCH   6   8
HETATM    8  N   UNL     1      42.987  -8.349   9.981  1.00  0.00    -0.323 N 
HETATM    9  C   UNL     1      42.769  -8.699  11.303  1.00  0.00     0.256 C 
HETATM   10  O   UNL     1      42.677  -9.835  11.754  1.00  0.00    -0.267 OA
HETATM   11  H   UNL     1      43.018  -7.366   9.752  1.00  0.00     0.169 HD
BRANCH   9  12
HETATM   12  C   UNL     1      42.586  -7.561  12.253  1.00  0.00     0.034 A 
HETATM   13  C   UNL     1      42.708  -7.710  13.642  1.00  0.00     0.046 A 
HETATM   14  C   UNL     1      42.559  -6.608  14.490  1.00  0.00     0.035 A 
HETATM   15  C   UNL     1      42.250  -5.359  13.936  1.00  0.00     0.029 A 
HETATM   16  C   UNL     1      42.101  -5.207  12.557  1.00  0.00     0.003 A 
HETATM   17  C   UNL     1      42.270  -6.306  11.718  1.00  0.00     0.017 A 
BRANCH  14  18
HETATM   18  N   UNL     1      42.696  -6.674  15.895  1.00  0.00    -0.324 N 
HETATM   19  C   UNL     1      41.696  -6.917  16.809  1.00  0.00     0.245 C 
HETATM   20  O   UNL     1      40.516  -7.157  16.585  1.00  0.00    -0.268 OA
HETATM   21  H   UNL     1      43.637  -6.534  16.239  1.00  0.00     0.169 HD
BRANCH  19  22
HETATM   22  C   UNL     1      42.189  -6.892  18.218  1.00  0.00     0.072 C 
HETATM   23  C   UNL     1      42.028  -7.993  18.971  1.00  0.00     0.006 C 
BRANCH  23  24
HETATM   24  C   UNL     1      42.505  -8.156  20.373  1.00  0.00     0.261 C 
BRANCH  24  25
HETATM   25  N   UNL     1      41.760  -9.243  21.107  1.00  0.00    -0.076 N 
HETATM   26  H   UNL     1      42.309 -10.106  20.996  1.00  0.00     0.279 HD
HETATM   27  C   UNL     1      41.648  -8.992  22.586  1.00  0.00     0.269 C 
HETATM   28  C   UNL     1      40.416  -9.510  20.491  1.00  0.00     0.269 C 
ENDBRANCH  24  25
ENDBRANCH  23  24
ENDBRANCH  19  22
ENDBRANCH  14  18
ENDBRANCH   9  12
ENDBRANCH   6   8
BRANCH   3  29
HETATM   29  N   UNL     1      43.556 -11.521   5.342  1.00  0.00    -0.188 N 
HETATM   30  H   UNL     1      43.921 -11.008   4.557  1.00  0.00     0.184 HD
BRANCH  29  31
HETATM   31  C   UNL     1      43.207 -12.808   4.936  1.00  0.00     0.727 A 
HETATM   32  N   UNL     1      42.543 -12.890   3.771  1.00  0.00    -0.062 NA
HETATM   33  C   UNL     1      42.144 -14.111   3.341  1.00  0.00     0.089 A 
HETATM   34  C   UNL     1      42.382 -15.251   4.085  1.00  0.00     0.053 A 
HETATM   35  C   UNL     1      43.056 -15.073   5.263  1.00  0.00     0.139 A 
HETATM   36  N   UNL     1      43.474 -13.876   5.699  1.00  0.00    -0.075 NA
BRANCH  33  37
HETATM   37  C   UNL     1      41.432 -14.138   2.051  1.00  0.00     0.011 A 
HETATM   38  C   UNL     1      41.500 -13.063   1.161  1.00  0.00     0.130 A 
HETATM   39  N   UNL     1      40.864 -12.996  -0.037  1.00  0.00    -0.272 NA
HETATM   40  C   UNL     1      40.118 -14.063  -0.386  1.00  0.00     0.116 A 
HETATM   41  C   UNL     1      39.982 -15.190   0.405  1.00  0.00     0.020 A 
HETATM   42  C   UNL     1      40.647 -15.223   1.630  1.00  0.00     0.017 A 
ENDBRANCH  33  37
ENDBRANCH  29  31
ENDBRANCH   3  29
TORSDOF 9
ENDMDL
