MODEL 1
REMARK VINA RESULT:      -9.3      0.000      0.000
REMARK  6 active torsions:
REMARK  status: ('A' for Active; 'I' for Inactive)
REMARK    1  A    between atoms: C_2  and  C_3 
REMARK    2  A    between atoms: C_4  and  N_5 
REMARK       I    between atoms: N_5  and  C_6 
REMARK    3  A    between atoms: C_6  and  C_7 
REMARK    4  A    between atoms: C_10  and  C_11 
REMARK    5  A    between atoms: C_11  and  C_12 
REMARK    6  A    between atoms: C_25  and  C_26 
ROOT
HETATM    1  N   UNL     1      40.522 -12.319   2.374  1.00  0.00    -0.307 N 
HETATM    2  C   UNL     1      40.433 -13.539   1.634  1.00  0.00     0.257 C 
HETATM    3  O   UNL     1      39.601 -13.568   0.744  1.00  0.00    -0.267 OA
HETATM    4  H   UNL     1      39.711 -11.714   2.310  1.00  0.00     0.170 HD
ENDROOT
BRANCH   2   5
HETATM    5  C   UNL     1      41.254 -14.717   2.000  1.00  0.00     0.032 A 
HETATM    6  C   UNL     1      40.739 -15.729   2.820  1.00  0.00     0.017 A 
HETATM    7  C   UNL     1      41.530 -16.824   3.164  1.00  0.00     0.008 A 
HETATM    8  C   UNL     1      42.824 -16.955   2.650  1.00  0.00    -0.057 A 
HETATM    9  C   UNL     1      43.320 -15.956   1.797  1.00  0.00     0.008 A 
HETATM   10  C   UNL     1      42.540 -14.842   1.471  1.00  0.00     0.017 A 
BRANCH   8  11
HETATM   11  C   UNL     1      43.669 -18.171   2.973  1.00  0.00     0.053 C 
BRANCH  11  12
HETATM   12  C   UNL     1      44.426 -18.131   4.310  1.00  0.00     0.091 C 
HETATM   13  C   UNL     1      44.059 -19.302   5.188  1.00  0.00     0.229 C 
HETATM   14  O   UNL     1      44.237 -20.478   4.915  1.00  0.00    -0.273 OA
HETATM   15  N   UNL     1      43.419 -18.840   6.291  1.00  0.00    -0.297 N 
HETATM   16  C   UNL     1      43.267 -17.493   6.289  1.00  0.00     0.225 C 
HETATM   17  H   UNL     1      42.973 -19.446   6.961  1.00  0.00     0.171 HD
HETATM   18  O   UNL     1      42.571 -16.853   7.059  1.00  0.00    -0.273 OA
HETATM   19  C   UNL     1      44.114 -16.921   5.192  1.00  0.00     0.117 C 
ENDBRANCH  11  12
ENDBRANCH   8  11
ENDBRANCH   2   5
BRANCH   1  20
HETATM   20  C   UNL     1      41.628 -11.880   3.080  1.00  0.00     0.133 A 
HETATM   21  C   UNL     1      41.719 -11.821   4.459  1.00  0.00     0.018 A 
HETATM   22  C   UNL     1      43.075 -11.382   4.711  1.00  0.00     0.097 A 
HETATM   23  N   UNL     1      43.703 -11.144   3.545  1.00  0.00    -0.172 NA
HETATM   24  N   UNL     1      42.817 -11.430   2.594  1.00  0.00    -0.261 N 
HETATM   25  H   UNL     1      43.100 -11.295   1.629  1.00  0.00     0.191 HD
BRANCH  21  26
HETATM   26  C   UNL     1      40.653 -12.246   5.416  1.00  0.00     0.040 C 
HETATM   27  C   UNL     1      40.802 -13.696   5.850  1.00  0.00     0.010 C 
ENDBRANCH  21  26
BRANCH  22  28
HETATM   28  C   UNL     1      43.838 -11.216   5.966  1.00  0.00    -0.002 A 
HETATM   29  C   UNL     1      45.236 -11.328   5.936  1.00  0.00     0.033 A 
HETATM   30  C   UNL     1      45.959 -11.200   7.110  1.00  0.00     0.117 A 
HETATM   31  N   UNL     1      45.392 -10.975   8.310  1.00  0.00    -0.273 NA
HETATM   32  C   UNL     1      44.050 -10.855   8.328  1.00  0.00     0.117 A 
HETATM   33  C   UNL     1      43.245 -10.958   7.202  1.00  0.00     0.033 A 
ENDBRANCH  22  28
ENDBRANCH   1  20
TORSDOF 6
ENDMDL
MODEL 2
REMARK VINA RESULT:      -9.0      2.777      7.078
REMARK  6 active torsions:
REMARK  status: ('A' for Active; 'I' for Inactive)
REMARK    1  A    between atoms: C_2  and  C_3 
REMARK    2  A    between atoms: C_4  and  N_5 
REMARK       I    between atoms: N_5  and  C_6 
REMARK    3  A    between atoms: C_6  and  C_7 
REMARK    4  A    between atoms: C_10  and  C_11 
REMARK    5  A    between atoms: C_11  and  C_12 
REMARK    6  A    between atoms: C_25  and  C_26 
ROOT
HETATM    1  N   UNL     1      40.884 -13.730   2.033  1.00  0.00    -0.307 N 
HETATM    2  C   UNL     1      40.665 -12.754   3.054  1.00  0.00     0.257 C 
HETATM    3  O   UNL     1      39.573 -12.215   3.057  1.00  0.00    -0.267 OA
HETATM    4  H   UNL     1      40.257 -13.673   1.238  1.00  0.00     0.170 HD
ENDROOT
BRANCH   2   5
HETATM    5  C   UNL     1      41.747 -12.374   3.992  1.00  0.00     0.032 A 
HETATM    6  C   UNL     1      42.810 -11.563   3.576  1.00  0.00     0.017 A 
HETATM    7  C   UNL     1      43.827 -11.225   4.469  1.00  0.00     0.008 A 
HETATM    8  C   UNL     1      43.768 -11.643   5.803  1.00  0.00    -0.057 A 
HETATM    9  C   UNL     1      42.679 -12.422   6.223  1.00  0.00     0.008 A 
HETATM   10  C   UNL     1      41.671 -12.787   5.325  1.00  0.00     0.017 A 
BRANCH   8  11
HETATM   11  C   UNL     1      44.838 -11.231   6.794  1.00  0.00     0.053 C 
BRANCH  11  12
HETATM   12  C   UNL     1      44.485 -10.057   7.721  1.00  0.00     0.091 C 
HETATM   13  C   UNL     1      45.719  -9.455   8.346  1.00  0.00     0.229 C 
HETATM   14  O   UNL     1      46.641  -8.934   7.739  1.00  0.00    -0.273 OA
HETATM   15  N   UNL     1      45.680  -9.665   9.685  1.00  0.00    -0.297 N 
HETATM   16  C   UNL     1      44.586 -10.361  10.079  1.00  0.00     0.225 C 
HETATM   17  H   UNL     1      46.454  -9.459  10.296  1.00  0.00     0.171 HD
HETATM   18  O   UNL     1      44.405 -10.840  11.186  1.00  0.00    -0.273 OA
HETATM   19  C   UNL     1      43.624 -10.427   8.930  1.00  0.00     0.117 C 
ENDBRANCH  11  12
ENDBRANCH   8  11
ENDBRANCH   2   5
BRANCH   1  20
HETATM   20  C   UNL     1      41.803 -14.764   2.084  1.00  0.00     0.133 A 
HETATM   21  C   UNL     1      41.681 -15.898   2.867  1.00  0.00     0.018 A 
HETATM   22  C   UNL     1      42.831 -16.702   2.517  1.00  0.00     0.097 A 
HETATM   23  N   UNL     1      43.600 -16.041   1.631  1.00  0.00    -0.172 NA
HETATM   24  N   UNL     1      42.976 -14.887   1.404  1.00  0.00    -0.261 N 
HETATM   25  H   UNL     1      43.414 -14.231   0.768  1.00  0.00     0.191 HD
BRANCH  21  26
HETATM   26  C   UNL     1      40.529 -16.209   3.766  1.00  0.00     0.040 C 
HETATM   27  C   UNL     1      40.922 -16.224   5.235  1.00  0.00     0.010 C 
ENDBRANCH  21  26
BRANCH  22  28
HETATM   28  C   UNL     1      43.237 -18.066   2.916  1.00  0.00    -0.002 A 
HETATM   29  C   UNL     1      43.818 -18.265   4.178  1.00  0.00     0.033 A 
HETATM   30  C   UNL     1      44.227 -19.534   4.552  1.00  0.00     0.117 A 
HETATM   31  N   UNL     1      44.104 -20.617   3.760  1.00  0.00    -0.273 NA
HETATM   32  C   UNL     1      43.533 -20.419   2.556  1.00  0.00     0.117 A 
HETATM   33  C   UNL     1      43.084 -19.187   2.100  1.00  0.00     0.033 A 
ENDBRANCH  22  28
ENDBRANCH   1  20
TORSDOF 6
ENDMDL
MODEL 3
REMARK VINA RESULT:      -8.6      3.035      7.159
REMARK  6 active torsions:
REMARK  status: ('A' for Active; 'I' for Inactive)
REMARK    1  A    between atoms: C_2  and  C_3 
REMARK    2  A    between atoms: C_4  and  N_5 
REMARK       I    between atoms: N_5  and  C_6 
REMARK    3  A    between atoms: C_6  and  C_7 
REMARK    4  A    between atoms: C_10  and  C_11 
REMARK    5  A    between atoms: C_11  and  C_12 
REMARK    6  A    between atoms: C_25  and  C_26 
ROOT
HETATM    1  N   UNL     1      42.733 -14.157   6.906  1.00  0.00    -0.307 N 
HETATM    2  C   UNL     1      42.384 -12.971   6.187  1.00  0.00     0.257 C 
HETATM    3  O   UNL     1      42.267 -11.956   6.850  1.00  0.00    -0.267 OA
HETATM    4  H   UNL     1      42.556 -14.126   7.904  1.00  0.00     0.170 HD
ENDROOT
BRANCH   2   5
HETATM    5  C   UNL     1      42.103 -13.014   4.733  1.00  0.00     0.032 A 
HETATM    6  C   UNL     1      40.807 -12.813   4.243  1.00  0.00     0.017 A 
HETATM    7  C   UNL     1      40.558 -12.869   2.872  1.00  0.00     0.008 A 
HETATM    8  C   UNL     1      41.607 -13.068   1.968  1.00  0.00    -0.057 A 
HETATM    9  C   UNL     1      42.909 -13.230   2.464  1.00  0.00     0.008 A 
HETATM   10  C   UNL     1      43.160 -13.202   3.840  1.00  0.00     0.017 A 
BRANCH   8  11
HETATM   11  C   UNL     1      41.353 -13.072   0.474  1.00  0.00     0.053 C 
BRANCH  11  12
HETATM   12  C   UNL     1      39.902 -13.324   0.035  1.00  0.00     0.091 C 
HETATM   13  C   UNL     1      39.658 -14.784  -0.256  1.00  0.00     0.229 C 
HETATM   14  O   UNL     1      39.764 -15.696   0.548  1.00  0.00    -0.273 OA
HETATM   15  N   UNL     1      39.387 -14.929  -1.577  1.00  0.00    -0.297 N 
HETATM   16  C   UNL     1      39.435 -13.758  -2.258  1.00  0.00     0.225 C 
HETATM   17  H   UNL     1      39.310 -15.828  -2.026  1.00  0.00     0.171 HD
HETATM   18  O   UNL     1      39.417 -13.637  -3.472  1.00  0.00    -0.273 OA
HETATM   19  C   UNL     1      39.494 -12.634  -1.267  1.00  0.00     0.117 C 
ENDBRANCH  11  12
ENDBRANCH   8  11
ENDBRANCH   2   5
BRANCH   1  20
HETATM   20  C   UNL     1      43.351 -15.274   6.373  1.00  0.00     0.133 A 
HETATM   21  C   UNL     1      42.697 -16.331   5.764  1.00  0.00     0.018 A 
HETATM   22  C   UNL     1      43.761 -17.197   5.306  1.00  0.00     0.097 A 
HETATM   23  N   UNL     1      44.953 -16.698   5.685  1.00  0.00    -0.172 NA
HETATM   24  N   UNL     1      44.680 -15.566   6.330  1.00  0.00    -0.261 N 
HETATM   25  H   UNL     1      45.459 -15.043   6.715  1.00  0.00     0.191 HD
BRANCH  21  26
HETATM   26  C   UNL     1      41.220 -16.430   5.557  1.00  0.00     0.040 C 
HETATM   27  C   UNL     1      40.828 -16.322   4.092  1.00  0.00     0.010 C 
ENDBRANCH  21  26
BRANCH  22  28
HETATM   28  C   UNL     1      43.744 -18.434   4.499  1.00  0.00    -0.002 A 
HETATM   29  C   UNL     1      43.923 -19.671   5.138  1.00  0.00     0.033 A 
HETATM   30  C   UNL     1      43.935 -20.835   4.387  1.00  0.00     0.117 A 
HETATM   31  N   UNL     1      43.789 -20.856   3.049  1.00  0.00    -0.273 NA
HETATM   32  C   UNL     1      43.604 -19.666   2.445  1.00  0.00     0.117 A 
HETATM   33  C   UNL     1      43.567 -18.451   3.115  1.00  0.00     0.033 A 
ENDBRANCH  22  28
ENDBRANCH   1  20
TORSDOF 6
ENDMDL
MODEL 4
REMARK VINA RESULT:      -8.3      2.709      6.395
REMARK  6 active torsions:
REMARK  status: ('A' for Active; 'I' for Inactive)
REMARK    1  A    between atoms: C_2  and  C_3 
REMARK    2  A    between atoms: C_4  and  N_5 
REMARK       I    between atoms: N_5  and  C_6 
REMARK    3  A    between atoms: C_6  and  C_7 
REMARK    4  A    between atoms: C_10  and  C_11 
REMARK    5  A    between atoms: C_11  and  C_12 
REMARK    6  A    between atoms: C_25  and  C_26 
ROOT
HETATM    1  N   UNL     1      39.400 -13.321   1.480  1.00  0.00    -0.307 N 
HETATM    2  C   UNL     1      39.182 -12.075   2.146  1.00  0.00     0.257 C 
HETATM    3  O   UNL     1      38.346 -11.340   1.652  1.00  0.00    -0.267 OA
HETATM    4  H   UNL     1      39.083 -13.359   0.518  1.00  0.00     0.170 HD
ENDROOT
BRANCH   2   5
HETATM    5  C   UNL     1      39.998 -11.684   3.320  1.00  0.00     0.032 A 
HETATM    6  C   UNL     1      40.927 -10.638   3.236  1.00  0.00     0.017 A 
HETATM    7  C   UNL     1      41.695 -10.291   4.346  1.00  0.00     0.008 A 
HETATM    8  C   UNL     1      41.508 -10.941   5.571  1.00  0.00    -0.057 A 
HETATM    9  C   UNL     1      40.548 -11.961   5.658  1.00  0.00     0.008 A 
HETATM   10  C   UNL     1      39.794 -12.332   4.539  1.00  0.00     0.017 A 
BRANCH   8  11
HETATM   11  C   UNL     1      42.298 -10.531   6.797  1.00  0.00     0.053 C 
BRANCH  11  12
HETATM   12  C   UNL     1      43.413 -11.493   7.236  1.00  0.00     0.091 C 
HETATM   13  C   UNL     1      44.426 -10.801   8.114  1.00  0.00     0.229 C 
HETATM   14  O   UNL     1      44.194 -10.288   9.197  1.00  0.00    -0.273 OA
HETATM   15  N   UNL     1      45.617 -10.765   7.466  1.00  0.00    -0.297 N 
HETATM   16  C   UNL     1      45.564 -11.321   6.232  1.00  0.00     0.225 C 
HETATM   17  H   UNL     1      46.411 -10.246   7.806  1.00  0.00     0.171 HD
HETATM   18  O   UNL     1      46.434 -11.251   5.379  1.00  0.00    -0.273 OA
HETATM   19  C   UNL     1      44.264 -12.056   6.096  1.00  0.00     0.117 C 
ENDBRANCH  11  12
ENDBRANCH   8  11
ENDBRANCH   2   5
BRANCH   1  20
HETATM   20  C   UNL     1      39.918 -14.468   2.056  1.00  0.00     0.133 A 
HETATM   21  C   UNL     1      41.263 -14.788   2.120  1.00  0.00     0.018 A 
HETATM   22  C   UNL     1      41.303 -16.021   2.876  1.00  0.00     0.097 A 
HETATM   23  N   UNL     1      40.051 -16.417   3.174  1.00  0.00    -0.172 NA
HETATM   24  N   UNL     1      39.249 -15.487   2.661  1.00  0.00    -0.261 N 
HETATM   25  H   UNL     1      38.248 -15.617   2.767  1.00  0.00     0.191 HD
BRANCH  21  26
HETATM   26  C   UNL     1      42.380 -13.940   1.604  1.00  0.00     0.040 C 
HETATM   27  C   UNL     1      43.237 -13.362   2.719  1.00  0.00     0.010 C 
ENDBRANCH  21  26
BRANCH  22  28
HETATM   28  C   UNL     1      42.432 -16.830   3.380  1.00  0.00    -0.002 A 
HETATM   29  C   UNL     1      42.986 -17.821   2.555  1.00  0.00     0.033 A 
HETATM   30  C   UNL     1      44.027 -18.603   3.027  1.00  0.00     0.117 A 
HETATM   31  N   UNL     1      44.553 -18.473   4.260  1.00  0.00    -0.273 NA
HETATM   32  C   UNL     1      44.025 -17.510   5.040  1.00  0.00     0.117 A 
HETATM   33  C   UNL     1      42.988 -16.673   4.650  1.00  0.00     0.033 A 
ENDBRANCH  22  28
ENDBRANCH   1  20
TORSDOF 6
ENDMDL
MODEL 5
REMARK VINA RESULT:      -8.2      2.706      6.508
REMARK  6 active torsions:
REMARK  status: ('A' for Active; 'I' for Inactive)
REMARK    1  A    between atoms: C_2  and  C_3 
REMARK    2  A    between atoms: C_4  and  N_5 
REMARK       I    between atoms: N_5  and  C_6 
REMARK    3  A    between atoms: C_6  and  C_7 
REMARK    4  A    between atoms: C_10  and  C_11 
REMARK    5  A    between atoms: C_11  and  C_12 
REMARK    6  A    between atoms: C_25  and  C_26 
ROOT
HETATM    1  N   UNL     1      40.428 -13.686   1.333  1.00  0.00    -0.307 N 
HETATM    2  C   UNL     1      39.811 -12.727   2.195  1.00  0.00     0.257 C 
HETATM    3  O   UNL     1      38.670 -12.407   1.915  1.00  0.00    -0.267 OA
HETATM    4  H   UNL     1      39.999 -13.785   0.419  1.00  0.00     0.170 HD
ENDROOT
BRANCH   2   5
HETATM    5  C   UNL     1      40.566 -12.106   3.310  1.00  0.00     0.032 A 
HETATM    6  C   UNL     1      40.371 -12.522   4.632  1.00  0.00     0.017 A 
HETATM    7  C   UNL     1      41.080 -11.919   5.671  1.00  0.00     0.008 A 
HETATM    8  C   UNL     1      42.035 -10.933   5.399  1.00  0.00    -0.057 A 
HETATM    9  C   UNL     1      42.254 -10.549   4.067  1.00  0.00     0.008 A 
HETATM   10  C   UNL     1      41.525 -11.132   3.024  1.00  0.00     0.017 A 
BRANCH   8  11
HETATM   11  C   UNL     1      42.852 -10.314   6.515  1.00  0.00     0.053 C 
BRANCH  11  12
HETATM   12  C   UNL     1      43.696 -11.287   7.353  1.00  0.00     0.091 C 
HETATM   13  C   UNL     1      44.097 -10.676   8.673  1.00  0.00     0.229 C 
HETATM   14  O   UNL     1      43.329 -10.305   9.546  1.00  0.00    -0.273 OA
HETATM   15  N   UNL     1      45.444 -10.523   8.695  1.00  0.00    -0.297 N 
HETATM   16  C   UNL     1      46.041 -10.927   7.548  1.00  0.00     0.225 C 
HETATM   17  H   UNL     1      45.928 -10.024   9.425  1.00  0.00     0.171 HD
HETATM   18  O   UNL     1      47.204 -10.726   7.239  1.00  0.00    -0.273 OA
HETATM   19  C   UNL     1      45.036 -11.680   6.728  1.00  0.00     0.117 C 
ENDBRANCH  11  12
ENDBRANCH   8  11
ENDBRANCH   2   5
BRANCH   1  20
HETATM   20  C   UNL     1      41.478 -14.521   1.671  1.00  0.00     0.133 A 
HETATM   21  C   UNL     1      41.389 -15.605   2.527  1.00  0.00     0.018 A 
HETATM   22  C   UNL     1      42.708 -16.198   2.495  1.00  0.00     0.097 A 
HETATM   23  N   UNL     1      43.522 -15.462   1.715  1.00  0.00    -0.172 NA
HETATM   24  N   UNL     1      42.772 -14.464   1.253  1.00  0.00    -0.261 N 
HETATM   25  H   UNL     1      43.216 -13.780   0.651  1.00  0.00     0.191 HD
BRANCH  21  26
HETATM   26  C   UNL     1      40.142 -16.070   3.207  1.00  0.00     0.040 C 
HETATM   27  C   UNL     1      40.309 -16.186   4.715  1.00  0.00     0.010 C 
ENDBRANCH  21  26
BRANCH  22  28
HETATM   28  C   UNL     1      43.247 -17.431   3.104  1.00  0.00    -0.002 A 
HETATM   29  C   UNL     1      43.737 -17.388   4.419  1.00  0.00     0.033 A 
HETATM   30  C   UNL     1      44.270 -18.531   4.990  1.00  0.00     0.117 A 
HETATM   31  N   UNL     1      44.355 -19.711   4.348  1.00  0.00    -0.273 NA
HETATM   32  C   UNL     1      43.870 -19.748   3.092  1.00  0.00     0.117 A 
HETATM   33  C   UNL     1      43.310 -18.657   2.441  1.00  0.00     0.033 A 
ENDBRANCH  22  28
ENDBRANCH   1  20
TORSDOF 6
ENDMDL
MODEL 6
REMARK VINA RESULT:      -8.1      3.368      7.082
REMARK  6 active torsions:
REMARK  status: ('A' for Active; 'I' for Inactive)
REMARK    1  A    between atoms: C_2  and  C_3 
REMARK    2  A    between atoms: C_4  and  N_5 
REMARK       I    between atoms: N_5  and  C_6 
REMARK    3  A    between atoms: C_6  and  C_7 
REMARK    4  A    between atoms: C_10  and  C_11 
REMARK    5  A    between atoms: C_11  and  C_12 
REMARK    6  A    between atoms: C_25  and  C_26 
ROOT
HETATM    1  N   UNL     1      41.751 -13.333   6.614  1.00  0.00    -0.307 N 
HETATM    2  C   UNL     1      41.276 -12.398   5.643  1.00  0.00     0.257 C 
HETATM    3  O   UNL     1      40.949 -11.303   6.065  1.00  0.00    -0.267 OA
HETATM    4  H   UNL     1      41.494 -13.129   7.573  1.00  0.00     0.170 HD
ENDROOT
BRANCH   2   5
HETATM    5  C   UNL     1      41.119 -12.786   4.221  1.00  0.00     0.032 A 
HETATM    6  C   UNL     1      42.236 -12.976   3.398  1.00  0.00     0.017 A 
HETATM    7  C   UNL     1      42.070 -13.330   2.059  1.00  0.00     0.008 A 
HETATM    8  C   UNL     1      40.792 -13.556   1.538  1.00  0.00    -0.057 A 
HETATM    9  C   UNL     1      39.679 -13.403   2.380  1.00  0.00     0.008 A 
HETATM   10  C   UNL     1      39.839 -13.021   3.716  1.00  0.00     0.017 A 
BRANCH   8  11
HETATM   11  C   UNL     1      40.606 -13.998   0.101  1.00  0.00     0.053 C 
BRANCH  11  12
HETATM   12  C   UNL     1      39.978 -12.964  -0.848  1.00  0.00     0.091 C 
HETATM   13  C   UNL     1      40.551 -13.070  -2.239  1.00  0.00     0.229 C 
HETATM   14  O   UNL     1      40.477 -14.048  -2.965  1.00  0.00    -0.273 OA
HETATM   15  N   UNL     1      41.237 -11.934  -2.519  1.00  0.00    -0.297 N 
HETATM   16  C   UNL     1      41.241 -11.051  -1.490  1.00  0.00     0.225 C 
HETATM   17  H   UNL     1      41.807 -11.826  -3.342  1.00  0.00     0.171 HD
HETATM   18  O   UNL     1      41.932 -10.049  -1.412  1.00  0.00    -0.273 OA
HETATM   19  C   UNL     1      40.237 -11.504  -0.472  1.00  0.00     0.117 C 
ENDBRANCH  11  12
ENDBRANCH   8  11
ENDBRANCH   2   5
BRANCH   1  20
HETATM   20  C   UNL     1      42.576 -14.414   6.361  1.00  0.00     0.133 A 
HETATM   21  C   UNL     1      42.144 -15.675   5.990  1.00  0.00     0.018 A 
HETATM   22  C   UNL     1      43.363 -16.421   5.765  1.00  0.00     0.097 A 
HETATM   23  N   UNL     1      44.430 -15.652   6.050  1.00  0.00    -0.172 NA
HETATM   24  N   UNL     1      43.935 -14.472   6.418  1.00  0.00    -0.261 N 
HETATM   25  H   UNL     1      44.592 -13.750   6.694  1.00  0.00     0.191 HD
BRANCH  21  26
HETATM   26  C   UNL     1      40.720 -16.074   5.774  1.00  0.00     0.040 C 
HETATM   27  C   UNL     1      40.419 -16.398   4.319  1.00  0.00     0.010 C 
ENDBRANCH  21  26
BRANCH  22  28
HETATM   28  C   UNL     1      43.601 -17.788   5.256  1.00  0.00    -0.002 A 
HETATM   29  C   UNL     1      43.819 -17.979   3.883  1.00  0.00     0.033 A 
HETATM   30  C   UNL     1      44.016 -19.258   3.391  1.00  0.00     0.117 A 
HETATM   31  N   UNL     1      44.006 -20.360   4.165  1.00  0.00    -0.273 NA
HETATM   32  C   UNL     1      43.811 -20.167   5.483  1.00  0.00     0.117 A 
HETATM   33  C   UNL     1      43.614 -18.922   6.067  1.00  0.00     0.033 A 
ENDBRANCH  22  28
ENDBRANCH   1  20
TORSDOF 6
ENDMDL
MODEL 7
REMARK VINA RESULT:      -8.1      3.356      7.052
REMARK  6 active torsions:
REMARK  status: ('A' for Active; 'I' for Inactive)
REMARK    1  A    between atoms: C_2  and  C_3 
REMARK    2  A    between atoms: C_4  and  N_5 
REMARK       I    between atoms: N_5  and  C_6 
REMARK    3  A    between atoms: C_6  and  C_7 
REMARK    4  A    between atoms: C_10  and  C_11 
REMARK    5  A    between atoms: C_11  and  C_12 
REMARK    6  A    between atoms: C_25  and  C_26 
ROOT
HETATM    1  N   UNL     1      41.559 -12.718   6.580  1.00  0.00    -0.307 N 
HETATM    2  C   UNL     1      41.002 -11.934   5.522  1.00  0.00     0.257 C 
HETATM    3  O   UNL     1      40.649 -10.806   5.817  1.00  0.00    -0.267 OA
HETATM    4  H   UNL     1      41.339 -12.400   7.517  1.00  0.00     0.170 HD
ENDROOT
BRANCH   2   5
HETATM    5  C   UNL     1      40.795 -12.510   4.172  1.00  0.00     0.032 A 
HETATM    6  C   UNL     1      41.866 -12.667   3.284  1.00  0.00     0.017 A 
HETATM    7  C   UNL     1      41.651 -13.200   2.013  1.00  0.00     0.008 A 
HETATM    8  C   UNL     1      40.378 -13.635   1.631  1.00  0.00    -0.057 A 
HETATM    9  C   UNL     1      39.317 -13.511   2.542  1.00  0.00     0.008 A 
HETATM   10  C   UNL     1      39.521 -12.952   3.808  1.00  0.00     0.017 A 
BRANCH   8  11
HETATM   11  C   UNL     1      40.148 -14.268   0.274  1.00  0.00     0.053 C 
BRANCH  11  12
HETATM   12  C   UNL     1      40.058 -13.300  -0.917  1.00  0.00     0.091 C 
HETATM   13  C   UNL     1      38.680 -12.700  -1.038  1.00  0.00     0.229 C 
HETATM   14  O   UNL     1      38.131 -12.004  -0.199  1.00  0.00    -0.273 OA
HETATM   15  N   UNL     1      38.114 -13.130  -2.193  1.00  0.00    -0.297 N 
HETATM   16  C   UNL     1      38.910 -13.978  -2.889  1.00  0.00     0.225 C 
HETATM   17  H   UNL     1      37.149 -12.958  -2.430  1.00  0.00     0.171 HD
HETATM   18  O   UNL     1      38.573 -14.648  -3.850  1.00  0.00    -0.273 OA
HETATM   19  C   UNL     1      40.284 -13.941  -2.287  1.00  0.00     0.117 C 
ENDBRANCH  11  12
ENDBRANCH   8  11
ENDBRANCH   2   5
BRANCH   1  20
HETATM   20  C   UNL     1      42.416 -13.794   6.425  1.00  0.00     0.133 A 
HETATM   21  C   UNL     1      42.019 -15.104   6.227  1.00  0.00     0.018 A 
HETATM   22  C   UNL     1      43.257 -15.831   6.044  1.00  0.00     0.097 A 
HETATM   23  N   UNL     1      44.303 -14.996   6.190  1.00  0.00    -0.172 NA
HETATM   24  N   UNL     1      43.777 -13.798   6.433  1.00  0.00    -0.261 N 
HETATM   25  H   UNL     1      44.415 -13.026   6.592  1.00  0.00     0.191 HD
BRANCH  21  26
HETATM   26  C   UNL     1      40.605 -15.574   6.120  1.00  0.00     0.040 C 
HETATM   27  C   UNL     1      40.337 -16.328   4.826  1.00  0.00     0.010 C 
ENDBRANCH  21  26
BRANCH  22  28
HETATM   28  C   UNL     1      43.528 -17.240   5.694  1.00  0.00    -0.002 A 
HETATM   29  C   UNL     1      43.249 -18.245   6.634  1.00  0.00     0.033 A 
HETATM   30  C   UNL     1      43.525 -19.567   6.327  1.00  0.00     0.117 A 
HETATM   31  N   UNL     1      44.061 -19.960   5.156  1.00  0.00    -0.273 NA
HETATM   32  C   UNL     1      44.313 -18.992   4.255  1.00  0.00     0.117 A 
HETATM   33  C   UNL     1      44.062 -17.643   4.469  1.00  0.00     0.033 A 
ENDBRANCH  22  28
ENDBRANCH   1  20
TORSDOF 6
ENDMDL
MODEL 8
REMARK VINA RESULT:      -8.0      3.248      7.648
REMARK  6 active torsions:
REMARK  status: ('A' for Active; 'I' for Inactive)
REMARK    1  A    between atoms: C_2  and  C_3 
REMARK    2  A    between atoms: C_4  and  N_5 
REMARK       I    between atoms: N_5  and  C_6 
REMARK    3  A    between atoms: C_6  and  C_7 
REMARK    4  A    between atoms: C_10  and  C_11 
REMARK    5  A    between atoms: C_11  and  C_12 
REMARK    6  A    between atoms: C_25  and  C_26 
ROOT
HETATM    1  N   UNL     1      40.206 -15.840   3.829  1.00  0.00    -0.307 N 
HETATM    2  C   UNL     1      41.156 -15.674   4.884  1.00  0.00     0.257 C 
HETATM    3  O   UNL     1      41.504 -16.689   5.460  1.00  0.00    -0.267 OA
HETATM    4  H   UNL     1      39.684 -16.710   3.850  1.00  0.00     0.170 HD
ENDROOT
BRANCH   2   5
HETATM    5  C   UNL     1      41.614 -14.325   5.293  1.00  0.00     0.032 A 
HETATM    6  C   UNL     1      40.749 -13.435   5.941  1.00  0.00     0.017 A 
HETATM    7  C   UNL     1      41.193 -12.165   6.309  1.00  0.00     0.008 A 
HETATM    8  C   UNL     1      42.521 -11.786   6.087  1.00  0.00    -0.057 A 
HETATM    9  C   UNL     1      43.394 -12.698   5.473  1.00  0.00     0.008 A 
HETATM   10  C   UNL     1      42.946 -13.963   5.077  1.00  0.00     0.017 A 
BRANCH   8  11
HETATM   11  C   UNL     1      43.027 -10.430   6.536  1.00  0.00     0.053 C 
BRANCH  11  12
HETATM   12  C   UNL     1      43.756 -10.395   7.889  1.00  0.00     0.091 C 
HETATM   13  C   UNL     1      43.666  -9.032   8.529  1.00  0.00     0.229 C 
HETATM   14  O   UNL     1      42.634  -8.472   8.866  1.00  0.00    -0.273 OA
HETATM   15  N   UNL     1      44.908  -8.493   8.591  1.00  0.00    -0.297 N 
HETATM   16  C   UNL     1      45.860  -9.293   8.052  1.00  0.00     0.225 C 
HETATM   17  H   UNL     1      45.080  -7.539   8.869  1.00  0.00     0.171 HD
HETATM   18  O   UNL     1      47.011  -8.972   7.812  1.00  0.00    -0.273 OA
HETATM   19  C   UNL     1      45.262 -10.649   7.815  1.00  0.00     0.117 C 
ENDBRANCH  11  12
ENDBRANCH   8  11
ENDBRANCH   2   5
BRANCH   1  20
HETATM   20  C   UNL     1      40.011 -14.971   2.771  1.00  0.00     0.133 A 
HETATM   21  C   UNL     1      40.770 -14.942   1.615  1.00  0.00     0.018 A 
HETATM   22  C   UNL     1      40.136 -13.935   0.792  1.00  0.00     0.097 A 
HETATM   23  N   UNL     1      39.110 -13.377   1.462  1.00  0.00    -0.172 NA
HETATM   24  N   UNL     1      39.068 -13.998   2.638  1.00  0.00    -0.261 N 
HETATM   25  H   UNL     1      38.363 -13.701   3.304  1.00  0.00     0.191 HD
BRANCH  21  26
HETATM   26  C   UNL     1      41.909 -15.858   1.304  1.00  0.00     0.040 C 
HETATM   27  C   UNL     1      43.253 -15.281   1.723  1.00  0.00     0.010 C 
ENDBRANCH  21  26
BRANCH  22  28
HETATM   28  C   UNL     1      40.391 -13.493  -0.594  1.00  0.00    -0.002 A 
HETATM   29  C   UNL     1      41.021 -12.258  -0.813  1.00  0.00     0.033 A 
HETATM   30  C   UNL     1      41.242 -11.821  -2.109  1.00  0.00     0.117 A 
HETATM   31  N   UNL     1      40.877 -12.520  -3.200  1.00  0.00    -0.273 NA
HETATM   32  C   UNL     1      40.285 -13.710  -2.981  1.00  0.00     0.117 A 
HETATM   33  C   UNL     1      40.032 -14.234  -1.720  1.00  0.00     0.033 A 
ENDBRANCH  22  28
ENDBRANCH   1  20
TORSDOF 6
ENDMDL
MODEL 9
REMARK VINA RESULT:      -7.7      2.868      6.137
REMARK  6 active torsions:
REMARK  status: ('A' for Active; 'I' for Inactive)
REMARK    1  A    between atoms: C_2  and  C_3 
REMARK    2  A    between atoms: C_4  and  N_5 
REMARK       I    between atoms: N_5  and  C_6 
REMARK    3  A    between atoms: C_6  and  C_7 
REMARK    4  A    between atoms: C_10  and  C_11 
REMARK    5  A    between atoms: C_11  and  C_12 
REMARK    6  A    between atoms: C_25  and  C_26 
ROOT
HETATM    1  N   UNL     1      40.139 -14.953   0.376  1.00  0.00    -0.307 N 
HETATM    2  C   UNL     1      39.756 -13.612   0.058  1.00  0.00     0.257 C 
HETATM    3  O   UNL     1      39.237 -13.445  -1.031  1.00  0.00    -0.267 OA
HETATM    4  H   UNL     1      40.231 -15.576  -0.419  1.00  0.00     0.170 HD
ENDROOT
BRANCH   2   5
HETATM    5  C   UNL     1      40.059 -12.493   0.980  1.00  0.00     0.032 A 
HETATM    6  C   UNL     1      39.138 -12.092   1.956  1.00  0.00     0.017 A 
HETATM    7  C   UNL     1      39.435 -11.029   2.808  1.00  0.00     0.008 A 
HETATM    8  C   UNL     1      40.676 -10.388   2.737  1.00  0.00    -0.057 A 
HETATM    9  C   UNL     1      41.610 -10.821   1.783  1.00  0.00     0.008 A 
HETATM   10  C   UNL     1      41.307 -11.869   0.908  1.00  0.00     0.017 A 
BRANCH   8  11
HETATM   11  C   UNL     1      41.029  -9.270   3.698  1.00  0.00     0.053 C 
BRANCH  11  12
HETATM   12  C   UNL     1      41.429  -9.701   5.118  1.00  0.00     0.091 C 
HETATM   13  C   UNL     1      42.395 -10.859   5.093  1.00  0.00     0.229 C 
HETATM   14  O   UNL     1      43.507 -10.847   4.588  1.00  0.00    -0.273 OA
HETATM   15  N   UNL     1      41.795 -11.944   5.643  1.00  0.00    -0.297 N 
HETATM   16  C   UNL     1      40.518 -11.702   6.030  1.00  0.00     0.225 C 
HETATM   17  H   UNL     1      42.202 -12.865   5.625  1.00  0.00     0.171 HD
HETATM   18  O   UNL     1      39.705 -12.543   6.375  1.00  0.00    -0.273 OA
HETATM   19  C   UNL     1      40.279 -10.222   5.981  1.00  0.00     0.117 C 
ENDBRANCH  11  12
ENDBRANCH   8  11
ENDBRANCH   2   5
BRANCH   1  20
HETATM   20  C   UNL     1      40.308 -15.467   1.649  1.00  0.00     0.133 A 
HETATM   21  C   UNL     1      41.520 -15.832   2.206  1.00  0.00     0.018 A 
HETATM   22  C   UNL     1      41.191 -16.226   3.558  1.00  0.00     0.097 A 
HETATM   23  N   UNL     1      39.860 -16.149   3.747  1.00  0.00    -0.172 NA
HETATM   24  N   UNL     1      39.359 -15.713   2.594  1.00  0.00    -0.261 N 
HETATM   25  H   UNL     1      38.352 -15.605   2.528  1.00  0.00     0.191 HD
BRANCH  21  26
HETATM   26  C   UNL     1      42.851 -15.710   1.537  1.00  0.00     0.040 C 
HETATM   27  C   UNL     1      43.586 -14.437   1.929  1.00  0.00     0.010 C 
ENDBRANCH  21  26
BRANCH  22  28
HETATM   28  C   UNL     1      42.039 -16.623   4.702  1.00  0.00    -0.002 A 
HETATM   29  C   UNL     1      41.758 -16.104   5.975  1.00  0.00     0.033 A 
HETATM   30  C   UNL     1      42.563 -16.448   7.048  1.00  0.00     0.117 A 
HETATM   31  N   UNL     1      43.628 -17.266   6.945  1.00  0.00    -0.273 NA
HETATM   32  C   UNL     1      43.882 -17.770   5.722  1.00  0.00     0.117 A 
HETATM   33  C   UNL     1      43.127 -17.489   4.592  1.00  0.00     0.033 A 
ENDBRANCH  22  28
ENDBRANCH   1  20
TORSDOF 6
ENDMDL
MODEL 10
REMARK VINA RESULT:      -7.7      2.121      2.968
REMARK  6 active torsions:
REMARK  status: ('A' for Active; 'I' for Inactive)
REMARK    1  A    between atoms: C_2  and  C_3 
REMARK    2  A    between atoms: C_4  and  N_5 
REMARK       I    between atoms: N_5  and  C_6 
REMARK    3  A    between atoms: C_6  and  C_7 
REMARK    4  A    between atoms: C_10  and  C_11 
REMARK    5  A    between atoms: C_11  and  C_12 
REMARK    6  A    between atoms: C_25  and  C_26 
ROOT
HETATM    1  N   UNL     1      39.614 -12.756  -0.138  1.00  0.00    -0.307 N 
HETATM    2  C   UNL     1      39.924 -14.134  -0.360  1.00  0.00     0.257 C 
HETATM    3  O   UNL     1      39.498 -14.621  -1.393  1.00  0.00    -0.267 OA
HETATM    4  H   UNL     1      38.836 -12.394  -0.678  1.00  0.00     0.170 HD
ENDROOT
BRANCH   2   5
HETATM    5  C   UNL     1      40.649 -14.928   0.659  1.00  0.00     0.032 A 
HETATM    6  C   UNL     1      42.043 -14.856   0.771  1.00  0.00     0.017 A 
HETATM    7  C   UNL     1      42.712 -15.619   1.728  1.00  0.00     0.008 A 
HETATM    8  C   UNL     1      41.995 -16.420   2.624  1.00  0.00    -0.057 A 
HETATM    9  C   UNL     1      40.595 -16.456   2.532  1.00  0.00     0.008 A 
HETATM   10  C   UNL     1      39.922 -15.714   1.555  1.00  0.00     0.017 A 
BRANCH   8  11
HETATM   11  C   UNL     1      42.709 -17.207   3.704  1.00  0.00     0.053 C 
BRANCH  11  12
HETATM   12  C   UNL     1      43.224 -16.394   4.904  1.00  0.00     0.091 C 
HETATM   13  C   UNL     1      43.042 -17.145   6.199  1.00  0.00     0.229 C 
HETATM   14  O   UNL     1      43.554 -18.218   6.476  1.00  0.00    -0.273 OA
HETATM   15  N   UNL     1      42.149 -16.479   6.972  1.00  0.00    -0.297 N 
HETATM   16  C   UNL     1      41.659 -15.366   6.374  1.00  0.00     0.225 C 
HETATM   17  H   UNL     1      41.779 -16.854   7.831  1.00  0.00     0.171 HD
HETATM   18  O   UNL     1      40.716 -14.700   6.767  1.00  0.00    -0.273 OA
HETATM   19  C   UNL     1      42.485 -15.079   5.155  1.00  0.00     0.117 C 
ENDBRANCH  11  12
ENDBRANCH   8  11
ENDBRANCH   2   5
BRANCH   1  20
HETATM   20  C   UNL     1      40.325 -11.887   0.671  1.00  0.00     0.133 A 
HETATM   21  C   UNL     1      40.046 -11.629   2.001  1.00  0.00     0.018 A 
HETATM   22  C   UNL     1      41.100 -10.734   2.424  1.00  0.00     0.097 A 
HETATM   23  N   UNL     1      41.901 -10.445   1.380  1.00  0.00    -0.172 NA
HETATM   24  N   UNL     1      41.409 -11.129   0.350  1.00  0.00    -0.261 N 
HETATM   25  H   UNL     1      41.872 -11.028  -0.547  1.00  0.00     0.191 HD
BRANCH  21  26
HETATM   26  C   UNL     1      38.949 -12.264   2.794  1.00  0.00     0.040 C 
HETATM   27  C   UNL     1      39.472 -13.068   3.974  1.00  0.00     0.010 C 
ENDBRANCH  21  26
BRANCH  22  28
HETATM   28  C   UNL     1      41.438 -10.166   3.745  1.00  0.00    -0.002 A 
HETATM   29  C   UNL     1      40.957  -8.893   4.087  1.00  0.00     0.033 A 
HETATM   30  C   UNL     1      41.290  -8.340   5.312  1.00  0.00     0.117 A 
HETATM   31  N   UNL     1      42.071  -8.959   6.218  1.00  0.00    -0.273 NA
HETATM   32  C   UNL     1      42.517 -10.186   5.888  1.00  0.00     0.117 A 
HETATM   33  C   UNL     1      42.227 -10.824   4.689  1.00  0.00     0.033 A 
ENDBRANCH  22  28
ENDBRANCH   1  20
TORSDOF 6
ENDMDL
