MODEL 1
REMARK VINA RESULT:      -9.1      0.000      0.000
REMARK  3 active torsions:
REMARK  status: ('A' for Active; 'I' for Inactive)
REMARK    1  A    between atoms: C_3  and  N_4 
REMARK       I    between atoms: N_4  and  C_5 
REMARK    2  A    between atoms: C_5  and  C_6 
REMARK    3  A    between atoms: C_6  and  N_7 
ROOT
HETATM    1  N   UNL     1      42.844 -14.920   5.390  1.00  0.00    -0.224 N 
HETATM    2  N   UNL     1      42.740 -14.859   3.983  1.00  0.00    -0.180 NA
HETATM    3  C   UNL     1      42.955 -15.928   3.271  1.00  0.00     0.153 A 
HETATM    4  C   UNL     1      43.275 -17.176   3.898  1.00  0.00     0.028 A 
HETATM    5  C   UNL     1      43.349 -17.230   5.268  1.00  0.00     0.116 A 
HETATM    6  N   UNL     1      43.648 -18.512   5.630  1.00  0.00    -0.350 N 
HETATM    7  H   UNL     1      43.752 -18.834   6.584  1.00  0.00     0.166 HD
HETATM    8  C   UNL     1      43.760 -19.298   4.500  1.00  0.00     0.044 A 
HETATM    9  C   UNL     1      43.531 -18.476   3.391  1.00  0.00     0.005 A 
HETATM   10  C   UNL     1      44.040 -20.665   4.378  1.00  0.00     0.030 A 
HETATM   11  C   UNL     1      44.081 -21.205   3.089  1.00  0.00     0.002 A 
HETATM   12  C   UNL     1      43.855 -20.410   1.967  1.00  0.00     0.001 A 
HETATM   13  C   UNL     1      43.580 -19.043   2.103  1.00  0.00     0.014 A 
HETATM   14  C   UNL     1      43.114 -16.098   6.115  1.00  0.00     0.291 A 
HETATM   15  O   UNL     1      43.153 -16.163   7.337  1.00  0.00    -0.264 OA
ENDROOT
BRANCH   1  16
HETATM   16  C   UNL     1      42.381 -13.751   6.117  1.00  0.00     0.258 C 
BRANCH  16  17
HETATM   17  C   UNL     1      43.363 -12.797   6.819  1.00  0.00     0.244 C 
HETATM   18  N   UNL     1      43.650 -11.543   6.270  1.00  0.00    -0.320 N 
HETATM   19  C   UNL     1      43.484 -11.221   4.860  1.00  0.00     0.159 C 
HETATM   20  O   UNL     1      43.735 -13.115   7.959  1.00  0.00    -0.271 OA
BRANCH  18  21
HETATM   21  C   UNL     1      44.315 -10.563   7.073  1.00  0.00     0.042 A 
HETATM   22  C   UNL     1      43.601  -9.577   7.786  1.00  0.00    -0.035 A 
HETATM   23  C   UNL     1      42.102  -9.443   7.735  1.00  0.00     0.050 C 
HETATM   24  C   UNL     1      44.311  -8.654   8.576  1.00  0.00     0.009 A 
HETATM   25  C   UNL     1      45.705  -8.678   8.630  1.00  0.00     0.001 A 
HETATM   26  C   UNL     1      46.409  -9.627   7.897  1.00  0.00     0.002 A 
HETATM   27  C   UNL     1      45.719 -10.560   7.122  1.00  0.00     0.030 A 
ENDBRANCH  18  21
ENDBRANCH  16  17
ENDBRANCH   1  16
TORSDOF 3
ENDMDL
MODEL 2
REMARK VINA RESULT:      -8.9      1.806      8.518
REMARK  3 active torsions:
REMARK  status: ('A' for Active; 'I' for Inactive)
REMARK    1  A    between atoms: C_3  and  N_4 
REMARK       I    between atoms: N_4  and  C_5 
REMARK    2  A    between atoms: C_5  and  C_6 
REMARK    3  A    between atoms: C_6  and  N_7 
ROOT
HETATM    1  N   UNL     1      42.024 -13.210   5.034  1.00  0.00    -0.224 N 
HETATM    2  N   UNL     1      43.099 -13.830   5.706  1.00  0.00    -0.180 NA
HETATM    3  C   UNL     1      43.818 -13.143   6.548  1.00  0.00     0.153 A 
HETATM    4  C   UNL     1      43.518 -11.769   6.820  1.00  0.00     0.028 A 
HETATM    5  C   UNL     1      42.455 -11.182   6.179  1.00  0.00     0.116 A 
HETATM    6  N   UNL     1      42.358  -9.889   6.606  1.00  0.00    -0.350 N 
HETATM    7  H   UNL     1      41.653  -9.231   6.299  1.00  0.00     0.166 HD
HETATM    8  C   UNL     1      43.350  -9.632   7.532  1.00  0.00     0.044 A 
HETATM    9  C   UNL     1      44.099 -10.804   7.683  1.00  0.00     0.005 A 
HETATM   10  C   UNL     1      43.634  -8.460   8.244  1.00  0.00     0.030 A 
HETATM   11  C   UNL     1      44.709  -8.490   9.138  1.00  0.00     0.002 A 
HETATM   12  C   UNL     1      45.471  -9.644   9.310  1.00  0.00     0.001 A 
HETATM   13  C   UNL     1      45.178 -10.808   8.588  1.00  0.00     0.014 A 
HETATM   14  C   UNL     1      41.614 -11.879   5.250  1.00  0.00     0.291 A 
HETATM   15  O   UNL     1      40.650 -11.355   4.705  1.00  0.00    -0.264 OA
ENDROOT
BRANCH   1  16
HETATM   16  C   UNL     1      41.145 -14.091   4.284  1.00  0.00     0.258 C 
BRANCH  16  17
HETATM   17  C   UNL     1      41.499 -15.569   4.047  1.00  0.00     0.244 C 
HETATM   18  N   UNL     1      42.602 -15.918   3.261  1.00  0.00    -0.320 N 
HETATM   19  C   UNL     1      43.185 -15.045   2.252  1.00  0.00     0.159 C 
HETATM   20  O   UNL     1      40.881 -16.409   4.719  1.00  0.00    -0.271 OA
BRANCH  18  21
HETATM   21  C   UNL     1      43.091 -17.263   3.298  1.00  0.00     0.042 A 
HETATM   22  C   UNL     1      43.922 -17.723   4.341  1.00  0.00    -0.035 A 
HETATM   23  C   UNL     1      44.395 -16.847   5.470  1.00  0.00     0.050 C 
HETATM   24  C   UNL     1      44.351 -19.063   4.332  1.00  0.00     0.009 A 
HETATM   25  C   UNL     1      44.002 -19.923   3.292  1.00  0.00     0.001 A 
HETATM   26  C   UNL     1      43.214 -19.457   2.245  1.00  0.00     0.002 A 
HETATM   27  C   UNL     1      42.765 -18.136   2.247  1.00  0.00     0.030 A 
ENDBRANCH  18  21
ENDBRANCH  16  17
ENDBRANCH   1  16
TORSDOF 3
ENDMDL
MODEL 3
REMARK VINA RESULT:      -8.8      4.755      7.231
REMARK  3 active torsions:
REMARK  status: ('A' for Active; 'I' for Inactive)
REMARK    1  A    between atoms: C_3  and  N_4 
REMARK       I    between atoms: N_4  and  C_5 
REMARK    2  A    between atoms: C_5  and  C_6 
REMARK    3  A    between atoms: C_6  and  N_7 
ROOT
HETATM    1  N   UNL     1      42.456 -14.559   2.364  1.00  0.00    -0.224 N 
HETATM    2  N   UNL     1      42.939 -15.538   1.469  1.00  0.00    -0.180 NA
HETATM    3  C   UNL     1      43.314 -16.700   1.922  1.00  0.00     0.153 A 
HETATM    4  C   UNL     1      43.222 -17.010   3.318  1.00  0.00     0.028 A 
HETATM    5  C   UNL     1      42.727 -16.060   4.176  1.00  0.00     0.116 A 
HETATM    6  N   UNL     1      42.720 -16.583   5.437  1.00  0.00    -0.350 N 
HETATM    7  H   UNL     1      42.393 -16.098   6.262  1.00  0.00     0.166 HD
HETATM    8  C   UNL     1      43.200 -17.878   5.403  1.00  0.00     0.044 A 
HETATM    9  C   UNL     1      43.527 -18.170   4.074  1.00  0.00     0.005 A 
HETATM   10  C   UNL     1      43.363 -18.805   6.439  1.00  0.00     0.030 A 
HETATM   11  C   UNL     1      43.870 -20.065   6.107  1.00  0.00     0.002 A 
HETATM   12  C   UNL     1      44.202 -20.384   4.792  1.00  0.00     0.001 A 
HETATM   13  C   UNL     1      44.037 -19.446   3.765  1.00  0.00     0.014 A 
HETATM   14  C   UNL     1      42.285 -14.765   3.748  1.00  0.00     0.291 A 
HETATM   15  O   UNL     1      41.817 -13.934   4.517  1.00  0.00    -0.264 OA
ENDROOT
BRANCH   1  16
HETATM   16  C   UNL     1      41.859 -13.380   1.761  1.00  0.00     0.258 C 
BRANCH  16  17
HETATM   17  C   UNL     1      40.602 -13.475   0.878  1.00  0.00     0.244 C 
HETATM   18  N   UNL     1      40.543 -12.804  -0.347  1.00  0.00    -0.320 N 
HETATM   19  C   UNL     1      41.356 -11.641  -0.673  1.00  0.00     0.159 C 
HETATM   20  O   UNL     1      39.741 -14.302   1.216  1.00  0.00    -0.271 OA
BRANCH  18  21
HETATM   21  C   UNL     1      39.511 -13.141  -1.280  1.00  0.00     0.042 A 
HETATM   22  C   UNL     1      38.255 -12.497  -1.264  1.00  0.00    -0.035 A 
HETATM   23  C   UNL     1      37.879 -11.443  -0.258  1.00  0.00     0.050 C 
HETATM   24  C   UNL     1      37.290 -12.858  -2.222  1.00  0.00     0.009 A 
HETATM   25  C   UNL     1      37.542 -13.866  -3.153  1.00  0.00     0.001 A 
HETATM   26  C   UNL     1      38.766 -14.525  -3.142  1.00  0.00     0.002 A 
HETATM   27  C   UNL     1      39.742 -14.168  -2.211  1.00  0.00     0.030 A 
ENDBRANCH  18  21
ENDBRANCH  16  17
ENDBRANCH   1  16
TORSDOF 3
ENDMDL
MODEL 4
REMARK VINA RESULT:      -8.6      1.874      2.424
REMARK  3 active torsions:
REMARK  status: ('A' for Active; 'I' for Inactive)
REMARK    1  A    between atoms: C_3  and  N_4 
REMARK       I    between atoms: N_4  and  C_5 
REMARK    2  A    between atoms: C_5  and  C_6 
REMARK    3  A    between atoms: C_6  and  N_7 
ROOT
HETATM    1  N   UNL     1      42.870 -14.114   3.791  1.00  0.00    -0.224 N 
HETATM    2  N   UNL     1      43.221 -14.538   5.091  1.00  0.00    -0.180 NA
HETATM    3  C   UNL     1      43.464 -15.797   5.317  1.00  0.00     0.153 A 
HETATM    4  C   UNL     1      43.402 -16.760   4.257  1.00  0.00     0.028 A 
HETATM    5  C   UNL     1      43.084 -16.333   2.992  1.00  0.00     0.116 A 
HETATM    6  N   UNL     1      43.101 -17.413   2.158  1.00  0.00    -0.350 N 
HETATM    7  H   UNL     1      42.912 -17.380   1.164  1.00  0.00     0.166 HD
HETATM    8  C   UNL     1      43.440 -18.545   2.874  1.00  0.00     0.044 A 
HETATM    9  C   UNL     1      43.633 -18.158   4.205  1.00  0.00     0.005 A 
HETATM   10  C   UNL     1      43.594 -19.869   2.445  1.00  0.00     0.030 A 
HETATM   11  C   UNL     1      43.959 -20.821   3.402  1.00  0.00     0.002 A 
HETATM   12  C   UNL     1      44.159 -20.464   4.734  1.00  0.00     0.001 A 
HETATM   13  C   UNL     1      43.999 -19.137   5.150  1.00  0.00     0.014 A 
HETATM   14  C   UNL     1      42.816 -14.962   2.667  1.00  0.00     0.291 A 
HETATM   15  O   UNL     1      42.562 -14.586   1.529  1.00  0.00    -0.264 OA
ENDROOT
BRANCH   1  16
HETATM   16  C   UNL     1      42.829 -12.678   3.577  1.00  0.00     0.258 C 
BRANCH  16  17
HETATM   17  C   UNL     1      43.432 -11.694   4.595  1.00  0.00     0.244 C 
HETATM   18  N   UNL     1      42.802 -11.470   5.823  1.00  0.00    -0.320 N 
HETATM   19  C   UNL     1      41.386 -11.709   6.062  1.00  0.00     0.159 C 
HETATM   20  O   UNL     1      44.569 -11.261   4.351  1.00  0.00    -0.271 OA
BRANCH  18  21
HETATM   21  C   UNL     1      43.520 -10.798   6.864  1.00  0.00     0.042 A 
HETATM   22  C   UNL     1      43.174  -9.497   7.286  1.00  0.00    -0.035 A 
HETATM   23  C   UNL     1      42.063  -8.694   6.663  1.00  0.00     0.050 C 
HETATM   24  C   UNL     1      43.904  -8.900   8.330  1.00  0.00     0.009 A 
HETATM   25  C   UNL     1      44.983  -9.557   8.920  1.00  0.00     0.001 A 
HETATM   26  C   UNL     1      45.346 -10.825   8.478  1.00  0.00     0.002 A 
HETATM   27  C   UNL     1      44.622 -11.439   7.455  1.00  0.00     0.030 A 
ENDBRANCH  18  21
ENDBRANCH  16  17
ENDBRANCH   1  16
TORSDOF 3
ENDMDL
MODEL 5
REMARK VINA RESULT:      -8.6      4.068      6.009
REMARK  3 active torsions:
REMARK  status: ('A' for Active; 'I' for Inactive)
REMARK    1  A    between atoms: C_3  and  N_4 
REMARK       I    between atoms: N_4  and  C_5 
REMARK    2  A    between atoms: C_5  and  C_6 
REMARK    3  A    between atoms: C_6  and  N_7 
ROOT
HETATM    1  N   UNL     1      42.995 -14.402   3.075  1.00  0.00    -0.224 N 
HETATM    2  N   UNL     1      42.995 -15.097   1.847  1.00  0.00    -0.180 NA
HETATM    3  C   UNL     1      43.202 -16.383   1.831  1.00  0.00     0.153 A 
HETATM    4  C   UNL     1      43.407 -17.109   3.050  1.00  0.00     0.028 A 
HETATM    5  C   UNL     1      43.380 -16.427   4.240  1.00  0.00     0.116 A 
HETATM    6  N   UNL     1      43.583 -17.321   5.252  1.00  0.00    -0.350 N 
HETATM    7  H   UNL     1      43.600 -17.087   6.236  1.00  0.00     0.166 HD
HETATM    8  C   UNL     1      43.732 -18.589   4.724  1.00  0.00     0.044 A 
HETATM    9  C   UNL     1      43.627 -18.481   3.333  1.00  0.00     0.005 A 
HETATM   10  C   UNL     1      43.944 -19.813   5.370  1.00  0.00     0.030 A 
HETATM   11  C   UNL     1      44.048 -20.957   4.573  1.00  0.00     0.002 A 
HETATM   12  C   UNL     1      43.947 -20.879   3.185  1.00  0.00     0.001 A 
HETATM   13  C   UNL     1      43.737 -19.648   2.552  1.00  0.00     0.014 A 
HETATM   14  C   UNL     1      43.147 -15.015   4.334  1.00  0.00     0.291 A 
HETATM   15  O   UNL     1      43.095 -14.420   5.404  1.00  0.00    -0.264 OA
ENDROOT
BRANCH   1  16
HETATM   16  C   UNL     1      42.545 -13.021   3.027  1.00  0.00     0.258 C 
BRANCH  16  17
HETATM   17  C   UNL     1      41.519 -12.544   1.985  1.00  0.00     0.244 C 
HETATM   18  N   UNL     1      40.202 -13.012   2.020  1.00  0.00    -0.320 N 
HETATM   19  C   UNL     1      39.804 -14.263   2.649  1.00  0.00     0.159 C 
HETATM   20  O   UNL     1      41.864 -11.610   1.245  1.00  0.00    -0.271 OA
BRANCH  18  21
HETATM   21  C   UNL     1      39.200 -12.341   1.248  1.00  0.00     0.042 A 
HETATM   22  C   UNL     1      38.993 -12.634  -0.117  1.00  0.00    -0.035 A 
HETATM   23  C   UNL     1      39.819 -13.633  -0.883  1.00  0.00     0.050 C 
HETATM   24  C   UNL     1      37.978 -11.955  -0.816  1.00  0.00     0.009 A 
HETATM   25  C   UNL     1      37.208 -10.974  -0.192  1.00  0.00     0.001 A 
HETATM   26  C   UNL     1      37.438 -10.660   1.144  1.00  0.00     0.002 A 
HETATM   27  C   UNL     1      38.430 -11.336   1.856  1.00  0.00     0.030 A 
ENDBRANCH  18  21
ENDBRANCH  16  17
ENDBRANCH   1  16
TORSDOF 3
ENDMDL
MODEL 6
REMARK VINA RESULT:      -8.6      2.084      8.641
REMARK  3 active torsions:
REMARK  status: ('A' for Active; 'I' for Inactive)
REMARK    1  A    between atoms: C_3  and  N_4 
REMARK       I    between atoms: N_4  and  C_5 
REMARK    2  A    between atoms: C_5  and  C_6 
REMARK    3  A    between atoms: C_6  and  N_7 
ROOT
HETATM    1  N   UNL     1      42.995 -11.727   4.849  1.00  0.00    -0.224 N 
HETATM    2  N   UNL     1      44.385 -11.811   5.079  1.00  0.00    -0.180 NA
HETATM    3  C   UNL     1      44.888 -11.337   6.183  1.00  0.00     0.153 A 
HETATM    4  C   UNL     1      44.045 -10.750   7.182  1.00  0.00     0.028 A 
HETATM    5  C   UNL     1      42.692 -10.696   6.959  1.00  0.00     0.116 A 
HETATM    6  N   UNL     1      42.101 -10.115   8.044  1.00  0.00    -0.350 N 
HETATM    7  H   UNL     1      41.106  -9.961   8.147  1.00  0.00     0.166 HD
HETATM    8  C   UNL     1      43.066  -9.797   8.981  1.00  0.00     0.044 A 
HETATM    9  C   UNL     1      44.304 -10.187   8.458  1.00  0.00     0.005 A 
HETATM   10  C   UNL     1      42.934  -9.205  10.242  1.00  0.00     0.030 A 
HETATM   11  C   UNL     1      44.099  -9.009  10.991  1.00  0.00     0.002 A 
HETATM   12  C   UNL     1      45.345  -9.389  10.496  1.00  0.00     0.001 A 
HETATM   13  C   UNL     1      45.463  -9.978   9.231  1.00  0.00     0.014 A 
HETATM   14  C   UNL     1      42.068 -11.208   5.774  1.00  0.00     0.291 A 
HETATM   15  O   UNL     1      40.856 -11.182   5.597  1.00  0.00    -0.264 OA
ENDROOT
BRANCH   1  16
HETATM   16  C   UNL     1      42.491 -12.467   3.705  1.00  0.00     0.258 C 
BRANCH  16  17
HETATM   17  C   UNL     1      43.015 -13.872   3.360  1.00  0.00     0.244 C 
HETATM   18  N   UNL     1      42.601 -14.985   4.100  1.00  0.00    -0.320 N 
HETATM   19  C   UNL     1      42.091 -14.907   5.461  1.00  0.00     0.159 C 
HETATM   20  O   UNL     1      43.661 -13.988   2.308  1.00  0.00    -0.271 OA
BRANCH  18  21
HETATM   21  C   UNL     1      42.851 -16.298   3.587  1.00  0.00     0.042 A 
HETATM   22  C   UNL     1      42.074 -16.850   2.547  1.00  0.00    -0.035 A 
HETATM   23  C   UNL     1      40.906 -16.137   1.918  1.00  0.00     0.050 C 
HETATM   24  C   UNL     1      42.384 -18.138   2.072  1.00  0.00     0.009 A 
HETATM   25  C   UNL     1      43.415 -18.885   2.641  1.00  0.00     0.001 A 
HETATM   26  C   UNL     1      44.155 -18.354   3.691  1.00  0.00     0.002 A 
HETATM   27  C   UNL     1      43.872 -17.071   4.163  1.00  0.00     0.030 A 
ENDBRANCH  18  21
ENDBRANCH  16  17
ENDBRANCH   1  16
TORSDOF 3
ENDMDL
MODEL 7
REMARK VINA RESULT:      -8.3      2.664      4.091
REMARK  3 active torsions:
REMARK  status: ('A' for Active; 'I' for Inactive)
REMARK    1  A    between atoms: C_3  and  N_4 
REMARK       I    between atoms: N_4  and  C_5 
REMARK    2  A    between atoms: C_5  and  C_6 
REMARK    3  A    between atoms: C_6  and  N_7 
ROOT
HETATM    1  N   UNL     1      43.017 -14.506   5.258  1.00  0.00    -0.224 N 
HETATM    2  N   UNL     1      42.685 -14.574   3.888  1.00  0.00    -0.180 NA
HETATM    3  C   UNL     1      42.798 -15.704   3.249  1.00  0.00     0.153 A 
HETATM    4  C   UNL     1      43.233 -16.889   3.926  1.00  0.00     0.028 A 
HETATM    5  C   UNL     1      43.529 -16.818   5.265  1.00  0.00     0.116 A 
HETATM    6  N   UNL     1      43.902 -18.061   5.688  1.00  0.00    -0.350 N 
HETATM    7  H   UNL     1      44.164 -18.294   6.637  1.00  0.00     0.166 HD
HETATM    8  C   UNL     1      43.842 -18.947   4.631  1.00  0.00     0.044 A 
HETATM    9  C   UNL     1      43.423 -18.230   3.504  1.00  0.00     0.005 A 
HETATM   10  C   UNL     1      44.118 -20.319   4.589  1.00  0.00     0.030 A 
HETATM   11  C   UNL     1      43.958 -20.976   3.365  1.00  0.00     0.002 A 
HETATM   12  C   UNL     1      43.541 -20.287   2.227  1.00  0.00     0.001 A 
HETATM   13  C   UNL     1      43.271 -18.914   2.282  1.00  0.00     0.014 A 
HETATM   14  C   UNL     1      43.417 -15.613   6.033  1.00  0.00     0.291 A 
HETATM   15  O   UNL     1      43.655 -15.565   7.234  1.00  0.00    -0.264 OA
ENDROOT
BRANCH   1  16
HETATM   16  C   UNL     1      42.659 -13.275   5.942  1.00  0.00     0.258 C 
BRANCH  16  17
HETATM   17  C   UNL     1      41.453 -12.429   5.499  1.00  0.00     0.244 C 
HETATM   18  N   UNL     1      41.593 -11.462   4.498  1.00  0.00    -0.320 N 
HETATM   19  C   UNL     1      42.861 -10.837   4.150  1.00  0.00     0.159 C 
HETATM   20  O   UNL     1      40.341 -12.765   5.935  1.00  0.00    -0.271 OA
BRANCH  18  21
HETATM   21  C   UNL     1      40.421 -10.906   3.894  1.00  0.00     0.042 A 
HETATM   22  C   UNL     1      39.827 -11.484   2.752  1.00  0.00    -0.035 A 
HETATM   23  C   UNL     1      40.386 -12.696   2.053  1.00  0.00     0.050 C 
HETATM   24  C   UNL     1      38.663 -10.902   2.218  1.00  0.00     0.009 A 
HETATM   25  C   UNL     1      38.116  -9.746   2.774  1.00  0.00     0.001 A 
HETATM   26  C   UNL     1      38.724  -9.156   3.877  1.00  0.00     0.002 A 
HETATM   27  C   UNL     1      39.870  -9.730   4.430  1.00  0.00     0.030 A 
ENDBRANCH  18  21
ENDBRANCH  16  17
ENDBRANCH   1  16
TORSDOF 3
ENDMDL
MODEL 8
REMARK VINA RESULT:      -8.3      4.914      8.893
REMARK  3 active torsions:
REMARK  status: ('A' for Active; 'I' for Inactive)
REMARK    1  A    between atoms: C_3  and  N_4 
REMARK       I    between atoms: N_4  and  C_5 
REMARK    2  A    between atoms: C_5  and  C_6 
REMARK    3  A    between atoms: C_6  and  N_7 
ROOT
HETATM    1  N   UNL     1      41.179 -12.508   2.144  1.00  0.00    -0.224 N 
HETATM    2  N   UNL     1      40.617 -13.248   1.081  1.00  0.00    -0.180 NA
HETATM    3  C   UNL     1      40.516 -12.708  -0.100  1.00  0.00     0.153 A 
HETATM    4  C   UNL     1      40.990 -11.378  -0.343  1.00  0.00     0.028 A 
HETATM    5  C   UNL     1      41.558 -10.677   0.691  1.00  0.00     0.116 A 
HETATM    6  N   UNL     1      41.943  -9.455   0.221  1.00  0.00    -0.350 N 
HETATM    7  H   UNL     1      42.399  -8.740   0.773  1.00  0.00     0.166 HD
HETATM    8  C   UNL     1      41.636  -9.359  -1.123  1.00  0.00     0.044 A 
HETATM    9  C   UNL     1      41.030 -10.562  -1.503  1.00  0.00     0.005 A 
HETATM   10  C   UNL     1      41.854  -8.309  -2.023  1.00  0.00     0.030 A 
HETATM   11  C   UNL     1      41.445  -8.495  -3.347  1.00  0.00     0.002 A 
HETATM   12  C   UNL     1      40.840  -9.683  -3.753  1.00  0.00     0.001 A 
HETATM   13  C   UNL     1      40.626 -10.725  -2.842  1.00  0.00     0.014 A 
HETATM   14  C   UNL     1      41.712 -11.210   2.013  1.00  0.00     0.291 A 
HETATM   15  O   UNL     1      42.247 -10.588   2.923  1.00  0.00    -0.264 OA
ENDROOT
BRANCH   1  16
HETATM   16  C   UNL     1      41.454 -13.250   3.363  1.00  0.00     0.258 C 
BRANCH  16  17
HETATM   17  C   UNL     1      42.372 -14.484   3.365  1.00  0.00     0.244 C 
HETATM   18  N   UNL     1      41.932 -15.694   3.911  1.00  0.00    -0.320 N 
HETATM   19  C   UNL     1      40.872 -15.797   4.903  1.00  0.00     0.159 C 
HETATM   20  O   UNL     1      43.424 -14.402   2.713  1.00  0.00    -0.271 OA
BRANCH  18  21
HETATM   21  C   UNL     1      42.666 -16.893   3.637  1.00  0.00     0.042 A 
HETATM   22  C   UNL     1      43.701 -17.341   4.486  1.00  0.00    -0.035 A 
HETATM   23  C   UNL     1      44.146 -16.592   5.714  1.00  0.00     0.050 C 
HETATM   24  C   UNL     1      44.371 -18.538   4.174  1.00  0.00     0.009 A 
HETATM   25  C   UNL     1      44.054 -19.260   3.023  1.00  0.00     0.001 A 
HETATM   26  C   UNL     1      43.060 -18.797   2.168  1.00  0.00     0.002 A 
HETATM   27  C   UNL     1      42.374 -17.620   2.472  1.00  0.00     0.030 A 
ENDBRANCH  18  21
ENDBRANCH  16  17
ENDBRANCH   1  16
TORSDOF 3
ENDMDL
MODEL 9
REMARK VINA RESULT:      -8.3      2.567      4.216
REMARK  3 active torsions:
REMARK  status: ('A' for Active; 'I' for Inactive)
REMARK    1  A    between atoms: C_3  and  N_4 
REMARK       I    between atoms: N_4  and  C_5 
REMARK    2  A    between atoms: C_5  and  C_6 
REMARK    3  A    between atoms: C_6  and  N_7 
ROOT
HETATM    1  N   UNL     1      43.079 -11.616   5.877  1.00  0.00    -0.224 N 
HETATM    2  N   UNL     1      43.150 -12.718   6.757  1.00  0.00    -0.180 NA
HETATM    3  C   UNL     1      43.162 -13.929   6.278  1.00  0.00     0.153 A 
HETATM    4  C   UNL     1      43.128 -14.160   4.864  1.00  0.00     0.028 A 
HETATM    5  C   UNL     1      43.084 -13.081   4.016  1.00  0.00     0.116 A 
HETATM    6  N   UNL     1      43.074 -13.545   2.732  1.00  0.00    -0.350 N 
HETATM    7  H   UNL     1      43.054 -12.960   1.907  1.00  0.00     0.166 HD
HETATM    8  C   UNL     1      43.120 -14.925   2.739  1.00  0.00     0.044 A 
HETATM    9  C   UNL     1      43.153 -15.339   4.075  1.00  0.00     0.005 A 
HETATM   10  C   UNL     1      43.142 -15.830   1.670  1.00  0.00     0.030 A 
HETATM   11  C   UNL     1      43.202 -17.193   1.977  1.00  0.00     0.002 A 
HETATM   12  C   UNL     1      43.237 -17.633   3.299  1.00  0.00     0.001 A 
HETATM   13  C   UNL     1      43.211 -16.717   4.358  1.00  0.00     0.014 A 
HETATM   14  C   UNL     1      43.080 -11.722   4.472  1.00  0.00     0.291 A 
HETATM   15  O   UNL     1      43.071 -10.765   3.707  1.00  0.00    -0.264 OA
ENDROOT
BRANCH   1  16
HETATM   16  C   UNL     1      43.288 -10.308   6.473  1.00  0.00     0.258 C 
BRANCH  16  17
HETATM   17  C   UNL     1      42.862 -10.005   7.920  1.00  0.00     0.244 C 
HETATM   18  N   UNL     1      43.822  -9.871   8.929  1.00  0.00    -0.320 N 
HETATM   19  C   UNL     1      45.156 -10.451   8.858  1.00  0.00     0.159 C 
HETATM   20  O   UNL     1      41.671  -9.712   8.105  1.00  0.00    -0.271 OA
BRANCH  18  21
HETATM   21  C   UNL     1      43.442  -9.298  10.184  1.00  0.00     0.042 A 
HETATM   22  C   UNL     1      43.302  -7.905  10.354  1.00  0.00    -0.035 A 
HETATM   23  C   UNL     1      43.573  -6.907   9.259  1.00  0.00     0.050 C 
HETATM   24  C   UNL     1      42.904  -7.405  11.607  1.00  0.00     0.009 A 
HETATM   25  C   UNL     1      42.689  -8.260  12.687  1.00  0.00     0.001 A 
HETATM   26  C   UNL     1      42.864  -9.631  12.528  1.00  0.00     0.002 A 
HETATM   27  C   UNL     1      43.241 -10.145  11.287  1.00  0.00     0.030 A 
ENDBRANCH  18  21
ENDBRANCH  16  17
ENDBRANCH   1  16
TORSDOF 3
ENDMDL
MODEL 10
REMARK VINA RESULT:      -8.2      3.610      4.427
REMARK  3 active torsions:
REMARK  status: ('A' for Active; 'I' for Inactive)
REMARK    1  A    between atoms: C_3  and  N_4 
REMARK       I    between atoms: N_4  and  C_5 
REMARK    2  A    between atoms: C_5  and  C_6 
REMARK    3  A    between atoms: C_6  and  N_7 
ROOT
HETATM    1  N   UNL     1      43.059 -14.415   3.333  1.00  0.00    -0.224 N 
HETATM    2  N   UNL     1      43.239 -14.624   4.718  1.00  0.00    -0.180 NA
HETATM    3  C   UNL     1      43.412 -15.832   5.173  1.00  0.00     0.153 A 
HETATM    4  C   UNL     1      43.444 -16.955   4.283  1.00  0.00     0.028 A 
HETATM    5  C   UNL     1      43.293 -16.738   2.936  1.00  0.00     0.116 A 
HETATM    6  N   UNL     1      43.374 -17.941   2.296  1.00  0.00    -0.350 N 
HETATM    7  H   UNL     1      43.306 -18.069   1.295  1.00  0.00     0.166 HD
HETATM    8  C   UNL     1      43.587 -18.943   3.222  1.00  0.00     0.044 A 
HETATM    9  C   UNL     1      43.633 -18.345   4.486  1.00  0.00     0.005 A 
HETATM   10  C   UNL     1      43.748 -20.322   3.035  1.00  0.00     0.030 A 
HETATM   11  C   UNL     1      43.964 -21.109   4.170  1.00  0.00     0.002 A 
HETATM   12  C   UNL     1      44.016 -20.540   5.442  1.00  0.00     0.001 A 
HETATM   13  C   UNL     1      43.851 -19.160   5.615  1.00  0.00     0.014 A 
HETATM   14  C   UNL     1      43.111 -15.436   2.363  1.00  0.00     0.291 A 
HETATM   15  O   UNL     1      43.007 -15.249   1.157  1.00  0.00    -0.264 OA
ENDROOT
BRANCH   1  16
HETATM   16  C   UNL     1      43.092 -13.033   2.886  1.00  0.00     0.258 C 
BRANCH  16  17
HETATM   17  C   UNL     1      42.126 -11.979   3.455  1.00  0.00     0.244 C 
HETATM   18  N   UNL     1      40.743 -12.145   3.332  1.00  0.00    -0.320 N 
HETATM   19  C   UNL     1      40.114 -12.972   2.312  1.00  0.00     0.159 C 
HETATM   20  O   UNL     1      42.620 -11.092   4.169  1.00  0.00    -0.271 OA
BRANCH  18  21
HETATM   21  C   UNL     1      39.868 -11.328   4.118  1.00  0.00     0.042 A 
HETATM   22  C   UNL     1      39.475 -11.699   5.421  1.00  0.00    -0.035 A 
HETATM   23  C   UNL     1      39.900 -12.986   6.078  1.00  0.00     0.050 C 
HETATM   24  C   UNL     1      38.630 -10.843   6.150  1.00  0.00     0.009 A 
HETATM   25  C   UNL     1      38.147  -9.661   5.590  1.00  0.00     0.001 A 
HETATM   26  C   UNL     1      38.506  -9.314   4.292  1.00  0.00     0.002 A 
HETATM   27  C   UNL     1      39.357 -10.144   3.560  1.00  0.00     0.030 A 
ENDBRANCH  18  21
ENDBRANCH  16  17
ENDBRANCH   1  16
TORSDOF 3
ENDMDL
