MODEL 1
REMARK VINA RESULT:      -8.2      0.000      0.000
REMARK  4 active torsions:
REMARK  status: ('A' for Active; 'I' for Inactive)
REMARK    1  A    between atoms: C_2  and  C_3 
REMARK    2  A    between atoms: C_4  and  C_5 
REMARK       I    between atoms: C_5  and  N_6 
REMARK    3  A    between atoms: N_6  and  C_7 
REMARK    4  A    between atoms: C_14  and  C_15 
REMARK       I    between atoms: C_15  and  N_16 
ROOT
HETATM    1  C   UNL     1      43.418 -12.049   6.898  1.00  0.00     0.035 A 
HETATM    2  C   UNL     1      43.306 -10.811   7.554  1.00  0.00     0.046 A 
HETATM    3  C   UNL     1      44.452 -10.007   7.732  1.00  0.00     0.030 A 
HETATM    4  C   UNL     1      45.674 -10.471   7.263  1.00  0.00     0.063 A 
HETATM    5  N   UNL     1      46.577  -9.495   7.575  1.00  0.00    -0.277 N 
HETATM    6  H   UNL     1      47.572  -9.497   7.383  1.00  0.00     0.189 HD
HETATM    7  N   UNL     1      46.049  -8.428   8.200  1.00  0.00    -0.168 NA
HETATM    8  C   UNL     1      44.736  -8.732   8.304  1.00  0.00     0.156 A 
HETATM    9  C   UNL     1      45.822 -11.701   6.619  1.00  0.00     0.034 A 
HETATM   10  C   UNL     1      44.668 -12.477   6.446  1.00  0.00     0.032 A 
ENDROOT
BRANCH   1  11
HETATM   11  N   UNL     1      42.232 -12.796   6.744  1.00  0.00    -0.327 N 
HETATM   12  C   UNL     1      41.625 -13.165   5.562  1.00  0.00     0.227 C 
HETATM   13  O   UNL     1      41.954 -12.846   4.429  1.00  0.00    -0.273 OA
HETATM   14  H   UNL     1      41.750 -13.049   7.596  1.00  0.00     0.169 HD
BRANCH  12  15
HETATM   15  C   UNL     1      40.373 -13.954   5.736  1.00  0.00     0.087 A 
HETATM   16  C   UNL     1      40.240 -15.380   5.228  1.00  0.00     0.032 A 
HETATM   17  C   UNL     1      40.226 -15.088   6.713  1.00  0.00     0.025 A 
BRANCH  16  18
HETATM   18  C   UNL     1      41.384 -16.197   4.668  1.00  0.00    -0.053 A 
HETATM   19  C   UNL     1      42.319 -16.807   5.526  1.00  0.00     0.009 A 
HETATM   20  C   UNL     1      43.369 -17.587   5.032  1.00  0.00     0.024 A 
HETATM   21  C   UNL     1      43.500 -17.777   3.661  1.00  0.00     0.034 A 
HETATM   22  C   UNL     1      42.584 -17.204   2.787  1.00  0.00     0.024 A 
HETATM   23 CL   UNL     1      44.793 -18.731   3.047  1.00  0.00    -0.084 Cl
HETATM   24  C   UNL     1      41.530 -16.434   3.291  1.00  0.00     0.009 A 
ENDBRANCH  16  18
ENDBRANCH  12  15
ENDBRANCH   1  11
BRANCH   8  25
HETATM   25  C   UNL     1      43.782  -7.808   8.933  1.00  0.00     0.270 C 
HETATM   26  N   UNL     1      43.413  -8.164  10.202  1.00  0.00    -0.365 N 
HETATM   27  H   UNL     1      43.814  -9.004  10.605  1.00  0.00     0.159 HD
HETATM   28  H   UNL     1      42.770  -7.587  10.719  1.00  0.00     0.159 HD
HETATM   29  O   UNL     1      43.339  -6.798   8.397  1.00  0.00    -0.266 OA
ENDBRANCH   8  25
TORSDOF 4
ENDMDL
MODEL 2
REMARK VINA RESULT:      -8.2      6.050      8.226
REMARK  4 active torsions:
REMARK  status: ('A' for Active; 'I' for Inactive)
REMARK    1  A    between atoms: C_2  and  C_3 
REMARK    2  A    between atoms: C_4  and  C_5 
REMARK       I    between atoms: C_5  and  N_6 
REMARK    3  A    between atoms: N_6  and  C_7 
REMARK    4  A    between atoms: C_14  and  C_15 
REMARK       I    between atoms: C_15  and  N_16 
ROOT
HETATM    1  C   UNL     1      40.944 -14.944   1.459  1.00  0.00     0.035 A 
HETATM    2  C   UNL     1      40.361 -14.718   0.200  1.00  0.00     0.046 A 
HETATM    3  C   UNL     1      39.620 -13.538  -0.025  1.00  0.00     0.030 A 
HETATM    4  C   UNL     1      39.471 -12.632   1.017  1.00  0.00     0.063 A 
HETATM    5  N   UNL     1      38.718 -11.612   0.506  1.00  0.00    -0.277 N 
HETATM    6  H   UNL     1      38.413 -10.776   0.989  1.00  0.00     0.189 HD
HETATM    7  N   UNL     1      38.370 -11.770  -0.783  1.00  0.00    -0.168 NA
HETATM    8  C   UNL     1      38.920 -12.958  -1.123  1.00  0.00     0.156 A 
HETATM    9  C   UNL     1      40.025 -12.833   2.282  1.00  0.00     0.034 A 
HETATM   10  C   UNL     1      40.765 -14.007   2.479  1.00  0.00     0.032 A 
ENDROOT
BRANCH   1  11
HETATM   11  N   UNL     1      41.681 -16.137   1.614  1.00  0.00    -0.327 N 
HETATM   12  C   UNL     1      43.052 -16.269   1.678  1.00  0.00     0.227 C 
HETATM   13  O   UNL     1      43.889 -15.389   1.534  1.00  0.00    -0.273 OA
HETATM   14  H   UNL     1      41.144 -16.994   1.632  1.00  0.00     0.169 HD
BRANCH  12  15
HETATM   15  C   UNL     1      43.526 -17.671   1.842  1.00  0.00     0.087 A 
HETATM   16  C   UNL     1      43.895 -18.246   3.200  1.00  0.00     0.032 A 
HETATM   17  C   UNL     1      42.696 -18.773   2.442  1.00  0.00     0.025 A 
BRANCH  16  18
HETATM   18  C   UNL     1      43.659 -17.542   4.517  1.00  0.00    -0.053 A 
HETATM   19  C   UNL     1      44.743 -17.129   5.316  1.00  0.00     0.009 A 
HETATM   20  C   UNL     1      44.549 -16.453   6.525  1.00  0.00     0.024 A 
HETATM   21  C   UNL     1      43.258 -16.173   6.958  1.00  0.00     0.034 A 
HETATM   22  C   UNL     1      42.166 -16.551   6.186  1.00  0.00     0.024 A 
HETATM   23 CL   UNL     1      43.013 -15.348   8.448  1.00  0.00    -0.084 Cl
HETATM   24  C   UNL     1      42.370 -17.216   4.972  1.00  0.00     0.009 A 
ENDBRANCH  16  18
ENDBRANCH  12  15
ENDBRANCH   1  11
BRANCH   8  25
HETATM   25  C   UNL     1      38.778 -13.508  -2.478  1.00  0.00     0.270 C 
HETATM   26  N   UNL     1      37.603 -14.176  -2.689  1.00  0.00    -0.365 N 
HETATM   27  H   UNL     1      36.936 -14.235  -1.928  1.00  0.00     0.159 HD
HETATM   28  H   UNL     1      37.409 -14.581  -3.591  1.00  0.00     0.159 HD
HETATM   29  O   UNL     1      39.619 -13.395  -3.364  1.00  0.00    -0.266 OA
ENDBRANCH   8  25
TORSDOF 4
ENDMDL
MODEL 3
REMARK VINA RESULT:      -8.2      4.448      5.712
REMARK  4 active torsions:
REMARK  status: ('A' for Active; 'I' for Inactive)
REMARK    1  A    between atoms: C_2  and  C_3 
REMARK    2  A    between atoms: C_4  and  C_5 
REMARK       I    between atoms: C_5  and  N_6 
REMARK    3  A    between atoms: N_6  and  C_7 
REMARK    4  A    between atoms: C_14  and  C_15 
REMARK       I    between atoms: C_15  and  N_16 
ROOT
HETATM    1  C   UNL     1      41.148 -14.450   4.294  1.00  0.00     0.035 A 
HETATM    2  C   UNL     1      40.688 -13.139   4.512  1.00  0.00     0.046 A 
HETATM    3  C   UNL     1      39.762 -12.565   3.615  1.00  0.00     0.030 A 
HETATM    4  C   UNL     1      39.338 -13.310   2.523  1.00  0.00     0.063 A 
HETATM    5  N   UNL     1      38.463 -12.503   1.851  1.00  0.00    -0.277 N 
HETATM    6  H   UNL     1      37.959 -12.722   1.000  1.00  0.00     0.189 HD
HETATM    7  N   UNL     1      38.273 -11.297   2.416  1.00  0.00    -0.168 NA
HETATM    8  C   UNL     1      39.072 -11.322   3.506  1.00  0.00     0.156 A 
HETATM    9  C   UNL     1      39.784 -14.608   2.270  1.00  0.00     0.034 A 
HETATM   10  C   UNL     1      40.696 -15.161   3.180  1.00  0.00     0.032 A 
ENDROOT
BRANCH   1  11
HETATM   11  N   UNL     1      42.062 -14.968   5.234  1.00  0.00    -0.327 N 
HETATM   12  C   UNL     1      41.816 -15.916   6.204  1.00  0.00     0.227 C 
HETATM   13  O   UNL     1      40.742 -16.427   6.485  1.00  0.00    -0.273 OA
HETATM   14  H   UNL     1      42.990 -14.563   5.223  1.00  0.00     0.169 HD
BRANCH  12  15
HETATM   15  C   UNL     1      42.998 -16.250   7.048  1.00  0.00     0.087 A 
HETATM   16  C   UNL     1      43.920 -17.414   6.721  1.00  0.00     0.032 A 
HETATM   17  C   UNL     1      44.422 -15.989   6.639  1.00  0.00     0.025 A 
BRANCH  16  18
HETATM   18  C   UNL     1      43.852 -18.226   5.447  1.00  0.00    -0.053 A 
HETATM   19  C   UNL     1      43.841 -17.591   4.190  1.00  0.00     0.009 A 
HETATM   20  C   UNL     1      43.804 -18.322   2.998  1.00  0.00     0.024 A 
HETATM   21  C   UNL     1      43.782 -19.711   3.043  1.00  0.00     0.034 A 
HETATM   22  C   UNL     1      43.810 -20.370   4.267  1.00  0.00     0.024 A 
HETATM   23 CL   UNL     1      43.731 -20.616   1.581  1.00  0.00    -0.084 Cl
HETATM   24  C   UNL     1      43.858 -19.631   5.453  1.00  0.00     0.009 A 
ENDBRANCH  16  18
ENDBRANCH  12  15
ENDBRANCH   1  11
BRANCH   8  25
HETATM   25  C   UNL     1      39.154 -10.176   4.422  1.00  0.00     0.270 C 
HETATM   26  N   UNL     1      37.940  -9.656   4.777  1.00  0.00    -0.365 N 
HETATM   27  H   UNL     1      37.101 -10.085   4.403  1.00  0.00     0.159 HD
HETATM   28  H   UNL     1      37.893  -8.873   5.409  1.00  0.00     0.159 HD
HETATM   29  O   UNL     1      40.203  -9.705   4.850  1.00  0.00    -0.266 OA
ENDBRANCH   8  25
TORSDOF 4
ENDMDL
MODEL 4
REMARK VINA RESULT:      -8.2      2.330      3.518
REMARK  4 active torsions:
REMARK  status: ('A' for Active; 'I' for Inactive)
REMARK    1  A    between atoms: C_2  and  C_3 
REMARK    2  A    between atoms: C_4  and  C_5 
REMARK       I    between atoms: C_5  and  N_6 
REMARK    3  A    between atoms: N_6  and  C_7 
REMARK    4  A    between atoms: C_14  and  C_15 
REMARK       I    between atoms: C_15  and  N_16 
ROOT
HETATM    1  C   UNL     1      42.959 -13.313   6.187  1.00  0.00     0.035 A 
HETATM    2  C   UNL     1      43.887 -12.519   6.882  1.00  0.00     0.046 A 
HETATM    3  C   UNL     1      43.586 -11.167   7.152  1.00  0.00     0.030 A 
HETATM    4  C   UNL     1      42.378 -10.649   6.706  1.00  0.00     0.063 A 
HETATM    5  N   UNL     1      42.372  -9.342   7.109  1.00  0.00    -0.277 N 
HETATM    6  H   UNL     1      41.642  -8.657   6.953  1.00  0.00     0.189 HD
HETATM    7  N   UNL     1      43.470  -8.966   7.787  1.00  0.00    -0.168 NA
HETATM    8  C   UNL     1      44.229 -10.084   7.820  1.00  0.00     0.156 A 
HETATM    9  C   UNL     1      41.440 -11.406   6.002  1.00  0.00     0.034 A 
HETATM   10  C   UNL     1      41.758 -12.749   5.754  1.00  0.00     0.032 A 
ENDROOT
BRANCH   1  11
HETATM   11  N   UNL     1      43.318 -14.659   5.961  1.00  0.00    -0.327 N 
HETATM   12  C   UNL     1      42.768 -15.779   6.547  1.00  0.00     0.227 C 
HETATM   13  O   UNL     1      41.924 -15.815   7.430  1.00  0.00    -0.273 OA
HETATM   14  H   UNL     1      44.096 -14.814   5.333  1.00  0.00     0.169 HD
BRANCH  12  15
HETATM   15  C   UNL     1      43.372 -17.064   6.097  1.00  0.00     0.087 A 
HETATM   16  C   UNL     1      43.179 -17.598   4.686  1.00  0.00     0.032 A 
HETATM   17  C   UNL     1      44.546 -17.158   5.161  1.00  0.00     0.025 A 
BRANCH  16  18
HETATM   18  C   UNL     1      42.526 -16.823   3.563  1.00  0.00    -0.053 A 
HETATM   19  C   UNL     1      43.271 -16.424   2.436  1.00  0.00     0.009 A 
HETATM   20  C   UNL     1      42.682 -15.730   1.375  1.00  0.00     0.024 A 
HETATM   21  C   UNL     1      41.327 -15.424   1.419  1.00  0.00     0.034 A 
HETATM   22  C   UNL     1      40.558 -15.819   2.508  1.00  0.00     0.024 A 
HETATM   23 CL   UNL     1      40.598 -14.565   0.119  1.00  0.00    -0.084 Cl
HETATM   24  C   UNL     1      41.153 -16.522   3.560  1.00  0.00     0.009 A 
ENDBRANCH  16  18
ENDBRANCH  12  15
ENDBRANCH   1  11
BRANCH   8  25
HETATM   25  C   UNL     1      45.538 -10.103   8.489  1.00  0.00     0.270 C 
HETATM   26  N   UNL     1      46.512  -9.404   7.829  1.00  0.00    -0.365 N 
HETATM   27  H   UNL     1      46.270  -8.936   6.963  1.00  0.00     0.159 HD
HETATM   28  H   UNL     1      47.441  -9.351   8.215  1.00  0.00     0.159 HD
HETATM   29  O   UNL     1      45.767 -10.681   9.546  1.00  0.00    -0.266 OA
ENDBRANCH   8  25
TORSDOF 4
ENDMDL
MODEL 5
REMARK VINA RESULT:      -8.0      4.784      7.265
REMARK  4 active torsions:
REMARK  status: ('A' for Active; 'I' for Inactive)
REMARK    1  A    between atoms: C_2  and  C_3 
REMARK    2  A    between atoms: C_4  and  C_5 
REMARK       I    between atoms: C_5  and  N_6 
REMARK    3  A    between atoms: N_6  and  C_7 
REMARK    4  A    between atoms: C_14  and  C_15 
REMARK       I    between atoms: C_15  and  N_16 
ROOT
HETATM    1  C   UNL     1      42.351 -16.277   2.430  1.00  0.00     0.035 A 
HETATM    2  C   UNL     1      42.202 -16.143   3.821  1.00  0.00     0.046 A 
HETATM    3  C   UNL     1      42.835 -17.063   4.684  1.00  0.00     0.030 A 
HETATM    4  C   UNL     1      43.583 -18.094   4.131  1.00  0.00     0.063 A 
HETATM    5  N   UNL     1      44.061 -18.806   5.195  1.00  0.00    -0.277 N 
HETATM    6  H   UNL     1      44.647 -19.632   5.165  1.00  0.00     0.189 HD
HETATM    7  N   UNL     1      43.697 -18.323   6.396  1.00  0.00    -0.168 NA
HETATM    8  C   UNL     1      42.938 -17.246   6.095  1.00  0.00     0.156 A 
HETATM    9  C   UNL     1      43.740 -18.264   2.755  1.00  0.00     0.034 A 
HETATM   10  C   UNL     1      43.110 -17.332   1.918  1.00  0.00     0.032 A 
ENDROOT
BRANCH   1  11
HETATM   11  N   UNL     1      41.702 -15.318   1.625  1.00  0.00    -0.327 N 
HETATM   12  C   UNL     1      40.347 -15.079   1.539  1.00  0.00     0.227 C 
HETATM   13  O   UNL     1      39.448 -15.705   2.081  1.00  0.00    -0.273 OA
HETATM   14  H   UNL     1      42.296 -14.778   1.009  1.00  0.00     0.169 HD
BRANCH  12  15
HETATM   15  C   UNL     1      39.976 -13.993   0.589  1.00  0.00     0.087 A 
HETATM   16  C   UNL     1      40.093 -12.523   0.957  1.00  0.00     0.032 A 
HETATM   17  C   UNL     1      40.975 -13.118  -0.118  1.00  0.00     0.025 A 
BRANCH  16  18
HETATM   18  C   UNL     1      40.748 -12.008   2.220  1.00  0.00    -0.053 A 
HETATM   19  C   UNL     1      40.018 -11.913   3.421  1.00  0.00     0.009 A 
HETATM   20  C   UNL     1      40.609 -11.464   4.606  1.00  0.00     0.024 A 
HETATM   21  C   UNL     1      41.953 -11.105   4.612  1.00  0.00     0.034 A 
HETATM   22  C   UNL     1      42.707 -11.205   3.449  1.00  0.00     0.024 A 
HETATM   23 CL   UNL     1      42.685 -10.548   6.066  1.00  0.00    -0.084 Cl
HETATM   24  C   UNL     1      42.109 -11.665   2.271  1.00  0.00     0.009 A 
ENDBRANCH  16  18
ENDBRANCH  12  15
ENDBRANCH   1  11
BRANCH   8  25
HETATM   25  C   UNL     1      42.337 -16.413   7.146  1.00  0.00     0.270 C 
HETATM   26  N   UNL     1      43.199 -16.080   8.155  1.00  0.00    -0.365 N 
HETATM   27  H   UNL     1      44.155 -16.413   8.104  1.00  0.00     0.159 HD
HETATM   28  H   UNL     1      42.882 -15.503   8.917  1.00  0.00     0.159 HD
HETATM   29  O   UNL     1      41.171 -16.032   7.146  1.00  0.00    -0.266 OA
ENDBRANCH   8  25
TORSDOF 4
ENDMDL
MODEL 6
REMARK VINA RESULT:      -8.0      5.690      7.632
REMARK  4 active torsions:
REMARK  status: ('A' for Active; 'I' for Inactive)
REMARK    1  A    between atoms: C_2  and  C_3 
REMARK    2  A    between atoms: C_4  and  C_5 
REMARK       I    between atoms: C_5  and  N_6 
REMARK    3  A    between atoms: N_6  and  C_7 
REMARK    4  A    between atoms: C_14  and  C_15 
REMARK       I    between atoms: C_15  and  N_16 
ROOT
HETATM    1  C   UNL     1      42.559 -14.813   2.647  1.00  0.00     0.035 A 
HETATM    2  C   UNL     1      42.501 -15.161   4.007  1.00  0.00     0.046 A 
HETATM    3  C   UNL     1      42.917 -16.445   4.419  1.00  0.00     0.030 A 
HETATM    4  C   UNL     1      43.361 -17.344   3.459  1.00  0.00     0.063 A 
HETATM    5  N   UNL     1      43.687 -18.479   4.148  1.00  0.00    -0.277 N 
HETATM    6  H   UNL     1      44.046 -19.346   3.765  1.00  0.00     0.189 HD
HETATM    7  N   UNL     1      43.501 -18.395   5.477  1.00  0.00    -0.168 NA
HETATM    8  C   UNL     1      43.024 -17.143   5.658  1.00  0.00     0.156 A 
HETATM    9  C   UNL     1      43.419 -17.036   2.099  1.00  0.00     0.034 A 
HETATM   10  C   UNL     1      43.010 -15.751   1.715  1.00  0.00     0.032 A 
ENDROOT
BRANCH   1  11
HETATM   11  N   UNL     1      42.140 -13.510   2.305  1.00  0.00    -0.327 N 
HETATM   12  C   UNL     1      40.845 -13.051   2.195  1.00  0.00     0.227 C 
HETATM   13  O   UNL     1      39.816 -13.704   2.295  1.00  0.00    -0.273 OA
HETATM   14  H   UNL     1      42.873 -12.854   2.070  1.00  0.00     0.169 HD
BRANCH  12  15
HETATM   15  C   UNL     1      40.735 -11.616   1.812  1.00  0.00     0.087 A 
HETATM   16  C   UNL     1      40.304 -11.182   0.420  1.00  0.00     0.032 A 
HETATM   17  C   UNL     1      39.427 -10.897   1.620  1.00  0.00     0.025 A 
BRANCH  16  18
HETATM   18  C   UNL     1      39.782 -12.122  -0.644  1.00  0.00    -0.053 A 
HETATM   19  C   UNL     1      38.397 -12.275  -0.852  1.00  0.00     0.009 A 
HETATM   20  C   UNL     1      37.892 -13.119  -1.846  1.00  0.00     0.024 A 
HETATM   21  C   UNL     1      38.770 -13.827  -2.659  1.00  0.00     0.034 A 
HETATM   22  C   UNL     1      40.143 -13.686  -2.492  1.00  0.00     0.024 A 
HETATM   23 CL   UNL     1      38.155 -14.871  -3.880  1.00  0.00    -0.084 Cl
HETATM   24  C   UNL     1      40.638 -12.831  -1.503  1.00  0.00     0.009 A 
ENDBRANCH  16  18
ENDBRANCH  12  15
ENDBRANCH   1  11
BRANCH   8  25
HETATM   25  C   UNL     1      42.691 -16.636   6.996  1.00  0.00     0.270 C 
HETATM   26  N   UNL     1      43.683 -16.812   7.923  1.00  0.00    -0.365 N 
HETATM   27  H   UNL     1      44.545 -17.256   7.630  1.00  0.00     0.159 HD
HETATM   28  H   UNL     1      43.551 -16.488   8.867  1.00  0.00     0.159 HD
HETATM   29  O   UNL     1      41.630 -16.095   7.288  1.00  0.00    -0.266 OA
ENDBRANCH   8  25
TORSDOF 4
ENDMDL
MODEL 7
REMARK VINA RESULT:      -7.9      5.198      7.387
REMARK  4 active torsions:
REMARK  status: ('A' for Active; 'I' for Inactive)
REMARK    1  A    between atoms: C_2  and  C_3 
REMARK    2  A    between atoms: C_4  and  C_5 
REMARK       I    between atoms: C_5  and  N_6 
REMARK    3  A    between atoms: N_6  and  C_7 
REMARK    4  A    between atoms: C_14  and  C_15 
REMARK       I    between atoms: C_15  and  N_16 
ROOT
HETATM    1  C   UNL     1      40.749 -13.562   0.913  1.00  0.00     0.035 A 
HETATM    2  C   UNL     1      41.120 -12.303   0.409  1.00  0.00     0.046 A 
HETATM    3  C   UNL     1      40.885 -11.996  -0.948  1.00  0.00     0.030 A 
HETATM    4  C   UNL     1      40.303 -12.960  -1.761  1.00  0.00     0.063 A 
HETATM    5  N   UNL     1      40.206 -12.383  -2.996  1.00  0.00    -0.277 N 
HETATM    6  H   UNL     1      39.828 -12.800  -3.839  1.00  0.00     0.189 HD
HETATM    7  N   UNL     1      40.666 -11.121  -3.057  1.00  0.00    -0.168 NA
HETATM    8  C   UNL     1      41.090 -10.870  -1.799  1.00  0.00     0.156 A 
HETATM    9  C   UNL     1      39.936 -14.224  -1.296  1.00  0.00     0.034 A 
HETATM   10  C   UNL     1      40.170 -14.502   0.058  1.00  0.00     0.032 A 
ENDROOT
BRANCH   1  11
HETATM   11  N   UNL     1      41.001 -13.798   2.280  1.00  0.00    -0.327 N 
HETATM   12  C   UNL     1      42.229 -13.899   2.898  1.00  0.00     0.227 C 
HETATM   13  O   UNL     1      43.330 -13.882   2.366  1.00  0.00    -0.273 OA
HETATM   14  H   UNL     1      40.189 -13.958   2.862  1.00  0.00     0.169 HD
BRANCH  12  15
HETATM   15  C   UNL     1      42.158 -14.158   4.363  1.00  0.00     0.087 A 
HETATM   16  C   UNL     1      42.345 -15.549   4.948  1.00  0.00     0.032 A 
HETATM   17  C   UNL     1      43.357 -14.458   5.222  1.00  0.00     0.025 A 
BRANCH  16  18
HETATM   18  C   UNL     1      42.788 -16.757   4.152  1.00  0.00    -0.053 A 
HETATM   19  C   UNL     1      43.875 -17.542   4.583  1.00  0.00     0.009 A 
HETATM   20  C   UNL     1      44.287 -18.677   3.877  1.00  0.00     0.024 A 
HETATM   21  C   UNL     1      43.610 -19.052   2.722  1.00  0.00     0.034 A 
HETATM   22  C   UNL     1      42.522 -18.310   2.279  1.00  0.00     0.024 A 
HETATM   23 CL   UNL     1      44.115 -20.445   1.847  1.00  0.00    -0.084 Cl
HETATM   24  C   UNL     1      42.111 -17.183   2.998  1.00  0.00     0.009 A 
ENDBRANCH  16  18
ENDBRANCH  12  15
ENDBRANCH   1  11
BRANCH   8  25
HETATM   25  C   UNL     1      41.669  -9.571  -1.429  1.00  0.00     0.270 C 
HETATM   26  N   UNL     1      41.277  -8.536  -2.234  1.00  0.00    -0.365 N 
HETATM   27  H   UNL     1      40.635  -8.730  -2.994  1.00  0.00     0.159 HD
HETATM   28  H   UNL     1      41.615  -7.604  -2.055  1.00  0.00     0.159 HD
HETATM   29  O   UNL     1      42.436  -9.396  -0.488  1.00  0.00    -0.266 OA
ENDBRANCH   8  25
TORSDOF 4
ENDMDL
MODEL 8
REMARK VINA RESULT:      -7.8      4.902      6.321
REMARK  4 active torsions:
REMARK  status: ('A' for Active; 'I' for Inactive)
REMARK    1  A    between atoms: C_2  and  C_3 
REMARK    2  A    between atoms: C_4  and  C_5 
REMARK       I    between atoms: C_5  and  N_6 
REMARK    3  A    between atoms: N_6  and  C_7 
REMARK    4  A    between atoms: C_14  and  C_15 
REMARK       I    between atoms: C_15  and  N_16 
ROOT
HETATM    1  C   UNL     1      41.353 -14.994   3.443  1.00  0.00     0.035 A 
HETATM    2  C   UNL     1      41.359 -13.659   3.005  1.00  0.00     0.046 A 
HETATM    3  C   UNL     1      40.665 -13.306   1.828  1.00  0.00     0.030 A 
HETATM    4  C   UNL     1      40.001 -14.298   1.119  1.00  0.00     0.063 A 
HETATM    5  N   UNL     1      39.436 -13.664   0.049  1.00  0.00    -0.277 N 
HETATM    6  H   UNL     1      38.876 -14.082  -0.685  1.00  0.00     0.189 HD
HETATM    7  N   UNL     1      39.666 -12.340   0.003  1.00  0.00    -0.168 NA
HETATM    8  C   UNL     1      40.426 -12.106   1.096  1.00  0.00     0.156 A 
HETATM    9  C   UNL     1      39.986 -15.636   1.519  1.00  0.00     0.034 A 
HETATM   10  C   UNL     1      40.675 -15.960   2.696  1.00  0.00     0.032 A 
ENDROOT
BRANCH   1  11
HETATM   11  N   UNL     1      42.055 -15.276   4.633  1.00  0.00    -0.327 N 
HETATM   12  C   UNL     1      41.545 -15.806   5.799  1.00  0.00     0.227 C 
HETATM   13  O   UNL     1      40.375 -16.056   6.049  1.00  0.00    -0.273 OA
HETATM   14  H   UNL     1      43.033 -15.018   4.645  1.00  0.00     0.169 HD
BRANCH  12  15
HETATM   15  C   UNL     1      42.551 -15.982   6.883  1.00  0.00     0.087 A 
HETATM   16  C   UNL     1      43.527 -17.148   6.898  1.00  0.00     0.032 A 
HETATM   17  C   UNL     1      44.024 -15.731   6.711  1.00  0.00     0.025 A 
BRANCH  16  18
HETATM   18  C   UNL     1      43.704 -18.127   5.759  1.00  0.00    -0.053 A 
HETATM   19  C   UNL     1      43.555 -19.512   5.971  1.00  0.00     0.009 A 
HETATM   20  C   UNL     1      43.689 -20.433   4.928  1.00  0.00     0.024 A 
HETATM   21  C   UNL     1      43.972 -19.983   3.643  1.00  0.00     0.034 A 
HETATM   22  C   UNL     1      44.108 -18.622   3.395  1.00  0.00     0.024 A 
HETATM   23 CL   UNL     1      44.143 -21.112   2.356  1.00  0.00    -0.084 Cl
HETATM   24  C   UNL     1      43.961 -17.707   4.443  1.00  0.00     0.009 A 
ENDBRANCH  16  18
ENDBRANCH  12  15
ENDBRANCH   1  11
BRANCH   8  25
HETATM   25  C   UNL     1      40.898 -10.754   1.426  1.00  0.00     0.270 C 
HETATM   26  N   UNL     1      39.963  -9.972   2.048  1.00  0.00    -0.365 N 
HETATM   27  H   UNL     1      39.049 -10.368   2.236  1.00  0.00     0.159 HD
HETATM   28  H   UNL     1      40.196  -9.031   2.322  1.00  0.00     0.159 HD
HETATM   29  O   UNL     1      42.024 -10.334   1.181  1.00  0.00    -0.266 OA
ENDBRANCH   8  25
TORSDOF 4
ENDMDL
MODEL 9
REMARK VINA RESULT:      -7.8      6.160      8.750
REMARK  4 active torsions:
REMARK  status: ('A' for Active; 'I' for Inactive)
REMARK    1  A    between atoms: C_2  and  C_3 
REMARK    2  A    between atoms: C_4  and  C_5 
REMARK       I    between atoms: C_5  and  N_6 
REMARK    3  A    between atoms: N_6  and  C_7 
REMARK    4  A    between atoms: C_14  and  C_15 
REMARK       I    between atoms: C_15  and  N_16 
ROOT
HETATM    1  C   UNL     1      42.341 -15.772   2.222  1.00  0.00     0.035 A 
HETATM    2  C   UNL     1      42.690 -17.134   2.199  1.00  0.00     0.046 A 
HETATM    3  C   UNL     1      43.390 -17.695   3.287  1.00  0.00     0.030 A 
HETATM    4  C   UNL     1      43.732 -16.877   4.356  1.00  0.00     0.063 A 
HETATM    5  N   UNL     1      44.390 -17.688   5.237  1.00  0.00    -0.277 N 
HETATM    6  H   UNL     1      44.786 -17.425   6.133  1.00  0.00     0.189 HD
HETATM    7  N   UNL     1      44.499 -18.967   4.840  1.00  0.00    -0.168 NA
HETATM    8  C   UNL     1      43.886 -18.985   3.636  1.00  0.00     0.156 A 
HETATM    9  C   UNL     1      43.413 -15.519   4.405  1.00  0.00     0.034 A 
HETATM   10  C   UNL     1      42.709 -14.986   3.316  1.00  0.00     0.032 A 
ENDROOT
BRANCH   1  11
HETATM   11  N   UNL     1      41.632 -15.278   1.107  1.00  0.00    -0.327 N 
HETATM   12  C   UNL     1      40.264 -15.192   0.958  1.00  0.00     0.227 C 
HETATM   13  O   UNL     1      39.408 -15.601   1.730  1.00  0.00    -0.273 OA
HETATM   14  H   UNL     1      42.190 -14.999   0.311  1.00  0.00     0.169 HD
BRANCH  12  15
HETATM   15  C   UNL     1      39.824 -14.624  -0.346  1.00  0.00     0.087 A 
HETATM   16  C   UNL     1      39.407 -13.169  -0.494  1.00  0.00     0.032 A 
HETATM   17  C   UNL     1      40.656 -13.685  -1.176  1.00  0.00     0.025 A 
BRANCH  16  18
HETATM   18  C   UNL     1      39.560 -12.123   0.588  1.00  0.00    -0.053 A 
HETATM   19  C   UNL     1      38.484 -11.806   1.438  1.00  0.00     0.009 A 
HETATM   20  C   UNL     1      38.609 -10.861   2.462  1.00  0.00     0.024 A 
HETATM   21  C   UNL     1      39.825 -10.215   2.657  1.00  0.00     0.034 A 
HETATM   22  C   UNL     1      40.913 -10.518   1.846  1.00  0.00     0.024 A 
HETATM   23 CL   UNL     1      39.985  -9.048   3.910  1.00  0.00    -0.084 Cl
HETATM   24  C   UNL     1      40.781 -11.472   0.833  1.00  0.00     0.009 A 
ENDBRANCH  16  18
ENDBRANCH  12  15
ENDBRANCH   1  11
BRANCH   8  25
HETATM   25  C   UNL     1      43.777 -20.222   2.850  1.00  0.00     0.270 C 
HETATM   26  N   UNL     1      43.985 -21.364   3.574  1.00  0.00    -0.365 N 
HETATM   27  H   UNL     1      44.186 -21.280   4.564  1.00  0.00     0.159 HD
HETATM   28  H   UNL     1      43.922 -22.263   3.124  1.00  0.00     0.159 HD
HETATM   29  O   UNL     1      43.521 -20.260   1.651  1.00  0.00    -0.266 OA
ENDBRANCH   8  25
TORSDOF 4
ENDMDL
MODEL 10
REMARK VINA RESULT:      -7.7      4.105      5.694
REMARK  4 active torsions:
REMARK  status: ('A' for Active; 'I' for Inactive)
REMARK    1  A    between atoms: C_2  and  C_3 
REMARK    2  A    between atoms: C_4  and  C_5 
REMARK       I    between atoms: C_5  and  N_6 
REMARK    3  A    between atoms: N_6  and  C_7 
REMARK    4  A    between atoms: C_14  and  C_15 
REMARK       I    between atoms: C_15  and  N_16 
ROOT
HETATM    1  C   UNL     1      39.049 -12.041   2.478  1.00  0.00     0.035 A 
HETATM    2  C   UNL     1      39.231 -11.843   3.858  1.00  0.00     0.046 A 
HETATM    3  C   UNL     1      38.842 -10.622   4.447  1.00  0.00     0.030 A 
HETATM    4  C   UNL     1      38.300  -9.632   3.638  1.00  0.00     0.063 A 
HETATM    5  N   UNL     1      38.029  -8.587   4.476  1.00  0.00    -0.277 N 
HETATM    6  H   UNL     1      37.625  -7.691   4.227  1.00  0.00     0.189 HD
HETATM    7  N   UNL     1      38.339  -8.813   5.765  1.00  0.00    -0.168 NA
HETATM    8  C   UNL     1      38.844 -10.066   5.760  1.00  0.00     0.156 A 
HETATM    9  C   UNL     1      38.118  -9.790   2.263  1.00  0.00     0.034 A 
HETATM   10  C   UNL     1      38.503 -11.016   1.702  1.00  0.00     0.032 A 
ENDROOT
BRANCH   1  11
HETATM   11  N   UNL     1      39.448 -13.289   1.956  1.00  0.00    -0.327 N 
HETATM   12  C   UNL     1      40.710 -13.657   1.542  1.00  0.00     0.227 C 
HETATM   13  O   UNL     1      41.704 -12.947   1.475  1.00  0.00    -0.273 OA
HETATM   14  H   UNL     1      38.714 -13.974   1.829  1.00  0.00     0.169 HD
BRANCH  12  15
HETATM   15  C   UNL     1      40.806 -15.054   1.034  1.00  0.00     0.087 A 
HETATM   16  C   UNL     1      41.339 -16.190   1.891  1.00  0.00     0.032 A 
HETATM   17  C   UNL     1      39.889 -16.167   1.461  1.00  0.00     0.025 A 
BRANCH  16  18
HETATM   18  C   UNL     1      41.653 -16.073   3.366  1.00  0.00    -0.053 A 
HETATM   19  C   UNL     1      42.965 -15.805   3.803  1.00  0.00     0.009 A 
HETATM   20  C   UNL     1      43.274 -15.667   5.160  1.00  0.00     0.024 A 
HETATM   21  C   UNL     1      42.267 -15.790   6.111  1.00  0.00     0.034 A 
HETATM   22  C   UNL     1      40.958 -16.036   5.713  1.00  0.00     0.024 A 
HETATM   23 CL   UNL     1      42.641 -15.627   7.782  1.00  0.00    -0.084 Cl
HETATM   24  C   UNL     1      40.657 -16.162   4.353  1.00  0.00     0.009 A 
ENDBRANCH  16  18
ENDBRANCH  12  15
ENDBRANCH   1  11
BRANCH   8  25
HETATM   25  C   UNL     1      39.307 -10.711   6.997  1.00  0.00     0.270 C 
HETATM   26  N   UNL     1      40.669 -10.756   7.127  1.00  0.00    -0.365 N 
HETATM   27  H   UNL     1      41.239 -10.351   6.394  1.00  0.00     0.159 HD
HETATM   28  H   UNL     1      41.082 -11.170   7.947  1.00  0.00     0.159 HD
HETATM   29  O   UNL     1      38.565 -11.175   7.856  1.00  0.00    -0.266 OA
ENDBRANCH   8  25
TORSDOF 4
ENDMDL
