MODEL 1
REMARK VINA RESULT:      -9.2      0.000      0.000
REMARK  2 active torsions:
REMARK  status: ('A' for Active; 'I' for Inactive)
REMARK    1  A    between atoms: O_2  and  C_3 
REMARK    2  A    between atoms: N_21  and  C_22 
ROOT
HETATM    1  C   UNL     1      40.174 -13.970  -0.314  1.00  0.00     0.069 A 
HETATM    2  C   UNL     1      40.717 -13.968   0.976  1.00  0.00     0.049 A 
HETATM    3  C   UNL     1      41.111 -12.753   1.527  1.00  0.00     0.018 A 
HETATM    4  C   UNL     1      40.931 -11.571   0.800  1.00  0.00     0.044 A 
HETATM    5  N   UNL     1      41.344 -10.474   1.539  1.00  0.00    -0.324 N 
HETATM    6  C   UNL     1      41.817 -10.859   2.778  1.00  0.00     0.264 A 
HETATM    7  O   UNL     1      42.208 -10.120   3.667  1.00  0.00    -0.270 OA
HETATM    8  C   UNL     1      41.685 -12.424   2.880  1.00  0.00     0.250 A 
HETATM    9  N   UNL     1      40.772 -12.855   4.014  1.00  0.00    -0.043 N 
HETATM   10  H   UNL     1      40.527 -13.842   3.849  1.00  0.00     0.282 HD
HETATM   11  C   UNL     1      41.604 -12.730   5.263  1.00  0.00     0.204 C 
HETATM   12  C   UNL     1      40.636 -13.283   6.282  1.00  0.00     0.036 C 
HETATM   13  C   UNL     1      39.296 -12.650   5.837  1.00  0.00     0.030 C 
HETATM   14  C   UNL     1      39.479 -12.198   4.375  1.00  0.00     0.237 C 
HETATM   15  C   UNL     1      42.947 -13.283   4.844  1.00  0.00     0.126 C 
HETATM   16  C   UNL     1      43.059 -12.977   3.344  1.00  0.00     0.145 C 
HETATM   17  C   UNL     1      43.406 -14.303   2.744  1.00  0.00     0.239 C 
HETATM   18  O   UNL     1      43.753 -14.379   1.576  1.00  0.00    -0.272 OA
HETATM   19  N   UNL     1      43.223 -15.302   3.679  1.00  0.00    -0.252 N 
HETATM   20  C   UNL     1      43.010 -14.773   4.933  1.00  0.00     0.238 C 
HETATM   21  O   UNL     1      42.824 -15.329   6.004  1.00  0.00    -0.272 OA
HETATM   22  C   UNL     1      40.387 -11.541  -0.464  1.00  0.00     0.033 A 
HETATM   23  C   UNL     1      40.003 -12.762  -1.017  1.00  0.00     0.039 A 
HETATM   24  H   UNL     1      41.315  -9.512   1.223  1.00  0.00     0.169 HD
ENDROOT
BRANCH   1  25
HETATM   25  O   UNL     1      39.739 -15.078  -0.986  1.00  0.00    -0.356 OA
HETATM   26  C   UNL     1      39.028 -14.860  -2.200  1.00  0.00     0.210 C 
ENDBRANCH   1  25
BRANCH  19  27
HETATM   27  C   UNL     1      43.240 -16.709   3.386  1.00  0.00     0.045 A 
HETATM   28  C   UNL     1      44.081 -17.600   4.077  1.00  0.00     0.030 A 
HETATM   29  C   UNL     1      44.148 -18.961   3.746  1.00  0.00     0.002 A 
HETATM   30  C   UNL     1      43.371 -19.470   2.716  1.00  0.00     0.000 A 
HETATM   31  C   UNL     1      42.519 -18.621   2.024  1.00  0.00     0.002 A 
HETATM   32  C   UNL     1      42.454 -17.263   2.357  1.00  0.00     0.030 A 
ENDBRANCH  19  27
TORSDOF 2
ENDMDL
MODEL 2
REMARK VINA RESULT:      -8.5      2.061      5.099
REMARK  2 active torsions:
REMARK  status: ('A' for Active; 'I' for Inactive)
REMARK    1  A    between atoms: O_2  and  C_3 
REMARK    2  A    between atoms: N_21  and  C_22 
ROOT
HETATM    1  C   UNL     1      43.580 -11.704   6.161  1.00  0.00     0.069 A 
HETATM    2  C   UNL     1      42.792 -12.203   5.116  1.00  0.00     0.049 A 
HETATM    3  C   UNL     1      41.556 -11.612   4.879  1.00  0.00     0.018 A 
HETATM    4  C   UNL     1      41.144 -10.527   5.660  1.00  0.00     0.044 A 
HETATM    5  N   UNL     1      39.911 -10.058   5.237  1.00  0.00    -0.324 N 
HETATM    6  C   UNL     1      39.440 -10.795   4.169  1.00  0.00     0.264 A 
HETATM    7  O   UNL     1      38.406 -10.598   3.550  1.00  0.00    -0.270 OA
HETATM    8  C   UNL     1      40.515 -11.893   3.827  1.00  0.00     0.250 A 
HETATM    9  N   UNL     1      41.063 -11.749   2.420  1.00  0.00    -0.043 N 
HETATM   10  H   UNL     1      41.926 -12.310   2.370  1.00  0.00     0.282 HD
HETATM   11  C   UNL     1      40.009 -12.340   1.520  1.00  0.00     0.204 C 
HETATM   12  C   UNL     1      40.712 -12.238   0.187  1.00  0.00     0.036 C 
HETATM   13  C   UNL     1      41.367 -10.839   0.269  1.00  0.00     0.030 C 
HETATM   14  C   UNL     1      41.414 -10.454   1.761  1.00  0.00     0.237 C 
HETATM   15  C   UNL     1      39.576 -13.583   2.263  1.00  0.00     0.126 C 
HETATM   16  C   UNL     1      39.777 -13.257   3.749  1.00  0.00     0.145 C 
HETATM   17  C   UNL     1      40.591 -14.409   4.250  1.00  0.00     0.239 C 
HETATM   18  O   UNL     1      40.772 -14.560   5.448  1.00  0.00    -0.272 OA
HETATM   19  N   UNL     1      41.068 -15.144   3.183  1.00  0.00    -0.252 N 
HETATM   20  C   UNL     1      40.471 -14.750   2.005  1.00  0.00     0.238 C 
HETATM   21  O   UNL     1      40.619 -15.167   0.867  1.00  0.00    -0.272 OA
HETATM   22  C   UNL     1      41.903 -10.006   6.684  1.00  0.00     0.033 A 
HETATM   23  C   UNL     1      43.138 -10.607   6.926  1.00  0.00     0.039 A 
HETATM   24  H   UNL     1      39.407  -9.282   5.650  1.00  0.00     0.169 HD
ENDROOT
BRANCH   1  25
HETATM   25  O   UNL     1      44.814 -12.173   6.513  1.00  0.00    -0.356 OA
HETATM   26  C   UNL     1      45.825 -11.205   6.771  1.00  0.00     0.210 C 
ENDBRANCH   1  25
BRANCH  19  27
HETATM   27  C   UNL     1      42.063 -16.176   3.282  1.00  0.00     0.045 A 
HETATM   28  C   UNL     1      42.101 -17.258   2.383  1.00  0.00     0.030 A 
HETATM   29  C   UNL     1      43.029 -18.299   2.520  1.00  0.00     0.002 A 
HETATM   30  C   UNL     1      43.949 -18.287   3.557  1.00  0.00     0.000 A 
HETATM   31  C   UNL     1      43.949 -17.226   4.452  1.00  0.00     0.002 A 
HETATM   32  C   UNL     1      43.022 -16.187   4.313  1.00  0.00     0.030 A 
ENDBRANCH  19  27
TORSDOF 2
ENDMDL
MODEL 3
REMARK VINA RESULT:      -8.4      2.649      5.662
REMARK  2 active torsions:
REMARK  status: ('A' for Active; 'I' for Inactive)
REMARK    1  A    between atoms: O_2  and  C_3 
REMARK    2  A    between atoms: N_21  and  C_22 
ROOT
HETATM    1  C   UNL     1      43.706 -11.214   6.523  1.00  0.00     0.069 A 
HETATM    2  C   UNL     1      42.680 -11.409   5.591  1.00  0.00     0.049 A 
HETATM    3  C   UNL     1      41.448 -10.808   5.826  1.00  0.00     0.018 A 
HETATM    4  C   UNL     1      41.271 -10.007   6.960  1.00  0.00     0.044 A 
HETATM    5  N   UNL     1      39.996  -9.469   6.986  1.00  0.00    -0.324 N 
HETATM    6  C   UNL     1      39.262  -9.877   5.889  1.00  0.00     0.264 A 
HETATM    7  O   UNL     1      38.124  -9.536   5.610  1.00  0.00    -0.270 OA
HETATM    8  C   UNL     1      40.184 -10.799   5.007  1.00  0.00     0.250 A 
HETATM    9  N   UNL     1      40.402 -10.238   3.614  1.00  0.00    -0.043 N 
HETATM   10  H   UNL     1      41.205 -10.737   3.207  1.00  0.00     0.282 HD
HETATM   11  C   UNL     1      39.146 -10.570   2.851  1.00  0.00     0.204 C 
HETATM   12  C   UNL     1      39.529 -10.067   1.480  1.00  0.00     0.036 C 
HETATM   13  C   UNL     1      40.245  -8.735   1.808  1.00  0.00     0.030 C 
HETATM   14  C   UNL     1      40.647  -8.799   3.295  1.00  0.00     0.237 C 
HETATM   15  C   UNL     1      38.841 -11.986   3.283  1.00  0.00     0.126 C 
HETATM   16  C   UNL     1      39.390 -12.100   4.711  1.00  0.00     0.145 C 
HETATM   17  C   UNL     1      40.247 -13.326   4.657  1.00  0.00     0.239 C 
HETATM   18  O   UNL     1      40.692 -13.814   5.685  1.00  0.00    -0.272 OA
HETATM   19  N   UNL     1      40.437 -13.707   3.343  1.00  0.00    -0.252 N 
HETATM   20  C   UNL     1      39.604 -13.004   2.499  1.00  0.00     0.238 C 
HETATM   21  O   UNL     1      39.471 -13.069   1.288  1.00  0.00    -0.272 OA
HETATM   22  C   UNL     1      42.266  -9.786   7.885  1.00  0.00     0.033 A 
HETATM   23  C   UNL     1      43.497 -10.399   7.652  1.00  0.00     0.039 A 
HETATM   24  H   UNL     1      39.633  -8.860   7.710  1.00  0.00     0.169 HD
ENDROOT
BRANCH   1  25
HETATM   25  O   UNL     1      44.967 -11.732   6.430  1.00  0.00    -0.356 OA
HETATM   26  C   UNL     1      46.025 -10.963   6.990  1.00  0.00     0.210 C 
ENDBRANCH   1  25
BRANCH  19  27
HETATM   27  C   UNL     1      41.384 -14.697   2.908  1.00  0.00     0.045 A 
HETATM   28  C   UNL     1      42.607 -14.341   2.312  1.00  0.00     0.030 A 
HETATM   29  C   UNL     1      43.500 -15.305   1.825  1.00  0.00     0.002 A 
HETATM   30  C   UNL     1      43.197 -16.655   1.925  1.00  0.00     0.000 A 
HETATM   31  C   UNL     1      42.006 -17.041   2.523  1.00  0.00     0.002 A 
HETATM   32  C   UNL     1      41.116 -16.075   3.008  1.00  0.00     0.030 A 
ENDBRANCH  19  27
TORSDOF 2
ENDMDL
MODEL 4
REMARK VINA RESULT:      -8.4     15.409     17.702
REMARK  2 active torsions:
REMARK  status: ('A' for Active; 'I' for Inactive)
REMARK    1  A    between atoms: O_2  and  C_3 
REMARK    2  A    between atoms: N_21  and  C_22 
ROOT
HETATM    1  C   UNL     1      42.345 -31.631   1.162  1.00  0.00     0.069 A 
HETATM    2  C   UNL     1      43.535 -31.197   0.565  1.00  0.00     0.049 A 
HETATM    3  C   UNL     1      44.287 -30.225   1.217  1.00  0.00     0.018 A 
HETATM    4  C   UNL     1      43.858 -29.729   2.453  1.00  0.00     0.044 A 
HETATM    5  N   UNL     1      44.763 -28.808   2.952  1.00  0.00    -0.324 N 
HETATM    6  C   UNL     1      45.828 -28.640   2.089  1.00  0.00     0.264 A 
HETATM    7  O   UNL     1      46.805 -27.932   2.271  1.00  0.00    -0.270 OA
HETATM    8  C   UNL     1      45.605 -29.592   0.856  1.00  0.00     0.250 A 
HETATM    9  N   UNL     1      46.715 -30.617   0.706  1.00  0.00    -0.043 N 
HETATM   10  H   UNL     1      46.370 -31.349   0.069  1.00  0.00     0.282 HD
HETATM   11  C   UNL     1      47.859 -29.872   0.069  1.00  0.00     0.204 C 
HETATM   12  C   UNL     1      48.838 -31.007  -0.123  1.00  0.00     0.036 C 
HETATM   13  C   UNL     1      48.696 -31.789   1.204  1.00  0.00     0.030 C 
HETATM   14  C   UNL     1      47.354 -31.363   1.832  1.00  0.00     0.237 C 
HETATM   15  C   UNL     1      47.180 -29.027  -0.984  1.00  0.00     0.126 C 
HETATM   16  C   UNL     1      45.779 -28.738  -0.428  1.00  0.00     0.145 C 
HETATM   17  C   UNL     1      44.871 -29.143  -1.547  1.00  0.00     0.239 C 
HETATM   18  O   UNL     1      43.682 -28.867  -1.507  1.00  0.00    -0.272 OA
HETATM   19  N   UNL     1      45.583 -29.852  -2.494  1.00  0.00    -0.252 N 
HETATM   20  C   UNL     1      46.938 -29.774  -2.255  1.00  0.00     0.238 C 
HETATM   21  O   UNL     1      47.877 -30.250  -2.872  1.00  0.00    -0.272 OA
HETATM   22  C   UNL     1      42.700 -30.147   3.069  1.00  0.00     0.033 A 
HETATM   23  C   UNL     1      41.944 -31.114   2.408  1.00  0.00     0.039 A 
HETATM   24  H   UNL     1      44.668 -28.311   3.830  1.00  0.00     0.169 HD
ENDROOT
BRANCH   1  25
HETATM   25  O   UNL     1      41.504 -32.579   0.649  1.00  0.00    -0.356 OA
HETATM   26  C   UNL     1      42.106 -33.707   0.025  1.00  0.00     0.210 C 
ENDBRANCH   1  25
BRANCH  19  27
HETATM   27  C   UNL     1      44.993 -30.585  -3.580  1.00  0.00     0.045 A 
HETATM   28  C   UNL     1      44.798 -31.976  -3.517  1.00  0.00     0.030 A 
HETATM   29  C   UNL     1      44.285 -32.701  -4.601  1.00  0.00     0.002 A 
HETATM   30  C   UNL     1      43.949 -32.053  -5.781  1.00  0.00     0.000 A 
HETATM   31  C   UNL     1      44.114 -30.679  -5.871  1.00  0.00     0.002 A 
HETATM   32  C   UNL     1      44.626 -29.957  -4.786  1.00  0.00     0.030 A 
ENDBRANCH  19  27
TORSDOF 2
ENDMDL
MODEL 5
REMARK VINA RESULT:      -8.1      6.712      9.103
REMARK  2 active torsions:
REMARK  status: ('A' for Active; 'I' for Inactive)
REMARK    1  A    between atoms: O_2  and  C_3 
REMARK    2  A    between atoms: N_21  and  C_22 
ROOT
HETATM    1  C   UNL     1      39.522  -7.745   7.085  1.00  0.00     0.069 A 
HETATM    2  C   UNL     1      40.400  -8.063   8.128  1.00  0.00     0.049 A 
HETATM    3  C   UNL     1      40.422  -7.239   9.248  1.00  0.00     0.018 A 
HETATM    4  C   UNL     1      39.558  -6.141   9.321  1.00  0.00     0.044 A 
HETATM    5  N   UNL     1      39.706  -5.480  10.528  1.00  0.00    -0.324 N 
HETATM    6  C   UNL     1      40.663  -6.089  11.315  1.00  0.00     0.264 A 
HETATM    7  O   UNL     1      40.985  -5.767  12.447  1.00  0.00    -0.270 OA
HETATM    8  C   UNL     1      41.215  -7.335  10.526  1.00  0.00     0.250 A 
HETATM    9  N   UNL     1      40.971  -8.640  11.260  1.00  0.00    -0.043 N 
HETATM   10  H   UNL     1      41.107  -9.402  10.580  1.00  0.00     0.282 HD
HETATM   11  C   UNL     1      42.033  -8.701  12.326  1.00  0.00     0.204 C 
HETATM   12  C   UNL     1      41.754 -10.071  12.899  1.00  0.00     0.036 C 
HETATM   13  C   UNL     1      40.208 -10.096  12.947  1.00  0.00     0.030 C 
HETATM   14  C   UNL     1      39.714  -8.998  11.985  1.00  0.00     0.237 C 
HETATM   15  C   UNL     1      43.273  -8.216  11.609  1.00  0.00     0.126 C 
HETATM   16  C   UNL     1      42.765  -7.242  10.538  1.00  0.00     0.145 C 
HETATM   17  C   UNL     1      43.405  -7.743   9.281  1.00  0.00     0.239 C 
HETATM   18  O   UNL     1      43.359  -7.077   8.258  1.00  0.00    -0.272 OA
HETATM   19  N   UNL     1      43.952  -8.992   9.500  1.00  0.00    -0.252 N 
HETATM   20  C   UNL     1      43.958  -9.301  10.843  1.00  0.00     0.238 C 
HETATM   21  O   UNL     1      44.366 -10.294  11.423  1.00  0.00    -0.272 OA
HETATM   22  C   UNL     1      38.675  -5.813   8.317  1.00  0.00     0.033 A 
HETATM   23  C   UNL     1      38.661  -6.636   7.191  1.00  0.00     0.039 A 
HETATM   24  H   UNL     1      39.190  -4.654  10.810  1.00  0.00     0.169 HD
ENDROOT
BRANCH   1  25
HETATM   25  O   UNL     1      39.380  -8.457   5.927  1.00  0.00    -0.356 OA
HETATM   26  C   UNL     1      40.313  -9.507   5.696  1.00  0.00     0.210 C 
ENDBRANCH   1  25
BRANCH  19  27
HETATM   27  C   UNL     1      44.441  -9.862   8.466  1.00  0.00     0.045 A 
HETATM   28  C   UNL     1      45.817 -10.040   8.237  1.00  0.00     0.030 A 
HETATM   29  C   UNL     1      46.295 -10.835   7.186  1.00  0.00     0.002 A 
HETATM   30  C   UNL     1      45.407 -11.481   6.337  1.00  0.00     0.000 A 
HETATM   31  C   UNL     1      44.043 -11.340   6.546  1.00  0.00     0.002 A 
HETATM   32  C   UNL     1      43.570 -10.545   7.596  1.00  0.00     0.030 A 
ENDBRANCH  19  27
TORSDOF 2
ENDMDL
MODEL 6
REMARK VINA RESULT:      -8.1      1.950      5.618
REMARK  2 active torsions:
REMARK  status: ('A' for Active; 'I' for Inactive)
REMARK    1  A    between atoms: O_2  and  C_3 
REMARK    2  A    between atoms: N_21  and  C_22 
ROOT
HETATM    1  C   UNL     1      42.860 -16.346   3.288  1.00  0.00     0.069 A 
HETATM    2  C   UNL     1      42.177 -15.129   3.174  1.00  0.00     0.049 A 
HETATM    3  C   UNL     1      41.445 -14.676   4.266  1.00  0.00     0.018 A 
HETATM    4  C   UNL     1      41.429 -15.422   5.449  1.00  0.00     0.044 A 
HETATM    5  N   UNL     1      40.683 -14.780   6.423  1.00  0.00    -0.324 N 
HETATM    6  C   UNL     1      40.165 -13.591   5.950  1.00  0.00     0.264 A 
HETATM    7  O   UNL     1      39.505 -12.783   6.583  1.00  0.00    -0.270 OA
HETATM    8  C   UNL     1      40.648 -13.413   4.462  1.00  0.00     0.250 A 
HETATM    9  N   UNL     1      41.490 -12.165   4.272  1.00  0.00    -0.043 N 
HETATM   10  H   UNL     1      41.978 -12.261   3.370  1.00  0.00     0.282 HD
HETATM   11  C   UNL     1      40.505 -11.027   4.208  1.00  0.00     0.204 C 
HETATM   12  C   UNL     1      41.443  -9.881   3.911  1.00  0.00     0.036 C 
HETATM   13  C   UNL     1      42.641 -10.190   4.841  1.00  0.00     0.030 C 
HETATM   14  C   UNL     1      42.538 -11.680   5.221  1.00  0.00     0.237 C 
HETATM   15  C   UNL     1      39.392 -11.579   3.347  1.00  0.00     0.126 C 
HETATM   16  C   UNL     1      39.396 -13.092   3.603  1.00  0.00     0.145 C 
HETATM   17  C   UNL     1      39.447 -13.676   2.226  1.00  0.00     0.239 C 
HETATM   18  O   UNL     1      39.273 -14.874   2.058  1.00  0.00    -0.272 OA
HETATM   19  N   UNL     1      39.743 -12.689   1.309  1.00  0.00    -0.252 N 
HETATM   20  C   UNL     1      39.670 -11.439   1.886  1.00  0.00     0.238 C 
HETATM   21  O   UNL     1      39.848 -10.334   1.400  1.00  0.00    -0.272 OA
HETATM   22  C   UNL     1      42.102 -16.614   5.595  1.00  0.00     0.033 A 
HETATM   23  C   UNL     1      42.828 -17.071   4.495  1.00  0.00     0.039 A 
HETATM   24  H   UNL     1      40.524 -15.128   7.362  1.00  0.00     0.169 HD
ENDROOT
BRANCH   1  25
HETATM   25  O   UNL     1      43.623 -16.919   2.309  1.00  0.00    -0.356 OA
HETATM   26  C   UNL     1      43.681 -18.341   2.283  1.00  0.00     0.210 C 
ENDBRANCH   1  25
BRANCH  19  27
HETATM   27  C   UNL     1      40.093 -12.927  -0.065  1.00  0.00     0.045 A 
HETATM   28  C   UNL     1      40.942 -12.060  -0.775  1.00  0.00     0.030 A 
HETATM   29  C   UNL     1      41.229 -12.254  -2.133  1.00  0.00     0.002 A 
HETATM   30  C   UNL     1      40.677 -13.326  -2.819  1.00  0.00     0.000 A 
HETATM   31  C   UNL     1      39.848 -14.210  -2.144  1.00  0.00     0.002 A 
HETATM   32  C   UNL     1      39.563 -14.013  -0.788  1.00  0.00     0.030 A 
ENDBRANCH  19  27
TORSDOF 2
ENDMDL
MODEL 7
REMARK VINA RESULT:      -8.1      2.161      5.740
REMARK  2 active torsions:
REMARK  status: ('A' for Active; 'I' for Inactive)
REMARK    1  A    between atoms: O_2  and  C_3 
REMARK    2  A    between atoms: N_21  and  C_22 
ROOT
HETATM    1  C   UNL     1      39.178 -10.093   5.123  1.00  0.00     0.069 A 
HETATM    2  C   UNL     1      39.850 -11.168   4.528  1.00  0.00     0.049 A 
HETATM    3  C   UNL     1      41.015 -11.634   5.128  1.00  0.00     0.018 A 
HETATM    4  C   UNL     1      41.468 -11.046   6.314  1.00  0.00     0.044 A 
HETATM    5  N   UNL     1      42.612 -11.680   6.770  1.00  0.00    -0.324 N 
HETATM    6  C   UNL     1      42.979 -12.709   5.925  1.00  0.00     0.264 A 
HETATM    7  O   UNL     1      43.914 -13.478   6.081  1.00  0.00    -0.270 OA
HETATM    8  C   UNL     1      41.926 -12.775   4.757  1.00  0.00     0.250 A 
HETATM    9  N   UNL     1      41.195 -14.104   4.710  1.00  0.00    -0.043 N 
HETATM   10  H   UNL     1      40.363 -13.974   4.118  1.00  0.00     0.282 HD
HETATM   11  C   UNL     1      42.154 -15.062   4.052  1.00  0.00     0.204 C 
HETATM   12  C   UNL     1      41.283 -16.292   3.967  1.00  0.00     0.036 C 
HETATM   13  C   UNL     1      40.574 -16.287   5.342  1.00  0.00     0.030 C 
HETATM   14  C   UNL     1      40.699 -14.856   5.903  1.00  0.00     0.237 C 
HETATM   15  C   UNL     1      42.741 -14.244   2.923  1.00  0.00     0.126 C 
HETATM   16  C   UNL     1      42.715 -12.792   3.420  1.00  0.00     0.145 C 
HETATM   17  C   UNL     1      42.031 -12.058   2.311  1.00  0.00     0.239 C 
HETATM   18  O   UNL     1      42.011 -10.836   2.300  1.00  0.00    -0.272 OA
HETATM   19  N   UNL     1      41.459 -12.959   1.435  1.00  0.00    -0.252 N 
HETATM   20  C   UNL     1      41.879 -14.244   1.703  1.00  0.00     0.238 C 
HETATM   21  O   UNL     1      41.608 -15.296   1.146  1.00  0.00    -0.272 OA
HETATM   22  C   UNL     1      40.820  -9.998   6.928  1.00  0.00     0.033 A 
HETATM   23  C   UNL     1      39.658  -9.526   6.319  1.00  0.00     0.039 A 
HETATM   24  H   UNL     1      43.125 -11.430   7.607  1.00  0.00     0.169 HD
ENDROOT
BRANCH   1  25
HETATM   25  O   UNL     1      38.023  -9.528   4.657  1.00  0.00    -0.356 OA
HETATM   26  C   UNL     1      37.929  -8.110   4.714  1.00  0.00     0.210 C 
ENDBRANCH   1  25
BRANCH  19  27
HETATM   27  C   UNL     1      40.537 -12.610   0.389  1.00  0.00     0.045 A 
HETATM   28  C   UNL     1      40.949 -12.482  -0.949  1.00  0.00     0.030 A 
HETATM   29  C   UNL     1      40.066 -12.076  -1.959  1.00  0.00     0.002 A 
HETATM   30  C   UNL     1      38.742 -11.791  -1.659  1.00  0.00     0.000 A 
HETATM   31  C   UNL     1      38.299 -11.924  -0.351  1.00  0.00     0.002 A 
HETATM   32  C   UNL     1      39.183 -12.329   0.655  1.00  0.00     0.030 A 
ENDBRANCH  19  27
TORSDOF 2
ENDMDL
MODEL 8
REMARK VINA RESULT:      -7.9      2.518      5.555
REMARK  2 active torsions:
REMARK  status: ('A' for Active; 'I' for Inactive)
REMARK    1  A    between atoms: O_2  and  C_3 
REMARK    2  A    between atoms: N_21  and  C_22 
ROOT
HETATM    1  C   UNL     1      42.095 -10.128   4.374  1.00  0.00     0.069 A 
HETATM    2  C   UNL     1      41.552 -10.718   3.226  1.00  0.00     0.049 A 
HETATM    3  C   UNL     1      40.400 -10.164   2.679  1.00  0.00     0.018 A 
HETATM    4  C   UNL     1      39.831  -9.027   3.262  1.00  0.00     0.044 A 
HETATM    5  N   UNL     1      38.723  -8.610   2.545  1.00  0.00    -0.324 N 
HETATM    6  C   UNL     1      38.493  -9.435   1.462  1.00  0.00     0.264 A 
HETATM    7  O   UNL     1      37.620  -9.301   0.619  1.00  0.00    -0.270 OA
HETATM    8  C   UNL     1      39.613 -10.542   1.452  1.00  0.00     0.250 A 
HETATM    9  N   UNL     1      40.456 -10.502   0.190  1.00  0.00    -0.043 N 
HETATM   10  H   UNL     1      41.306 -11.053   0.374  1.00  0.00     0.282 HD
HETATM   11  C   UNL     1      39.621 -11.175  -0.867  1.00  0.00     0.204 C 
HETATM   12  C   UNL     1      40.598 -11.170  -2.019  1.00  0.00     0.036 C 
HETATM   13  C   UNL     1      41.225  -9.759  -1.908  1.00  0.00     0.030 C 
HETATM   14  C   UNL     1      40.947  -9.258  -0.477  1.00  0.00     0.237 C 
HETATM   15  C   UNL     1      39.031 -12.362  -0.140  1.00  0.00     0.126 C 
HETATM   16  C   UNL     1      38.904 -11.917   1.323  1.00  0.00     0.145 C 
HETATM   17  C   UNL     1      39.584 -13.015   2.080  1.00  0.00     0.239 C 
HETATM   18  O   UNL     1      39.500 -13.069   3.297  1.00  0.00    -0.272 OA
HETATM   19  N   UNL     1      40.280 -13.825   1.205  1.00  0.00    -0.252 N 
HETATM   20  C   UNL     1      39.956 -13.534  -0.103  1.00  0.00     0.238 C 
HETATM   21  O   UNL     1      40.348 -14.037  -1.144  1.00  0.00    -0.272 OA
HETATM   22  C   UNL     1      40.352  -8.417   4.382  1.00  0.00     0.033 A 
HETATM   23  C   UNL     1      41.501  -8.981   4.934  1.00  0.00     0.039 A 
HETATM   24  H   UNL     1      38.144  -7.810   2.775  1.00  0.00     0.169 HD
ENDROOT
BRANCH   1  25
HETATM   25  O   UNL     1      43.221 -10.551   5.023  1.00  0.00    -0.356 OA
HETATM   26  C   UNL     1      43.140 -10.689   6.437  1.00  0.00     0.210 C 
ENDBRANCH   1  25
BRANCH  19  27
HETATM   27  C   UNL     1      41.225 -14.833   1.600  1.00  0.00     0.045 A 
HETATM   28  C   UNL     1      42.613 -14.629   1.498  1.00  0.00     0.030 A 
HETATM   29  C   UNL     1      43.534 -15.635   1.819  1.00  0.00     0.002 A 
HETATM   30  C   UNL     1      43.092 -16.875   2.257  1.00  0.00     0.000 A 
HETATM   31  C   UNL     1      41.730 -17.105   2.384  1.00  0.00     0.002 A 
HETATM   32  C   UNL     1      40.813 -16.098   2.063  1.00  0.00     0.030 A 
ENDBRANCH  19  27
TORSDOF 2
ENDMDL
MODEL 9
REMARK VINA RESULT:      -7.8      7.692     10.426
REMARK  2 active torsions:
REMARK  status: ('A' for Active; 'I' for Inactive)
REMARK    1  A    between atoms: O_2  and  C_3 
REMARK    2  A    between atoms: N_21  and  C_22 
ROOT
HETATM    1  C   UNL     1      44.625  -8.791   9.172  1.00  0.00     0.069 A 
HETATM    2  C   UNL     1      43.279  -8.405   9.168  1.00  0.00     0.049 A 
HETATM    3  C   UNL     1      42.415  -9.011  10.073  1.00  0.00     0.018 A 
HETATM    4  C   UNL     1      42.907  -9.961  10.974  1.00  0.00     0.044 A 
HETATM    5  N   UNL     1      41.900 -10.409  11.813  1.00  0.00    -0.324 N 
HETATM    6  C   UNL     1      40.699  -9.794  11.519  1.00  0.00     0.264 A 
HETATM    7  O   UNL     1      39.642  -9.947  12.110  1.00  0.00    -0.270 OA
HETATM    8  C   UNL     1      40.948  -8.789  10.334  1.00  0.00     0.250 A 
HETATM    9  N   UNL     1      40.641  -7.353  10.717  1.00  0.00    -0.043 N 
HETATM   10  H   UNL     1      41.074  -6.748  10.005  1.00  0.00     0.282 HD
HETATM   11  C   UNL     1      39.140  -7.237  10.652  1.00  0.00     0.204 C 
HETATM   12  C   UNL     1      38.977  -5.763  10.940  1.00  0.00     0.036 C 
HETATM   13  C   UNL     1      40.006  -5.536  12.073  1.00  0.00     0.030 C 
HETATM   14  C   UNL     1      40.994  -6.717  12.022  1.00  0.00     0.237 C 
HETATM   15  C   UNL     1      38.788  -7.994   9.392  1.00  0.00     0.126 C 
HETATM   16  C   UNL     1      39.871  -9.072   9.252  1.00  0.00     0.145 C 
HETATM   17  C   UNL     1      40.364  -8.888   7.851  1.00  0.00     0.239 C 
HETATM   18  O   UNL     1      41.109  -9.715   7.347  1.00  0.00    -0.272 OA
HETATM   19  N   UNL     1      39.886  -7.699   7.338  1.00  0.00    -0.252 N 
HETATM   20  C   UNL     1      38.921  -7.158   8.161  1.00  0.00     0.238 C 
HETATM   21  O   UNL     1      38.264  -6.137   8.041  1.00  0.00    -0.272 OA
HETATM   22  C   UNL     1      44.227 -10.349  11.010  1.00  0.00     0.033 A 
HETATM   23  C   UNL     1      45.090  -9.746  10.095  1.00  0.00     0.039 A 
HETATM   24  H   UNL     1      42.014 -11.100  12.545  1.00  0.00     0.169 HD
ENDROOT
BRANCH   1  25
HETATM   25  O   UNL     1      45.594  -8.285   8.351  1.00  0.00    -0.356 OA
HETATM   26  C   UNL     1      46.556  -9.203   7.843  1.00  0.00     0.210 C 
ENDBRANCH   1  25
BRANCH  19  27
HETATM   27  C   UNL     1      40.338  -7.096   6.115  1.00  0.00     0.045 A 
HETATM   28  C   UNL     1      39.751  -7.404   4.875  1.00  0.00     0.030 A 
HETATM   29  C   UNL     1      40.235  -6.868   3.674  1.00  0.00     0.002 A 
HETATM   30  C   UNL     1      41.320  -6.003   3.680  1.00  0.00     0.000 A 
HETATM   31  C   UNL     1      41.912  -5.666   4.888  1.00  0.00     0.002 A 
HETATM   32  C   UNL     1      41.426  -6.203   6.086  1.00  0.00     0.030 A 
ENDBRANCH  19  27
TORSDOF 2
ENDMDL
MODEL 10
REMARK VINA RESULT:      -7.8      2.259      5.991
REMARK  2 active torsions:
REMARK  status: ('A' for Active; 'I' for Inactive)
REMARK    1  A    between atoms: O_2  and  C_3 
REMARK    2  A    between atoms: N_21  and  C_22 
ROOT
HETATM    1  C   UNL     1      43.637 -18.185   3.414  1.00  0.00     0.069 A 
HETATM    2  C   UNL     1      43.131 -16.962   3.871  1.00  0.00     0.049 A 
HETATM    3  C   UNL     1      43.001 -16.771   5.242  1.00  0.00     0.018 A 
HETATM    4  C   UNL     1      43.399 -17.781   6.125  1.00  0.00     0.044 A 
HETATM    5  N   UNL     1      43.230 -17.378   7.439  1.00  0.00    -0.324 N 
HETATM    6  C   UNL     1      42.715 -16.099   7.504  1.00  0.00     0.264 A 
HETATM    7  O   UNL     1      42.498 -15.454   8.517  1.00  0.00    -0.270 OA
HETATM    8  C   UNL     1      42.533 -15.576   6.030  1.00  0.00     0.250 A 
HETATM    9  N   UNL     1      43.364 -14.337   5.748  1.00  0.00    -0.043 N 
HETATM   10  H   UNL     1      43.402 -14.223   4.726  1.00  0.00     0.282 HD
HETATM   11  C   UNL     1      42.600 -13.197   6.369  1.00  0.00     0.204 C 
HETATM   12  C   UNL     1      43.458 -12.034   5.929  1.00  0.00     0.036 C 
HETATM   13  C   UNL     1      44.888 -12.585   6.140  1.00  0.00     0.030 C 
HETATM   14  C   UNL     1      44.769 -14.121   6.208  1.00  0.00     0.237 C 
HETATM   15  C   UNL     1      41.165 -13.499   6.001  1.00  0.00     0.126 C 
HETATM   16  C   UNL     1      41.085 -15.029   5.908  1.00  0.00     0.145 C 
HETATM   17  C   UNL     1      40.467 -15.264   4.565  1.00  0.00     0.239 C 
HETATM   18  O   UNL     1      40.088 -16.380   4.248  1.00  0.00    -0.272 OA
HETATM   19  N   UNL     1      40.465 -14.090   3.839  1.00  0.00    -0.252 N 
HETATM   20  C   UNL     1      40.806 -13.016   4.634  1.00  0.00     0.238 C 
HETATM   21  O   UNL     1      40.898 -11.830   4.361  1.00  0.00    -0.272 OA
HETATM   22  C   UNL     1      43.912 -18.987   5.704  1.00  0.00     0.033 A 
HETATM   23  C   UNL     1      44.032 -19.179   4.328  1.00  0.00     0.039 A 
HETATM   24  H   UNL     1      43.446 -17.939   8.255  1.00  0.00     0.169 HD
ENDROOT
BRANCH   1  25
HETATM   25  O   UNL     1      43.827 -18.520   2.102  1.00  0.00    -0.356 OA
HETATM   26  C   UNL     1      43.628 -19.883   1.747  1.00  0.00     0.210 C 
ENDBRANCH   1  25
BRANCH  19  27
HETATM   27  C   UNL     1      40.160 -13.995   2.438  1.00  0.00     0.045 A 
HETATM   28  C   UNL     1      40.581 -14.974   1.520  1.00  0.00     0.030 A 
HETATM   29  C   UNL     1      40.342 -14.848   0.144  1.00  0.00     0.002 A 
HETATM   30  C   UNL     1      39.669 -13.741  -0.352  1.00  0.00     0.000 A 
HETATM   31  C   UNL     1      39.226 -12.766   0.529  1.00  0.00     0.002 A 
HETATM   32  C   UNL     1      39.466 -12.893   1.902  1.00  0.00     0.030 A 
ENDBRANCH  19  27
TORSDOF 2
ENDMDL
