MODEL 1
REMARK VINA RESULT:      -7.7      0.000      0.000
REMARK  6 active torsions:
REMARK  status: ('A' for Active; 'I' for Inactive)
REMARK    1  A    between atoms: C_2  and  N_3 
REMARK    2  A    between atoms: C_2  and  C_17 
REMARK       I    between atoms: N_3  and  C_4 
REMARK    3  A    between atoms: C_4  and  C_5 
REMARK    4  A    between atoms: C_6  and  O_7 
REMARK    5  A    between atoms: O_7  and  C_8 
REMARK    6  A    between atoms: C_8  and  C_9 
ROOT
HETATM    1  N   UNL     1      41.577 -14.388   3.676  1.00  0.00    -0.346 N 
HETATM    2  C   UNL     1      41.186 -13.691   4.789  1.00  0.00     0.256 C 
HETATM    3  O   UNL     1      39.997 -13.618   5.080  1.00  0.00    -0.267 OA
HETATM    4  H   UNL     1      40.793 -14.827   3.213  1.00  0.00     0.163 HD
ENDROOT
BRANCH   1   5
HETATM    5  C   UNL     1      42.921 -14.672   3.191  1.00  0.00     0.150 C 
HETATM    6  C   UNL     1      43.126 -14.080   1.801  1.00  0.00     0.040 C 
BRANCH   5   7
HETATM    7  C   UNL     1      43.108 -16.161   3.221  1.00  0.00     0.127 A 
HETATM    8  N   UNL     1      42.859 -17.003   2.235  1.00  0.00    -0.231 NA
HETATM    9  C   UNL     1      43.230 -18.243   2.697  1.00  0.00     0.085 A 
HETATM   10  C   UNL     1      43.710 -18.164   3.998  1.00  0.00     0.062 A 
HETATM   11  C   UNL     1      43.190 -19.491   2.060  1.00  0.00     0.034 A 
HETATM   12  N   UNL     1      43.625 -16.831   4.307  1.00  0.00    -0.341 N 
HETATM   13  C   UNL     1      44.161 -19.270   4.722  1.00  0.00     0.032 A 
HETATM   14  H   UNL     1      43.910 -16.414   5.180  1.00  0.00     0.167 HD
HETATM   15  C   UNL     1      44.113 -20.506   4.070  1.00  0.00     0.002 A 
HETATM   16  C   UNL     1      43.638 -20.620   2.761  1.00  0.00     0.002 A 
ENDBRANCH   5   7
ENDBRANCH   1   5
BRANCH   2  17
HETATM   17  C   UNL     1      42.185 -13.026   5.637  1.00  0.00     0.084 A 
HETATM   18  C   UNL     1      42.965 -13.767   6.517  1.00  0.00     0.180 A 
HETATM   19  N   UNL     1      43.913 -13.217   7.316  1.00  0.00    -0.236 NA
HETATM   20  C   UNL     1      44.112 -11.885   7.194  1.00  0.00     0.119 A 
HETATM   21  C   UNL     1      43.404 -11.072   6.320  1.00  0.00     0.020 A 
HETATM   22  C   UNL     1      42.425 -11.656   5.521  1.00  0.00     0.023 A 
BRANCH  18  23
HETATM   23  O   UNL     1      42.702 -15.112   6.664  1.00  0.00    -0.328 OA
BRANCH  23  24
HETATM   24  C   UNL     1      43.019 -15.616   7.969  1.00  0.00     0.248 C 
BRANCH  24  25
HETATM   25  C   UNL     1      43.952 -16.814   7.913  1.00  0.00     0.377 C 
HETATM   26  F   UNL     1      43.289 -17.882   7.387  1.00  0.00    -0.212 F 
HETATM   27  F   UNL     1      44.977 -16.552   7.058  1.00  0.00    -0.212 F 
ENDBRANCH  24  25
ENDBRANCH  23  24
ENDBRANCH  18  23
ENDBRANCH   2  17
TORSDOF 6
ENDMDL
MODEL 2
REMARK VINA RESULT:      -7.3      2.773      3.601
REMARK  6 active torsions:
REMARK  status: ('A' for Active; 'I' for Inactive)
REMARK    1  A    between atoms: C_2  and  N_3 
REMARK    2  A    between atoms: C_2  and  C_17 
REMARK       I    between atoms: N_3  and  C_4 
REMARK    3  A    between atoms: C_4  and  C_5 
REMARK    4  A    between atoms: C_6  and  O_7 
REMARK    5  A    between atoms: O_7  and  C_8 
REMARK    6  A    between atoms: C_8  and  C_9 
ROOT
HETATM    1  N   UNL     1      41.938 -14.709   3.748  1.00  0.00    -0.346 N 
HETATM    2  C   UNL     1      41.766 -13.767   4.728  1.00  0.00     0.256 C 
HETATM    3  O   UNL     1      40.655 -13.589   5.218  1.00  0.00    -0.267 OA
HETATM    4  H   UNL     1      41.083 -15.214   3.556  1.00  0.00     0.163 HD
ENDROOT
BRANCH   1   5
HETATM    5  C   UNL     1      43.164 -15.142   3.090  1.00  0.00     0.150 C 
HETATM    6  C   UNL     1      43.118 -14.817   1.601  1.00  0.00     0.040 C 
BRANCH   5   7
HETATM    7  C   UNL     1      43.329 -16.609   3.360  1.00  0.00     0.127 A 
HETATM    8  N   UNL     1      43.335 -17.576   2.460  1.00  0.00    -0.231 NA
HETATM    9  C   UNL     1      43.569 -18.737   3.159  1.00  0.00     0.085 A 
HETATM   10  C   UNL     1      43.703 -18.480   4.516  1.00  0.00     0.062 A 
HETATM   11  C   UNL     1      43.685 -20.056   2.699  1.00  0.00     0.034 A 
HETATM   12  N   UNL     1      43.549 -17.122   4.619  1.00  0.00    -0.341 N 
HETATM   13  C   UNL     1      43.948 -19.472   5.468  1.00  0.00     0.032 A 
HETATM   14  H   UNL     1      43.605 -16.589   5.474  1.00  0.00     0.167 HD
HETATM   15  C   UNL     1      44.062 -20.781   4.992  1.00  0.00     0.002 A 
HETATM   16  C   UNL     1      43.934 -21.074   3.631  1.00  0.00     0.002 A 
ENDBRANCH   5   7
ENDBRANCH   1   5
BRANCH   2  17
HETATM   17  C   UNL     1      42.904 -12.964   5.194  1.00  0.00     0.084 A 
HETATM   18  C   UNL     1      43.382 -11.911   4.422  1.00  0.00     0.180 A 
HETATM   19  N   UNL     1      44.419 -11.122   4.801  1.00  0.00    -0.236 NA
HETATM   20  C   UNL     1      44.962 -11.373   6.015  1.00  0.00     0.119 A 
HETATM   21  C   UNL     1      44.527 -12.379   6.865  1.00  0.00     0.020 A 
HETATM   22  C   UNL     1      43.472 -13.186   6.448  1.00  0.00     0.023 A 
BRANCH  18  23
HETATM   23  O   UNL     1      42.851 -11.714   3.166  1.00  0.00    -0.328 OA
BRANCH  23  24
HETATM   24  C   UNL     1      42.011 -10.556   3.076  1.00  0.00     0.248 C 
BRANCH  24  25
HETATM   25  C   UNL     1      40.606 -10.898   2.609  1.00  0.00     0.377 C 
HETATM   26  F   UNL     1      40.596 -12.152   2.076  1.00  0.00    -0.212 F 
HETATM   27  F   UNL     1      39.769 -10.941   3.680  1.00  0.00    -0.212 F 
ENDBRANCH  24  25
ENDBRANCH  23  24
ENDBRANCH  18  23
ENDBRANCH   2  17
TORSDOF 6
ENDMDL
MODEL 3
REMARK VINA RESULT:      -7.2      3.107      5.858
REMARK  6 active torsions:
REMARK  status: ('A' for Active; 'I' for Inactive)
REMARK    1  A    between atoms: C_2  and  N_3 
REMARK    2  A    between atoms: C_2  and  C_17 
REMARK       I    between atoms: N_3  and  C_4 
REMARK    3  A    between atoms: C_4  and  C_5 
REMARK    4  A    between atoms: C_6  and  O_7 
REMARK    5  A    between atoms: O_7  and  C_8 
REMARK    6  A    between atoms: C_8  and  C_9 
ROOT
HETATM    1  N   UNL     1      41.288 -14.695   3.185  1.00  0.00    -0.346 N 
HETATM    2  C   UNL     1      41.278 -15.920   3.797  1.00  0.00     0.256 C 
HETATM    3  O   UNL     1      40.378 -16.207   4.581  1.00  0.00    -0.267 OA
HETATM    4  H   UNL     1      40.476 -14.144   3.432  1.00  0.00     0.163 HD
ENDROOT
BRANCH   1   5
HETATM    5  C   UNL     1      42.197 -14.177   2.172  1.00  0.00     0.150 C 
HETATM    6  C   UNL     1      42.854 -12.886   2.649  1.00  0.00     0.040 C 
BRANCH   5   7
HETATM    7  C   UNL     1      41.411 -13.995   0.906  1.00  0.00     0.127 A 
HETATM    8  N   UNL     1      40.585 -14.871   0.364  1.00  0.00    -0.231 NA
HETATM    9  C   UNL     1      40.058 -14.252  -0.745  1.00  0.00     0.085 A 
HETATM   10  C   UNL     1      40.577 -12.972  -0.891  1.00  0.00     0.062 A 
HETATM   11  C   UNL     1      39.123 -14.720  -1.679  1.00  0.00     0.034 A 
HETATM   12  N   UNL     1      41.432 -12.832   0.170  1.00  0.00    -0.341 N 
HETATM   13  C   UNL     1      40.220 -12.111  -1.931  1.00  0.00     0.032 A 
HETATM   14  H   UNL     1      41.971 -12.006   0.382  1.00  0.00     0.167 HD
HETATM   15  C   UNL     1      39.286 -12.594  -2.852  1.00  0.00     0.002 A 
HETATM   16  C   UNL     1      38.743 -13.877  -2.732  1.00  0.00     0.002 A 
ENDBRANCH   5   7
ENDBRANCH   1   5
BRANCH   2  17
HETATM   17  C   UNL     1      42.342 -16.895   3.524  1.00  0.00     0.084 A 
HETATM   18  C   UNL     1      43.460 -16.963   4.347  1.00  0.00     0.180 A 
HETATM   19  N   UNL     1      44.470 -17.848   4.159  1.00  0.00    -0.236 NA
HETATM   20  C   UNL     1      44.329 -18.723   3.137  1.00  0.00     0.119 A 
HETATM   21  C   UNL     1      43.234 -18.751   2.286  1.00  0.00     0.020 A 
HETATM   22  C   UNL     1      42.217 -17.822   2.488  1.00  0.00     0.023 A 
BRANCH  18  23
HETATM   23  O   UNL     1      43.607 -16.023   5.345  1.00  0.00    -0.328 OA
BRANCH  23  24
HETATM   24  C   UNL     1      43.557 -16.579   6.665  1.00  0.00     0.248 C 
BRANCH  24  25
HETATM   25  C   UNL     1      42.526 -15.889   7.542  1.00  0.00     0.377 C 
HETATM   26  F   UNL     1      43.096 -15.549   8.732  1.00  0.00    -0.212 F 
HETATM   27  F   UNL     1      42.144 -14.720   6.961  1.00  0.00    -0.212 F 
ENDBRANCH  24  25
ENDBRANCH  23  24
ENDBRANCH  18  23
ENDBRANCH   2  17
TORSDOF 6
ENDMDL
MODEL 4
REMARK VINA RESULT:      -7.1      2.479      6.642
REMARK  6 active torsions:
REMARK  status: ('A' for Active; 'I' for Inactive)
REMARK    1  A    between atoms: C_2  and  N_3 
REMARK    2  A    between atoms: C_2  and  C_17 
REMARK       I    between atoms: N_3  and  C_4 
REMARK    3  A    between atoms: C_4  and  C_5 
REMARK    4  A    between atoms: C_6  and  O_7 
REMARK    5  A    between atoms: O_7  and  C_8 
REMARK    6  A    between atoms: C_8  and  C_9 
ROOT
HETATM    1  N   UNL     1      41.688 -13.800   6.568  1.00  0.00    -0.346 N 
HETATM    2  C   UNL     1      40.527 -13.577   5.876  1.00  0.00     0.256 C 
HETATM    3  O   UNL     1      39.450 -13.594   6.463  1.00  0.00    -0.267 OA
HETATM    4  H   UNL     1      41.519 -13.919   7.558  1.00  0.00     0.163 HD
ENDROOT
BRANCH   1   5
HETATM    5  C   UNL     1      43.066 -13.746   6.099  1.00  0.00     0.150 C 
HETATM    6  C   UNL     1      43.799 -15.040   6.438  1.00  0.00     0.040 C 
BRANCH   5   7
HETATM    7  C   UNL     1      43.709 -12.537   6.715  1.00  0.00     0.127 A 
HETATM    8  N   UNL     1      45.003 -12.286   6.784  1.00  0.00    -0.231 NA
HETATM    9  C   UNL     1      45.114 -11.051   7.377  1.00  0.00     0.085 A 
HETATM   10  C   UNL     1      43.863 -10.535   7.686  1.00  0.00     0.062 A 
HETATM   11  C   UNL     1      46.258 -10.299   7.682  1.00  0.00     0.034 A 
HETATM   12  N   UNL     1      42.987 -11.496   7.254  1.00  0.00    -0.341 N 
HETATM   13  C   UNL     1      43.671  -9.293   8.295  1.00  0.00     0.032 A 
HETATM   14  H   UNL     1      41.981 -11.438   7.309  1.00  0.00     0.167 HD
HETATM   15  C   UNL     1      44.822  -8.557   8.592  1.00  0.00     0.002 A 
HETATM   16  C   UNL     1      46.096  -9.047   8.292  1.00  0.00     0.002 A 
ENDBRANCH   5   7
ENDBRANCH   1   5
BRANCH   2  17
HETATM   17  C   UNL     1      40.562 -13.322   4.429  1.00  0.00     0.084 A 
HETATM   18  C   UNL     1      40.706 -14.376   3.534  1.00  0.00     0.180 A 
HETATM   19  N   UNL     1      40.732 -14.210   2.188  1.00  0.00    -0.236 NA
HETATM   20  C   UNL     1      40.563 -12.950   1.727  1.00  0.00     0.119 A 
HETATM   21  C   UNL     1      40.380 -11.844   2.545  1.00  0.00     0.020 A 
HETATM   22  C   UNL     1      40.373 -12.035   3.924  1.00  0.00     0.023 A 
BRANCH  18  23
HETATM   23  O   UNL     1      40.935 -15.641   4.030  1.00  0.00    -0.328 OA
BRANCH  23  24
HETATM   24  C   UNL     1      41.469 -16.548   3.057  1.00  0.00     0.248 C 
BRANCH  24  25
HETATM   25  C   UNL     1      42.930 -16.876   3.315  1.00  0.00     0.377 C 
HETATM   26  F   UNL     1      43.026 -17.710   4.388  1.00  0.00    -0.212 F 
HETATM   27  F   UNL     1      43.434 -17.567   2.258  1.00  0.00    -0.212 F 
ENDBRANCH  24  25
ENDBRANCH  23  24
ENDBRANCH  18  23
ENDBRANCH   2  17
TORSDOF 6
ENDMDL
MODEL 5
REMARK VINA RESULT:      -7.0      3.116      4.575
REMARK  6 active torsions:
REMARK  status: ('A' for Active; 'I' for Inactive)
REMARK    1  A    between atoms: C_2  and  N_3 
REMARK    2  A    between atoms: C_2  and  C_17 
REMARK       I    between atoms: N_3  and  C_4 
REMARK    3  A    between atoms: C_4  and  C_5 
REMARK    4  A    between atoms: C_6  and  O_7 
REMARK    5  A    between atoms: O_7  and  C_8 
REMARK    6  A    between atoms: C_8  and  C_9 
ROOT
HETATM    1  N   UNL     1      43.597 -13.069   4.752  1.00  0.00    -0.346 N 
HETATM    2  C   UNL     1      43.163 -12.030   3.972  1.00  0.00     0.256 C 
HETATM    3  O   UNL     1      43.975 -11.330   3.376  1.00  0.00    -0.267 OA
HETATM    4  H   UNL     1      44.602 -13.176   4.713  1.00  0.00     0.163 HD
ENDROOT
BRANCH   1   5
HETATM    5  C   UNL     1      42.820 -14.067   5.474  1.00  0.00     0.150 C 
HETATM    6  C   UNL     1      43.173 -14.053   6.958  1.00  0.00     0.040 C 
BRANCH   5   7
HETATM    7  C   UNL     1      43.078 -15.398   4.829  1.00  0.00     0.127 A 
HETATM    8  N   UNL     1      43.751 -16.406   5.352  1.00  0.00    -0.231 NA
HETATM    9  C   UNL     1      43.680 -17.423   4.430  1.00  0.00     0.085 A 
HETATM   10  C   UNL     1      42.954 -17.030   3.314  1.00  0.00     0.062 A 
HETATM   11  C   UNL     1      44.210 -18.720   4.478  1.00  0.00     0.034 A 
HETATM   12  N   UNL     1      42.580 -15.741   3.592  1.00  0.00    -0.341 N 
HETATM   13  C   UNL     1      42.717 -17.861   2.217  1.00  0.00     0.032 A 
HETATM   14  H   UNL     1      42.020 -15.152   2.994  1.00  0.00     0.167 HD
HETATM   15  C   UNL     1      43.253 -19.151   2.281  1.00  0.00     0.002 A 
HETATM   16  C   UNL     1      43.987 -19.578   3.391  1.00  0.00     0.002 A 
ENDBRANCH   5   7
ENDBRANCH   1   5
BRANCH   2  17
HETATM   17  C   UNL     1      41.727 -11.744   3.847  1.00  0.00     0.084 A 
HETATM   18  C   UNL     1      40.944 -12.461   2.951  1.00  0.00     0.180 A 
HETATM   19  N   UNL     1      39.612 -12.257   2.796  1.00  0.00    -0.236 NA
HETATM   20  C   UNL     1      39.042 -11.333   3.603  1.00  0.00     0.119 A 
HETATM   21  C   UNL     1      39.739 -10.594   4.548  1.00  0.00     0.020 A 
HETATM   22  C   UNL     1      41.108 -10.809   4.678  1.00  0.00     0.023 A 
BRANCH  18  23
HETATM   23  O   UNL     1      41.559 -13.356   2.100  1.00  0.00    -0.328 OA
BRANCH  23  24
HETATM   24  C   UNL     1      40.796 -13.639   0.921  1.00  0.00     0.248 C 
BRANCH  24  25
HETATM   25  C   UNL     1      40.414 -15.107   0.820  1.00  0.00     0.377 C 
HETATM   26  F   UNL     1      39.683 -15.462   1.913  1.00  0.00    -0.212 F 
HETATM   27  F   UNL     1      39.598 -15.291  -0.252  1.00  0.00    -0.212 F 
ENDBRANCH  24  25
ENDBRANCH  23  24
ENDBRANCH  18  23
ENDBRANCH   2  17
TORSDOF 6
ENDMDL
MODEL 6
REMARK VINA RESULT:      -7.0      2.372      3.161
REMARK  6 active torsions:
REMARK  status: ('A' for Active; 'I' for Inactive)
REMARK    1  A    between atoms: C_2  and  N_3 
REMARK    2  A    between atoms: C_2  and  C_17 
REMARK       I    between atoms: N_3  and  C_4 
REMARK    3  A    between atoms: C_4  and  C_5 
REMARK    4  A    between atoms: C_6  and  O_7 
REMARK    5  A    between atoms: O_7  and  C_8 
REMARK    6  A    between atoms: C_8  and  C_9 
ROOT
HETATM    1  N   UNL     1      40.128 -14.120   4.605  1.00  0.00    -0.346 N 
HETATM    2  C   UNL     1      39.923 -12.987   5.347  1.00  0.00     0.256 C 
HETATM    3  O   UNL     1      39.418 -13.068   6.462  1.00  0.00    -0.267 OA
HETATM    4  H   UNL     1      39.861 -14.954   5.110  1.00  0.00     0.163 HD
ENDROOT
BRANCH   1   5
HETATM    5  C   UNL     1      40.778 -14.269   3.310  1.00  0.00     0.150 C 
HETATM    6  C   UNL     1      39.743 -14.303   2.190  1.00  0.00     0.040 C 
BRANCH   5   7
HETATM    7  C   UNL     1      41.617 -15.512   3.363  1.00  0.00     0.127 A 
HETATM    8  N   UNL     1      41.665 -16.466   2.451  1.00  0.00    -0.231 NA
HETATM    9  C   UNL     1      42.603 -17.366   2.899  1.00  0.00     0.085 A 
HETATM   10  C   UNL     1      43.138 -16.961   4.114  1.00  0.00     0.062 A 
HETATM   11  C   UNL     1      43.057 -18.557   2.316  1.00  0.00     0.034 A 
HETATM   12  N   UNL     1      42.497 -15.780   4.387  1.00  0.00    -0.341 N 
HETATM   13  C   UNL     1      44.115 -17.681   4.804  1.00  0.00     0.032 A 
HETATM   14  H   UNL     1      42.660 -15.200   5.196  1.00  0.00     0.167 HD
HETATM   15  C   UNL     1      44.556 -18.867   4.208  1.00  0.00     0.002 A 
HETATM   16  C   UNL     1      44.040 -19.301   2.984  1.00  0.00     0.002 A 
ENDBRANCH   5   7
ENDBRANCH   1   5
BRANCH   2  17
HETATM   17  C   UNL     1      40.301 -11.671   4.814  1.00  0.00     0.084 A 
HETATM   18  C   UNL     1      41.623 -11.244   4.871  1.00  0.00     0.180 A 
HETATM   19  N   UNL     1      42.041 -10.049   4.386  1.00  0.00    -0.236 NA
HETATM   20  C   UNL     1      41.107  -9.278   3.783  1.00  0.00     0.119 A 
HETATM   21  C   UNL     1      39.773  -9.637   3.651  1.00  0.00     0.020 A 
HETATM   22  C   UNL     1      39.364 -10.862   4.171  1.00  0.00     0.023 A 
BRANCH  18  23
HETATM   23  O   UNL     1      42.543 -12.022   5.542  1.00  0.00    -0.328 OA
BRANCH  23  24
HETATM   24  C   UNL     1      43.842 -11.423   5.627  1.00  0.00     0.248 C 
BRANCH  24  25
HETATM   25  C   UNL     1      44.688 -12.035   6.732  1.00  0.00     0.377 C 
HETATM   26  F   UNL     1      44.625 -13.393   6.653  1.00  0.00    -0.212 F 
HETATM   27  F   UNL     1      45.994 -11.709   6.538  1.00  0.00    -0.212 F 
ENDBRANCH  24  25
ENDBRANCH  23  24
ENDBRANCH  18  23
ENDBRANCH   2  17
TORSDOF 6
ENDMDL
MODEL 7
REMARK VINA RESULT:      -6.9      1.915      2.132
REMARK  6 active torsions:
REMARK  status: ('A' for Active; 'I' for Inactive)
REMARK    1  A    between atoms: C_2  and  N_3 
REMARK    2  A    between atoms: C_2  and  C_17 
REMARK       I    between atoms: N_3  and  C_4 
REMARK    3  A    between atoms: C_4  and  C_5 
REMARK    4  A    between atoms: C_6  and  O_7 
REMARK    5  A    between atoms: O_7  and  C_8 
REMARK    6  A    between atoms: C_8  and  C_9 
ROOT
HETATM    1  N   UNL     1      41.697 -15.108   2.614  1.00  0.00    -0.346 N 
HETATM    2  C   UNL     1      40.970 -14.061   3.117  1.00  0.00     0.256 C 
HETATM    3  O   UNL     1      39.749 -14.051   2.999  1.00  0.00    -0.267 OA
HETATM    4  H   UNL     1      41.103 -15.821   2.213  1.00  0.00     0.163 HD
ENDROOT
BRANCH   1   5
HETATM    5  C   UNL     1      43.128 -15.366   2.709  1.00  0.00     0.150 C 
HETATM    6  C   UNL     1      43.821 -15.044   1.390  1.00  0.00     0.040 C 
BRANCH   5   7
HETATM    7  C   UNL     1      43.304 -16.798   3.123  1.00  0.00     0.127 A 
HETATM    8  N   UNL     1      43.305 -17.851   2.326  1.00  0.00    -0.231 NA
HETATM    9  C   UNL     1      43.552 -18.934   3.135  1.00  0.00     0.085 A 
HETATM   10  C   UNL     1      43.699 -18.541   4.459  1.00  0.00     0.062 A 
HETATM   11  C   UNL     1      43.671 -20.292   2.810  1.00  0.00     0.034 A 
HETATM   12  N   UNL     1      43.539 -17.180   4.425  1.00  0.00    -0.341 N 
HETATM   13  C   UNL     1      43.959 -19.431   5.503  1.00  0.00     0.032 A 
HETATM   14  H   UNL     1      43.600 -16.563   5.222  1.00  0.00     0.167 HD
HETATM   15  C   UNL     1      44.074 -20.781   5.160  1.00  0.00     0.002 A 
HETATM   16  C   UNL     1      43.934 -21.210   3.837  1.00  0.00     0.002 A 
ENDBRANCH   5   7
ENDBRANCH   1   5
BRANCH   2  17
HETATM   17  C   UNL     1      41.644 -12.945   3.794  1.00  0.00     0.084 A 
HETATM   18  C   UNL     1      42.332 -13.158   4.982  1.00  0.00     0.180 A 
HETATM   19  N   UNL     1      42.986 -12.175   5.650  1.00  0.00    -0.236 NA
HETATM   20  C   UNL     1      42.986 -10.949   5.079  1.00  0.00     0.119 A 
HETATM   21  C   UNL     1      42.355 -10.653   3.880  1.00  0.00     0.020 A 
HETATM   22  C   UNL     1      41.676 -11.673   3.221  1.00  0.00     0.023 A 
BRANCH  18  23
HETATM   23  O   UNL     1      42.268 -14.402   5.572  1.00  0.00    -0.328 OA
BRANCH  23  24
HETATM   24  C   UNL     1      41.130 -14.570   6.429  1.00  0.00     0.248 C 
BRANCH  24  25
HETATM   25  C   UNL     1      40.682 -16.020   6.513  1.00  0.00     0.377 C 
HETATM   26  F   UNL     1      39.444 -16.080   7.078  1.00  0.00    -0.212 F 
HETATM   27  F   UNL     1      40.546 -16.527   5.259  1.00  0.00    -0.212 F 
ENDBRANCH  24  25
ENDBRANCH  23  24
ENDBRANCH  18  23
ENDBRANCH   2  17
TORSDOF 6
ENDMDL
MODEL 8
REMARK VINA RESULT:      -6.7      3.405      5.555
REMARK  6 active torsions:
REMARK  status: ('A' for Active; 'I' for Inactive)
REMARK    1  A    between atoms: C_2  and  N_3 
REMARK    2  A    between atoms: C_2  and  C_17 
REMARK       I    between atoms: N_3  and  C_4 
REMARK    3  A    between atoms: C_4  and  C_5 
REMARK    4  A    between atoms: C_6  and  O_7 
REMARK    5  A    between atoms: O_7  and  C_8 
REMARK    6  A    between atoms: C_8  and  C_9 
ROOT
HETATM    1  N   UNL     1      42.662 -13.940   2.440  1.00  0.00    -0.346 N 
HETATM    2  C   UNL     1      42.721 -13.585   3.762  1.00  0.00     0.256 C 
HETATM    3  O   UNL     1      43.367 -12.599   4.104  1.00  0.00    -0.267 OA
HETATM    4  H   UNL     1      43.155 -13.282   1.851  1.00  0.00     0.163 HD
ENDROOT
BRANCH   1   5
HETATM    5  C   UNL     1      41.899 -15.006   1.806  1.00  0.00     0.150 C 
HETATM    6  C   UNL     1      42.821 -16.144   1.378  1.00  0.00     0.040 C 
BRANCH   5   7
HETATM    7  C   UNL     1      41.148 -14.404   0.654  1.00  0.00     0.127 A 
HETATM    8  N   UNL     1      40.132 -14.949   0.009  1.00  0.00    -0.231 NA
HETATM    9  C   UNL     1      39.736 -14.018  -0.921  1.00  0.00     0.085 A 
HETATM   10  C   UNL     1      40.529 -12.880  -0.852  1.00  0.00     0.062 A 
HETATM   11  C   UNL     1      38.699 -14.071  -1.863  1.00  0.00     0.034 A 
HETATM   12  N   UNL     1      41.416 -13.148   0.157  1.00  0.00    -0.341 N 
HETATM   13  C   UNL     1      40.354 -11.768  -1.679  1.00  0.00     0.032 A 
HETATM   14  H   UNL     1      42.134 -12.521   0.488  1.00  0.00     0.167 HD
HETATM   15  C   UNL     1      39.315 -11.839  -2.612  1.00  0.00     0.002 A 
HETATM   16  C   UNL     1      38.498 -12.969  -2.705  1.00  0.00     0.002 A 
ENDBRANCH   5   7
ENDBRANCH   1   5
BRANCH   2  17
HETATM   17  C   UNL     1      42.017 -14.380   4.777  1.00  0.00     0.084 A 
HETATM   18  C   UNL     1      42.575 -15.561   5.254  1.00  0.00     0.180 A 
HETATM   19  N   UNL     1      41.985 -16.334   6.200  1.00  0.00    -0.236 NA
HETATM   20  C   UNL     1      40.818 -15.880   6.715  1.00  0.00     0.119 A 
HETATM   21  C   UNL     1      40.207 -14.698   6.323  1.00  0.00     0.020 A 
HETATM   22  C   UNL     1      40.822 -13.929   5.340  1.00  0.00     0.023 A 
BRANCH  18  23
HETATM   23  O   UNL     1      43.733 -16.030   4.673  1.00  0.00    -0.328 OA
BRANCH  23  24
HETATM   24  C   UNL     1      44.284 -17.173   5.339  1.00  0.00     0.248 C 
BRANCH  24  25
HETATM   25  C   UNL     1      44.409 -18.374   4.417  1.00  0.00     0.377 C 
HETATM   26  F   UNL     1      44.459 -19.515   5.159  1.00  0.00    -0.212 F 
HETATM   27  F   UNL     1      43.291 -18.476   3.649  1.00  0.00    -0.212 F 
ENDBRANCH  24  25
ENDBRANCH  23  24
ENDBRANCH  18  23
ENDBRANCH   2  17
TORSDOF 6
ENDMDL
MODEL 9
REMARK VINA RESULT:      -6.6      4.180      6.633
REMARK  6 active torsions:
REMARK  status: ('A' for Active; 'I' for Inactive)
REMARK    1  A    between atoms: C_2  and  N_3 
REMARK    2  A    between atoms: C_2  and  C_17 
REMARK       I    between atoms: N_3  and  C_4 
REMARK    3  A    between atoms: C_4  and  C_5 
REMARK    4  A    between atoms: C_6  and  O_7 
REMARK    5  A    between atoms: O_7  and  C_8 
REMARK    6  A    between atoms: C_8  and  C_9 
ROOT
HETATM    1  N   UNL     1      42.065 -14.724   1.002  1.00  0.00    -0.346 N 
HETATM    2  C   UNL     1      43.119 -14.834   1.870  1.00  0.00     0.256 C 
HETATM    3  O   UNL     1      44.258 -14.974   1.435  1.00  0.00    -0.267 OA
HETATM    4  H   UNL     1      42.368 -14.728   0.037  1.00  0.00     0.163 HD
ENDROOT
BRANCH   1   5
HETATM    5  C   UNL     1      40.658 -14.473   1.287  1.00  0.00     0.150 C 
HETATM    6  C   UNL     1      39.873 -15.780   1.307  1.00  0.00     0.040 C 
BRANCH   5   7
HETATM    7  C   UNL     1      40.151 -13.506   0.257  1.00  0.00     0.127 A 
HETATM    8  N   UNL     1      40.840 -12.535  -0.313  1.00  0.00    -0.231 NA
HETATM    9  C   UNL     1      39.988 -11.954  -1.222  1.00  0.00     0.085 A 
HETATM   10  C   UNL     1      38.747 -12.577  -1.206  1.00  0.00     0.062 A 
HETATM   11  C   UNL     1      40.205 -10.888  -2.106  1.00  0.00     0.034 A 
HETATM   12  N   UNL     1      38.876 -13.561  -0.260  1.00  0.00    -0.341 N 
HETATM   13  C   UNL     1      37.684 -12.198  -2.028  1.00  0.00     0.032 A 
HETATM   14  H   UNL     1      38.159 -14.222  -0.002  1.00  0.00     0.167 HD
HETATM   15  C   UNL     1      37.918 -11.133  -2.903  1.00  0.00     0.002 A 
HETATM   16  C   UNL     1      39.156 -10.486  -2.946  1.00  0.00     0.002 A 
ENDBRANCH   5   7
ENDBRANCH   1   5
BRANCH   2  17
HETATM   17  C   UNL     1      42.895 -14.791   3.321  1.00  0.00     0.084 A 
HETATM   18  C   UNL     1      42.678 -15.964   4.033  1.00  0.00     0.180 A 
HETATM   19  N   UNL     1      42.479 -15.995   5.374  1.00  0.00    -0.236 NA
HETATM   20  C   UNL     1      42.545 -14.811   6.026  1.00  0.00     0.119 A 
HETATM   21  C   UNL     1      42.789 -13.597   5.402  1.00  0.00     0.020 A 
HETATM   22  C   UNL     1      42.974 -13.587   4.022  1.00  0.00     0.023 A 
BRANCH  18  23
HETATM   23  O   UNL     1      42.558 -17.149   3.338  1.00  0.00    -0.328 OA
BRANCH  23  24
HETATM   24  C   UNL     1      43.655 -18.048   3.549  1.00  0.00     0.248 C 
BRANCH  24  25
HETATM   25  C   UNL     1      43.599 -19.252   2.624  1.00  0.00     0.377 C 
HETATM   26  F   UNL     1      43.592 -20.395   3.365  1.00  0.00    -0.212 F 
HETATM   27  F   UNL     1      42.425 -19.244   1.938  1.00  0.00    -0.212 F 
ENDBRANCH  24  25
ENDBRANCH  23  24
ENDBRANCH  18  23
ENDBRANCH   2  17
TORSDOF 6
ENDMDL
MODEL 10
REMARK VINA RESULT:      -6.6      2.924      7.615
REMARK  6 active torsions:
REMARK  status: ('A' for Active; 'I' for Inactive)
REMARK    1  A    between atoms: C_2  and  N_3 
REMARK    2  A    between atoms: C_2  and  C_17 
REMARK       I    between atoms: N_3  and  C_4 
REMARK    3  A    between atoms: C_4  and  C_5 
REMARK    4  A    between atoms: C_6  and  O_7 
REMARK    5  A    between atoms: O_7  and  C_8 
REMARK    6  A    between atoms: C_8  and  C_9 
ROOT
HETATM    1  N   UNL     1      43.700 -13.142   6.968  1.00  0.00    -0.346 N 
HETATM    2  C   UNL     1      42.685 -13.983   6.597  1.00  0.00     0.256 C 
HETATM    3  O   UNL     1      42.652 -15.131   7.028  1.00  0.00    -0.267 OA
HETATM    4  H   UNL     1      44.327 -13.577   7.632  1.00  0.00     0.163 HD
ENDROOT
BRANCH   1   5
HETATM    5  C   UNL     1      43.893 -11.733   6.649  1.00  0.00     0.150 C 
HETATM    6  C   UNL     1      45.264 -11.508   6.022  1.00  0.00     0.040 C 
BRANCH   5   7
HETATM    7  C   UNL     1      43.698 -10.951   7.915  1.00  0.00     0.127 A 
HETATM    8  N   UNL     1      44.483 -10.968   8.977  1.00  0.00    -0.231 NA
HETATM    9  C   UNL     1      43.943 -10.062   9.858  1.00  0.00     0.085 A 
HETATM   10  C   UNL     1      42.798  -9.480   9.331  1.00  0.00     0.062 A 
HETATM   11  C   UNL     1      44.379  -9.676  11.133  1.00  0.00     0.034 A 
HETATM   12  N   UNL     1      42.664 -10.059   8.096  1.00  0.00    -0.341 N 
HETATM   13  C   UNL     1      42.040  -8.521  10.005  1.00  0.00     0.032 A 
HETATM   14  H   UNL     1      41.937  -9.852   7.427  1.00  0.00     0.167 HD
HETATM   15  C   UNL     1      42.490  -8.149  11.276  1.00  0.00     0.002 A 
HETATM   16  C   UNL     1      43.640  -8.713  11.834  1.00  0.00     0.002 A 
ENDBRANCH   5   7
ENDBRANCH   1   5
BRANCH   2  17
HETATM   17  C   UNL     1      41.634 -13.521   5.681  1.00  0.00     0.084 A 
HETATM   18  C   UNL     1      41.847 -13.529   4.308  1.00  0.00     0.180 A 
HETATM   19  N   UNL     1      40.914 -13.129   3.407  1.00  0.00    -0.236 NA
HETATM   20  C   UNL     1      39.713 -12.751   3.903  1.00  0.00     0.119 A 
HETATM   21  C   UNL     1      39.401 -12.743   5.255  1.00  0.00     0.020 A 
HETATM   22  C   UNL     1      40.379 -13.143   6.161  1.00  0.00     0.023 A 
BRANCH  18  23
HETATM   23  O   UNL     1      43.097 -13.862   3.832  1.00  0.00    -0.328 OA
BRANCH  23  24
HETATM   24  C   UNL     1      43.064 -14.796   2.745  1.00  0.00     0.248 C 
BRANCH  24  25
HETATM   25  C   UNL     1      43.097 -16.238   3.222  1.00  0.00     0.377 C 
HETATM   26  F   UNL     1      43.621 -17.029   2.245  1.00  0.00    -0.212 F 
HETATM   27  F   UNL     1      43.940 -16.346   4.284  1.00  0.00    -0.212 F 
ENDBRANCH  24  25
ENDBRANCH  23  24
ENDBRANCH  18  23
ENDBRANCH   2  17
TORSDOF 6
ENDMDL
