MODEL 1
REMARK VINA RESULT:      -8.9      0.000      0.000
REMARK  4 active torsions:
REMARK  status: ('A' for Active; 'I' for Inactive)
REMARK    1  A    between atoms: C_9  and  N_10 
REMARK       I    between atoms: N_10  and  C_11 
REMARK    2  A    between atoms: C_11  and  C_12 
REMARK    3  A    between atoms: C_14  and  C_15 
REMARK    4  A    between atoms: C_22  and  C_23 
ROOT
HETATM    1  N   UNL     1      43.805 -12.821   5.458  1.00  0.00    -0.322 N 
HETATM    2  C   UNL     1      42.740 -13.702   5.539  1.00  0.00     0.277 C 
HETATM    3  O   UNL     1      41.801 -13.616   6.323  1.00  0.00    -0.266 OA
HETATM    4  H   UNL     1      44.470 -13.048   4.720  1.00  0.00     0.169 HD
ENDROOT
BRANCH   2   5
HETATM    5  C   UNL     1      42.867 -14.788   4.570  1.00  0.00     0.157 A 
HETATM    6  N   UNL     1      43.217 -16.083   4.951  1.00  0.00    -0.216 NA
HETATM    7  C   UNL     1      43.188 -16.767   3.820  1.00  0.00     0.180 A 
HETATM    8  O   UNL     1      42.855 -16.018   2.727  1.00  0.00    -0.293 OA
HETATM    9  C   UNL     1      42.651 -14.754   3.206  1.00  0.00     0.094 A 
BRANCH   7  10
HETATM   10  C   UNL     1      43.440 -18.187   3.583  1.00  0.00     0.017 A 
HETATM   11  C   UNL     1      43.911 -18.998   4.627  1.00  0.00     0.016 A 
HETATM   12  C   UNL     1      44.149 -20.360   4.424  1.00  0.00     0.001 A 
HETATM   13  C   UNL     1      43.920 -20.929   3.173  1.00  0.00     0.000 A 
HETATM   14  C   UNL     1      43.453 -20.139   2.126  1.00  0.00     0.001 A 
HETATM   15  C   UNL     1      43.216 -18.777   2.329  1.00  0.00     0.016 A 
ENDBRANCH   7  10
BRANCH   9  16
HETATM   16  C   UNL     1      42.248 -13.576   2.339  1.00  0.00     0.046 A 
HETATM   17  C   UNL     1      41.507 -13.868   1.050  1.00  0.00     0.012 A 
HETATM   18  C   UNL     1      40.767 -13.279   2.201  1.00  0.00     0.012 A 
ENDBRANCH   9  16
ENDBRANCH   2   5
BRANCH   1  19
HETATM   19  C   UNL     1      44.079 -11.720   6.288  1.00  0.00     0.035 A 
HETATM   20  C   UNL     1      43.125 -10.754   6.623  1.00  0.00     0.039 A 
HETATM   21  C   UNL     1      43.480  -9.732   7.491  1.00  0.00    -0.022 A 
HETATM   22  C   UNL     1      42.608  -8.646   8.020  1.00  0.00     0.274 C 
HETATM   23  C   UNL     1      44.765  -9.647   8.028  1.00  0.00    -0.025 A 
HETATM   24  N   UNL     1      43.552  -7.732   8.795  1.00  0.00    -0.067 N 
HETATM   25  C   UNL     1      42.977  -7.196  10.057  1.00  0.00     0.270 C 
HETATM   26  H   UNL     1      43.761  -6.947   8.167  1.00  0.00     0.280 HD
HETATM   27  C   UNL     1      44.860  -8.497   8.970  1.00  0.00     0.273 C 
HETATM   28  C   UNL     1      45.729 -10.584   7.699  1.00  0.00     0.012 A 
HETATM   29  C   UNL     1      45.378 -11.621   6.825  1.00  0.00     0.030 A 
ENDBRANCH   1  19
TORSDOF 4
ENDMDL
MODEL 2
REMARK VINA RESULT:      -8.7      4.694      8.796
REMARK  4 active torsions:
REMARK  status: ('A' for Active; 'I' for Inactive)
REMARK    1  A    between atoms: C_9  and  N_10 
REMARK       I    between atoms: N_10  and  C_11 
REMARK    2  A    between atoms: C_11  and  C_12 
REMARK    3  A    between atoms: C_14  and  C_15 
REMARK    4  A    between atoms: C_22  and  C_23 
ROOT
HETATM    1  N   UNL     1      42.018 -13.951   1.049  1.00  0.00    -0.322 N 
HETATM    2  C   UNL     1      40.701 -13.561   0.877  1.00  0.00     0.277 C 
HETATM    3  O   UNL     1      39.749 -13.949   1.545  1.00  0.00    -0.266 OA
HETATM    4  H   UNL     1      42.668 -13.495   0.411  1.00  0.00     0.169 HD
ENDROOT
BRANCH   2   5
HETATM    5  C   UNL     1      40.560 -12.621  -0.233  1.00  0.00     0.157 A 
HETATM    6  N   UNL     1      41.343 -11.471  -0.333  1.00  0.00    -0.216 NA
HETATM    7  C   UNL     1      40.952 -10.918  -1.468  1.00  0.00     0.180 A 
HETATM    8  O   UNL     1      39.968 -11.612  -2.115  1.00  0.00    -0.293 OA
HETATM    9  C   UNL     1      39.717 -12.698  -1.325  1.00  0.00     0.094 A 
BRANCH   7  10
HETATM   10  C   UNL     1      41.428  -9.702  -2.124  1.00  0.00     0.017 A 
HETATM   11  C   UNL     1      42.361  -8.876  -1.477  1.00  0.00     0.016 A 
HETATM   12  C   UNL     1      42.836  -7.714  -2.090  1.00  0.00     0.001 A 
HETATM   13  C   UNL     1      42.384  -7.362  -3.361  1.00  0.00     0.000 A 
HETATM   14  C   UNL     1      41.459  -8.169  -4.017  1.00  0.00     0.001 A 
HETATM   15  C   UNL     1      40.984  -9.330  -3.403  1.00  0.00     0.016 A 
ENDBRANCH   7  10
BRANCH   9  16
HETATM   16  C   UNL     1      38.693 -13.767  -1.657  1.00  0.00     0.046 A 
HETATM   17  C   UNL     1      38.079 -13.751  -3.042  1.00  0.00     0.012 A 
HETATM   18  C   UNL     1      39.071 -14.806  -2.694  1.00  0.00     0.012 A 
ENDBRANCH   9  16
ENDBRANCH   2   5
BRANCH   1  19
HETATM   19  C   UNL     1      42.524 -14.913   1.942  1.00  0.00     0.035 A 
HETATM   20  C   UNL     1      42.710 -14.670   3.307  1.00  0.00     0.039 A 
HETATM   21  C   UNL     1      43.167 -15.700   4.116  1.00  0.00    -0.022 A 
HETATM   22  C   UNL     1      43.374 -15.673   5.590  1.00  0.00     0.274 C 
HETATM   23  C   UNL     1      43.449 -16.963   3.595  1.00  0.00    -0.025 A 
HETATM   24  N   UNL     1      44.028 -17.012   5.917  1.00  0.00    -0.067 N 
HETATM   25  C   UNL     1      43.549 -17.628   7.182  1.00  0.00     0.270 C 
HETATM   26  H   UNL     1      45.033 -16.821   6.001  1.00  0.00     0.280 HD
HETATM   27  C   UNL     1      43.865 -17.893   4.683  1.00  0.00     0.273 C 
HETATM   28  C   UNL     1      43.286 -17.221   2.246  1.00  0.00     0.012 A 
HETATM   29  C   UNL     1      42.823 -16.187   1.421  1.00  0.00     0.030 A 
ENDBRANCH   1  19
TORSDOF 4
ENDMDL
MODEL 3
REMARK VINA RESULT:      -8.5      3.803      7.405
REMARK  4 active torsions:
REMARK  status: ('A' for Active; 'I' for Inactive)
REMARK    1  A    between atoms: C_9  and  N_10 
REMARK       I    between atoms: N_10  and  C_11 
REMARK    2  A    between atoms: C_11  and  C_12 
REMARK    3  A    between atoms: C_14  and  C_15 
REMARK    4  A    between atoms: C_22  and  C_23 
ROOT
HETATM    1  N   UNL     1      40.976 -13.993   0.661  1.00  0.00    -0.322 N 
HETATM    2  C   UNL     1      40.660 -14.197   1.993  1.00  0.00     0.277 C 
HETATM    3  O   UNL     1      39.717 -13.688   2.589  1.00  0.00    -0.266 OA
HETATM    4  H   UNL     1      41.782 -14.529   0.343  1.00  0.00     0.169 HD
ENDROOT
BRANCH   2   5
HETATM    5  C   UNL     1      41.612 -15.099   2.639  1.00  0.00     0.157 A 
HETATM    6  N   UNL     1      41.637 -16.467   2.368  1.00  0.00    -0.216 NA
HETATM    7  C   UNL     1      42.640 -16.918   3.100  1.00  0.00     0.180 A 
HETATM    8  O   UNL     1      43.269 -15.954   3.837  1.00  0.00    -0.293 OA
HETATM    9  C   UNL     1      42.611 -14.792   3.543  1.00  0.00     0.094 A 
BRANCH   7  10
HETATM   10  C   UNL     1      43.172 -18.275   3.217  1.00  0.00     0.017 A 
HETATM   11  C   UNL     1      43.756 -18.696   4.422  1.00  0.00     0.016 A 
HETATM   12  C   UNL     1      44.261 -19.991   4.558  1.00  0.00     0.001 A 
HETATM   13  C   UNL     1      44.190 -20.884   3.491  1.00  0.00     0.000 A 
HETATM   14  C   UNL     1      43.614 -20.482   2.288  1.00  0.00     0.001 A 
HETATM   15  C   UNL     1      43.110 -19.187   2.152  1.00  0.00     0.016 A 
ENDBRANCH   7  10
BRANCH   9  16
HETATM   16  C   UNL     1      42.976 -13.442   4.130  1.00  0.00     0.046 A 
HETATM   17  C   UNL     1      42.005 -12.810   5.107  1.00  0.00     0.012 A 
HETATM   18  C   UNL     1      43.286 -13.380   5.612  1.00  0.00     0.012 A 
ENDBRANCH   9  16
ENDBRANCH   2   5
BRANCH   1  19
HETATM   19  C   UNL     1      40.356 -13.119  -0.249  1.00  0.00     0.035 A 
HETATM   20  C   UNL     1      39.161 -13.420  -0.911  1.00  0.00     0.039 A 
HETATM   21  C   UNL     1      38.601 -12.471  -1.753  1.00  0.00    -0.022 A 
HETATM   22  C   UNL     1      37.316 -12.564  -2.499  1.00  0.00     0.274 C 
HETATM   23  C   UNL     1      39.207 -11.230  -1.953  1.00  0.00    -0.025 A 
HETATM   24  N   UNL     1      37.281 -11.313  -3.371  1.00  0.00    -0.067 N 
HETATM   25  C   UNL     1      35.937 -10.687  -3.480  1.00  0.00     0.270 C 
HETATM   26  H   UNL     1      37.583 -11.613  -4.305  1.00  0.00     0.280 HD
HETATM   27  C   UNL     1      38.372 -10.382  -2.851  1.00  0.00     0.273 C 
HETATM   28  C   UNL     1      40.396 -10.916  -1.320  1.00  0.00     0.012 A 
HETATM   29  C   UNL     1      40.968 -11.869  -0.467  1.00  0.00     0.030 A 
ENDBRANCH   1  19
TORSDOF 4
ENDMDL
MODEL 4
REMARK VINA RESULT:      -8.4      1.843      2.248
REMARK  4 active torsions:
REMARK  status: ('A' for Active; 'I' for Inactive)
REMARK    1  A    between atoms: C_9  and  N_10 
REMARK       I    between atoms: N_10  and  C_11 
REMARK    2  A    between atoms: C_11  and  C_12 
REMARK    3  A    between atoms: C_14  and  C_15 
REMARK    4  A    between atoms: C_22  and  C_23 
ROOT
HETATM    1  N   UNL     1      42.254 -13.117   4.879  1.00  0.00    -0.322 N 
HETATM    2  C   UNL     1      42.782 -13.221   3.603  1.00  0.00     0.277 C 
HETATM    3  O   UNL     1      43.248 -12.296   2.947  1.00  0.00    -0.266 OA
HETATM    4  H   UNL     1      41.943 -14.006   5.268  1.00  0.00     0.169 HD
ENDROOT
BRANCH   2   5
HETATM    5  C   UNL     1      42.708 -14.591   3.102  1.00  0.00     0.157 A 
HETATM    6  N   UNL     1      43.343 -15.652   3.747  1.00  0.00    -0.216 NA
HETATM    7  C   UNL     1      43.012 -16.708   3.025  1.00  0.00     0.180 A 
HETATM    8  O   UNL     1      42.216 -16.421   1.952  1.00  0.00    -0.293 OA
HETATM    9  C   UNL     1      42.023 -15.068   2.001  1.00  0.00     0.094 A 
BRANCH   7  10
HETATM   10  C   UNL     1      43.357 -18.115   3.219  1.00  0.00     0.017 A 
HETATM   11  C   UNL     1      43.934 -18.533   4.428  1.00  0.00     0.016 A 
HETATM   12  C   UNL     1      44.262 -19.875   4.638  1.00  0.00     0.001 A 
HETATM   13  C   UNL     1      44.017 -20.817   3.641  1.00  0.00     0.000 A 
HETATM   14  C   UNL     1      43.445 -20.420   2.435  1.00  0.00     0.001 A 
HETATM   15  C   UNL     1      43.119 -19.078   2.226  1.00  0.00     0.016 A 
ENDBRANCH   7  10
BRANCH   9  16
HETATM   16  C   UNL     1      41.183 -14.297   1.000  1.00  0.00     0.046 A 
HETATM   17  C   UNL     1      40.019 -15.018   0.350  1.00  0.00     0.012 A 
HETATM   18  C   UNL     1      39.751 -13.977   1.382  1.00  0.00     0.012 A 
ENDBRANCH   9  16
ENDBRANCH   2   5
BRANCH   1  19
HETATM   19  C   UNL     1      42.062 -11.951   5.642  1.00  0.00     0.035 A 
HETATM   20  C   UNL     1      40.822 -11.318   5.778  1.00  0.00     0.039 A 
HETATM   21  C   UNL     1      40.724 -10.201   6.593  1.00  0.00    -0.022 A 
HETATM   22  C   UNL     1      39.499  -9.421   6.921  1.00  0.00     0.274 C 
HETATM   23  C   UNL     1      41.834  -9.697   7.272  1.00  0.00    -0.025 A 
HETATM   24  N   UNL     1      40.002  -8.225   7.725  1.00  0.00    -0.067 N 
HETATM   25  C   UNL     1      39.120  -7.843   8.859  1.00  0.00     0.270 C 
HETATM   26  H   UNL     1      40.048  -7.442   7.064  1.00  0.00     0.280 HD
HETATM   27  C   UNL     1      41.442  -8.535   8.120  1.00  0.00     0.273 C 
HETATM   28  C   UNL     1      43.073 -10.298   7.141  1.00  0.00     0.012 A 
HETATM   29  C   UNL     1      43.181 -11.429   6.320  1.00  0.00     0.030 A 
ENDBRANCH   1  19
TORSDOF 4
ENDMDL
MODEL 5
REMARK VINA RESULT:      -8.3      2.108      8.869
REMARK  4 active torsions:
REMARK  status: ('A' for Active; 'I' for Inactive)
REMARK    1  A    between atoms: C_9  and  N_10 
REMARK       I    between atoms: N_10  and  C_11 
REMARK    2  A    between atoms: C_11  and  C_12 
REMARK    3  A    between atoms: C_14  and  C_15 
REMARK    4  A    between atoms: C_22  and  C_23 
ROOT
HETATM    1  N   UNL     1      42.709 -13.845   4.741  1.00  0.00    -0.322 N 
HETATM    2  C   UNL     1      43.209 -12.625   4.318  1.00  0.00     0.277 C 
HETATM    3  O   UNL     1      43.761 -12.415   3.243  1.00  0.00    -0.266 OA
HETATM    4  H   UNL     1      42.259 -13.809   5.654  1.00  0.00     0.169 HD
ENDROOT
BRANCH   2   5
HETATM    5  C   UNL     1      43.018 -11.587   5.328  1.00  0.00     0.157 A 
HETATM    6  N   UNL     1      43.591 -11.673   6.596  1.00  0.00    -0.216 NA
HETATM    7  C   UNL     1      43.226 -10.549   7.188  1.00  0.00     0.180 A 
HETATM    8  O   UNL     1      42.451  -9.736   6.408  1.00  0.00    -0.293 OA
HETATM    9  C   UNL     1      42.317 -10.401   5.221  1.00  0.00     0.094 A 
BRANCH   7  10
HETATM   10  C   UNL     1      43.543 -10.054   8.526  1.00  0.00     0.017 A 
HETATM   11  C   UNL     1      44.825 -10.253   9.060  1.00  0.00     0.016 A 
HETATM   12  C   UNL     1      45.152  -9.780  10.333  1.00  0.00     0.001 A 
HETATM   13  C   UNL     1      44.200  -9.100  11.090  1.00  0.00     0.000 A 
HETATM   14  C   UNL     1      42.923  -8.893  10.575  1.00  0.00     0.001 A 
HETATM   15  C   UNL     1      42.596  -9.367   9.303  1.00  0.00     0.016 A 
ENDBRANCH   7  10
BRANCH   9  16
HETATM   16  C   UNL     1      41.536  -9.865   4.035  1.00  0.00     0.046 A 
HETATM   17  C   UNL     1      40.378 -10.694   3.518  1.00  0.00     0.012 A 
HETATM   18  C   UNL     1      40.101  -9.439   4.272  1.00  0.00     0.012 A 
ENDBRANCH   9  16
ENDBRANCH   2   5
BRANCH   1  19
HETATM   19  C   UNL     1      42.799 -15.088   4.089  1.00  0.00     0.035 A 
HETATM   20  C   UNL     1      43.600 -16.138   4.547  1.00  0.00     0.039 A 
HETATM   21  C   UNL     1      43.583 -17.345   3.863  1.00  0.00    -0.022 A 
HETATM   22  C   UNL     1      44.306 -18.598   4.213  1.00  0.00     0.274 C 
HETATM   23  C   UNL     1      42.789 -17.526   2.730  1.00  0.00    -0.025 A 
HETATM   24  N   UNL     1      44.045 -19.539   3.041  1.00  0.00    -0.067 N 
HETATM   25  C   UNL     1      43.821 -20.954   3.439  1.00  0.00     0.270 C 
HETATM   26  H   UNL     1      44.882 -19.490   2.450  1.00  0.00     0.280 HD
HETATM   27  C   UNL     1      42.911 -18.923   2.227  1.00  0.00     0.273 C 
HETATM   28  C   UNL     1      41.999 -16.496   2.251  1.00  0.00     0.012 A 
HETATM   29  C   UNL     1      42.010 -15.274   2.937  1.00  0.00     0.030 A 
ENDBRANCH   1  19
TORSDOF 4
ENDMDL
MODEL 6
REMARK VINA RESULT:      -8.3      4.107      7.334
REMARK  4 active torsions:
REMARK  status: ('A' for Active; 'I' for Inactive)
REMARK    1  A    between atoms: C_9  and  N_10 
REMARK       I    between atoms: N_10  and  C_11 
REMARK    2  A    between atoms: C_11  and  C_12 
REMARK    3  A    between atoms: C_14  and  C_15 
REMARK    4  A    between atoms: C_22  and  C_23 
ROOT
HETATM    1  N   UNL     1      41.297 -13.193   0.179  1.00  0.00    -0.322 N 
HETATM    2  C   UNL     1      40.624 -13.562   1.331  1.00  0.00     0.277 C 
HETATM    3  O   UNL     1      39.485 -13.222   1.631  1.00  0.00    -0.266 OA
HETATM    4  H   UNL     1      42.226 -13.603   0.098  1.00  0.00     0.169 HD
ENDROOT
BRANCH   2   5
HETATM    5  C   UNL     1      41.449 -14.414   2.185  1.00  0.00     0.157 A 
HETATM    6  N   UNL     1      41.602 -15.779   1.944  1.00  0.00    -0.216 NA
HETATM    7  C   UNL     1      42.435 -16.178   2.889  1.00  0.00     0.180 A 
HETATM    8  O   UNL     1      42.832 -15.183   3.737  1.00  0.00    -0.293 OA
HETATM    9  C   UNL     1      42.200 -14.056   3.288  1.00  0.00     0.094 A 
BRANCH   7  10
HETATM   10  C   UNL     1      42.993 -17.505   3.140  1.00  0.00     0.017 A 
HETATM   11  C   UNL     1      42.908 -18.498   2.152  1.00  0.00     0.016 A 
HETATM   12  C   UNL     1      43.444 -19.771   2.367  1.00  0.00     0.001 A 
HETATM   13  C   UNL     1      44.072 -20.067   3.575  1.00  0.00     0.000 A 
HETATM   14  C   UNL     1      44.165 -19.094   4.567  1.00  0.00     0.001 A 
HETATM   15  C   UNL     1      43.628 -17.823   4.351  1.00  0.00     0.016 A 
ENDBRANCH   7  10
BRANCH   9  16
HETATM   16  C   UNL     1      42.356 -12.688   3.926  1.00  0.00     0.046 A 
HETATM   17  C   UNL     1      43.532 -12.472   4.856  1.00  0.00     0.012 A 
HETATM   18  C   UNL     1      43.544 -11.846   3.504  1.00  0.00     0.012 A 
ENDBRANCH   9  16
ENDBRANCH   2   5
BRANCH   1  19
HETATM   19  C   UNL     1      40.869 -12.306  -0.824  1.00  0.00     0.035 A 
HETATM   20  C   UNL     1      41.126 -10.932  -0.795  1.00  0.00     0.039 A 
HETATM   21  C   UNL     1      40.706 -10.146  -1.858  1.00  0.00    -0.022 A 
HETATM   22  C   UNL     1      40.928  -8.687  -2.053  1.00  0.00     0.274 C 
HETATM   23  C   UNL     1      40.030 -10.698  -2.947  1.00  0.00    -0.025 A 
HETATM   24  N   UNL     1      40.124  -8.334  -3.300  1.00  0.00    -0.067 N 
HETATM   25  C   UNL     1      40.795  -7.356  -4.197  1.00  0.00     0.270 C 
HETATM   26  H   UNL     1      39.246  -7.923  -2.962  1.00  0.00     0.280 HD
HETATM   27  C   UNL     1      39.748  -9.652  -3.969  1.00  0.00     0.273 C 
HETATM   28  C   UNL     1      39.753 -12.053  -2.991  1.00  0.00     0.012 A 
HETATM   29  C   UNL     1      40.176 -12.854  -1.921  1.00  0.00     0.030 A 
ENDBRANCH   1  19
TORSDOF 4
ENDMDL
MODEL 7
REMARK VINA RESULT:      -8.1      4.191      7.646
REMARK  4 active torsions:
REMARK  status: ('A' for Active; 'I' for Inactive)
REMARK    1  A    between atoms: C_9  and  N_10 
REMARK       I    between atoms: N_10  and  C_11 
REMARK    2  A    between atoms: C_11  and  C_12 
REMARK    3  A    between atoms: C_14  and  C_15 
REMARK    4  A    between atoms: C_22  and  C_23 
ROOT
HETATM    1  N   UNL     1      39.904 -13.686   0.816  1.00  0.00    -0.322 N 
HETATM    2  C   UNL     1      41.194 -13.296   1.136  1.00  0.00     0.277 C 
HETATM    3  O   UNL     1      41.763 -12.297   0.710  1.00  0.00    -0.266 OA
HETATM    4  H   UNL     1      39.601 -14.532   1.295  1.00  0.00     0.169 HD
ENDROOT
BRANCH   2   5
HETATM    5  C   UNL     1      41.829 -14.241   2.051  1.00  0.00     0.157 A 
HETATM    6  N   UNL     1      41.998 -15.587   1.727  1.00  0.00    -0.216 NA
HETATM    7  C   UNL     1      42.632 -16.090   2.772  1.00  0.00     0.180 A 
HETATM    8  O   UNL     1      42.885 -15.180   3.760  1.00  0.00    -0.293 OA
HETATM    9  C   UNL     1      42.370 -13.999   3.299  1.00  0.00     0.094 A 
BRANCH   7  10
HETATM   10  C   UNL     1      43.108 -17.451   3.007  1.00  0.00     0.017 A 
HETATM   11  C   UNL     1      43.820 -17.752   4.178  1.00  0.00     0.016 A 
HETATM   12  C   UNL     1      44.275 -19.049   4.427  1.00  0.00     0.001 A 
HETATM   13  C   UNL     1      44.024 -20.064   3.506  1.00  0.00     0.000 A 
HETATM   14  C   UNL     1      43.320 -19.784   2.339  1.00  0.00     0.001 A 
HETATM   15  C   UNL     1      42.866 -18.487   2.090  1.00  0.00     0.016 A 
ENDBRANCH   7  10
BRANCH   9  16
HETATM   16  C   UNL     1      42.431 -12.693   4.069  1.00  0.00     0.046 A 
HETATM   17  C   UNL     1      43.476 -12.563   5.158  1.00  0.00     0.012 A 
HETATM   18  C   UNL     1      43.656 -11.821   3.878  1.00  0.00     0.012 A 
ENDBRANCH   9  16
ENDBRANCH   2   5
BRANCH   1  19
HETATM   19  C   UNL     1      39.026 -13.089  -0.105  1.00  0.00     0.035 A 
HETATM   20  C   UNL     1      38.339 -11.898   0.150  1.00  0.00     0.039 A 
HETATM   21  C   UNL     1      37.532 -11.361  -0.843  1.00  0.00    -0.022 A 
HETATM   22  C   UNL     1      36.769 -10.083  -0.800  1.00  0.00     0.274 C 
HETATM   23  C   UNL     1      37.391 -11.986  -2.082  1.00  0.00    -0.025 A 
HETATM   24  N   UNL     1      35.950 -10.076  -2.087  1.00  0.00    -0.067 N 
HETATM   25  C   UNL     1      35.853  -8.742  -2.737  1.00  0.00     0.270 C 
HETATM   26  H   UNL     1      35.007 -10.384  -1.822  1.00  0.00     0.280 HD
HETATM   27  C   UNL     1      36.522 -11.174  -2.979  1.00  0.00     0.273 C 
HETATM   28  C   UNL     1      38.050 -13.173  -2.351  1.00  0.00     0.012 A 
HETATM   29  C   UNL     1      38.869 -13.721  -1.354  1.00  0.00     0.030 A 
ENDBRANCH   1  19
TORSDOF 4
ENDMDL
MODEL 8
REMARK VINA RESULT:      -8.0      2.421      9.436
REMARK  4 active torsions:
REMARK  status: ('A' for Active; 'I' for Inactive)
REMARK    1  A    between atoms: C_9  and  N_10 
REMARK       I    between atoms: N_10  and  C_11 
REMARK    2  A    between atoms: C_11  and  C_12 
REMARK    3  A    between atoms: C_14  and  C_15 
REMARK    4  A    between atoms: C_22  and  C_23 
ROOT
HETATM    1  N   UNL     1      42.917 -12.950   7.201  1.00  0.00    -0.322 N 
HETATM    2  C   UNL     1      43.895 -11.975   7.298  1.00  0.00     0.277 C 
HETATM    3  O   UNL     1      45.060 -12.095   6.933  1.00  0.00    -0.266 OA
HETATM    4  H   UNL     1      42.003 -12.648   7.534  1.00  0.00     0.169 HD
ENDROOT
BRANCH   2   5
HETATM    5  C   UNL     1      43.379 -10.756   7.915  1.00  0.00     0.157 A 
HETATM    6  N   UNL     1      43.586 -10.463   9.263  1.00  0.00    -0.216 NA
HETATM    7  C   UNL     1      43.013  -9.283   9.424  1.00  0.00     0.180 A 
HETATM    8  O   UNL     1      42.438  -8.784   8.289  1.00  0.00    -0.293 OA
HETATM    9  C   UNL     1      42.671  -9.726   7.326  1.00  0.00     0.094 A 
BRANCH   7  10
HETATM   10  C   UNL     1      42.924  -8.445  10.619  1.00  0.00     0.017 A 
HETATM   11  C   UNL     1      43.409  -8.923  11.846  1.00  0.00     0.016 A 
HETATM   12  C   UNL     1      43.343  -8.135  12.998  1.00  0.00     0.001 A 
HETATM   13  C   UNL     1      42.790  -6.857  12.938  1.00  0.00     0.000 A 
HETATM   14  C   UNL     1      42.304  -6.367  11.729  1.00  0.00     0.001 A 
HETATM   15  C   UNL     1      42.369  -7.156  10.578  1.00  0.00     0.016 A 
ENDBRANCH   7  10
BRANCH   9  16
HETATM   16  C   UNL     1      42.218  -9.591   5.884  1.00  0.00     0.046 A 
HETATM   17  C   UNL     1      41.088 -10.484   5.412  1.00  0.00     0.012 A 
HETATM   18  C   UNL     1      40.831  -9.033   5.633  1.00  0.00     0.012 A 
ENDBRANCH   9  16
ENDBRANCH   2   5
BRANCH   1  19
HETATM   19  C   UNL     1      43.062 -14.277   6.759  1.00  0.00     0.035 A 
HETATM   20  C   UNL     1      43.051 -14.642   5.410  1.00  0.00     0.039 A 
HETATM   21  C   UNL     1      43.252 -15.972   5.071  1.00  0.00    -0.022 A 
HETATM   22  C   UNL     1      43.337 -16.559   3.705  1.00  0.00     0.274 C 
HETATM   23  C   UNL     1      43.458 -16.947   6.047  1.00  0.00    -0.025 A 
HETATM   24  N   UNL     1      43.410 -18.066   3.933  1.00  0.00    -0.067 N 
HETATM   25  C   UNL     1      44.339 -18.774   3.013  1.00  0.00     0.270 C 
HETATM   26  H   UNL     1      42.459 -18.420   3.778  1.00  0.00     0.280 HD
HETATM   27  C   UNL     1      43.706 -18.273   5.415  1.00  0.00     0.273 C 
HETATM   28  C   UNL     1      43.460 -16.611   7.390  1.00  0.00     0.012 A 
HETATM   29  C   UNL     1      43.259 -15.269   7.740  1.00  0.00     0.030 A 
ENDBRANCH   1  19
TORSDOF 4
ENDMDL
MODEL 9
REMARK VINA RESULT:      -7.9      3.324      5.340
REMARK  4 active torsions:
REMARK  status: ('A' for Active; 'I' for Inactive)
REMARK    1  A    between atoms: C_9  and  N_10 
REMARK       I    between atoms: N_10  and  C_11 
REMARK    2  A    between atoms: C_11  and  C_12 
REMARK    3  A    between atoms: C_14  and  C_15 
REMARK    4  A    between atoms: C_22  and  C_23 
ROOT
HETATM    1  N   UNL     1      40.445 -13.288   3.551  1.00  0.00    -0.322 N 
HETATM    2  C   UNL     1      41.742 -13.572   3.158  1.00  0.00     0.277 C 
HETATM    3  O   UNL     1      42.436 -12.872   2.428  1.00  0.00    -0.266 OA
HETATM    4  H   UNL     1      40.048 -13.980   4.183  1.00  0.00     0.169 HD
ENDROOT
BRANCH   2   5
HETATM    5  C   UNL     1      42.204 -14.844   3.710  1.00  0.00     0.157 A 
HETATM    6  N   UNL     1      42.395 -15.972   2.913  1.00  0.00    -0.216 NA
HETATM    7  C   UNL     1      42.845 -16.885   3.756  1.00  0.00     0.180 A 
HETATM    8  O   UNL     1      42.956 -16.445   5.045  1.00  0.00    -0.293 OA
HETATM    9  C   UNL     1      42.545 -15.142   5.015  1.00  0.00     0.094 A 
BRANCH   7  10
HETATM   10  C   UNL     1      43.250 -18.267   3.504  1.00  0.00     0.017 A 
HETATM   11  C   UNL     1      43.823 -19.027   4.535  1.00  0.00     0.016 A 
HETATM   12  C   UNL     1      44.208 -20.353   4.319  1.00  0.00     0.001 A 
HETATM   13  C   UNL     1      44.025 -20.936   3.067  1.00  0.00     0.000 A 
HETATM   14  C   UNL     1      43.458 -20.197   2.032  1.00  0.00     0.001 A 
HETATM   15  C   UNL     1      43.075 -18.871   2.249  1.00  0.00     0.016 A 
ENDBRANCH   7  10
BRANCH   9  16
HETATM   16  C   UNL     1      42.509 -14.238   6.234  1.00  0.00     0.046 A 
HETATM   17  C   UNL     1      43.139 -14.752   7.512  1.00  0.00     0.012 A 
HETATM   18  C   UNL     1      43.827 -13.682   6.736  1.00  0.00     0.012 A 
ENDBRANCH   9  16
ENDBRANCH   2   5
BRANCH   1  19
HETATM   19  C   UNL     1      39.635 -12.214   3.142  1.00  0.00     0.035 A 
HETATM   20  C   UNL     1      39.343 -11.118   3.960  1.00  0.00     0.039 A 
HETATM   21  C   UNL     1      38.575 -10.083   3.448  1.00  0.00    -0.022 A 
HETATM   22  C   UNL     1      38.201  -8.810   4.123  1.00  0.00     0.274 C 
HETATM   23  C   UNL     1      38.087 -10.118   2.141  1.00  0.00    -0.025 A 
HETATM   24  N   UNL     1      37.234  -8.128   3.160  1.00  0.00    -0.067 N 
HETATM   25  C   UNL     1      37.407  -6.654   3.069  1.00  0.00     0.270 C 
HETATM   26  H   UNL     1      36.293  -8.329   3.519  1.00  0.00     0.280 HD
HETATM   27  C   UNL     1      37.347  -8.863   1.828  1.00  0.00     0.273 C 
HETATM   28  C   UNL     1      38.352 -11.199   1.319  1.00  0.00     0.012 A 
HETATM   29  C   UNL     1      39.129 -12.248   1.828  1.00  0.00     0.030 A 
ENDBRANCH   1  19
TORSDOF 4
ENDMDL
MODEL 10
REMARK VINA RESULT:      -7.8      2.571      5.124
REMARK  4 active torsions:
REMARK  status: ('A' for Active; 'I' for Inactive)
REMARK    1  A    between atoms: C_9  and  N_10 
REMARK       I    between atoms: N_10  and  C_11 
REMARK    2  A    between atoms: C_11  and  C_12 
REMARK    3  A    between atoms: C_14  and  C_15 
REMARK    4  A    between atoms: C_22  and  C_23 
ROOT
HETATM    1  N   UNL     1      42.243 -12.533   4.423  1.00  0.00    -0.322 N 
HETATM    2  C   UNL     1      42.779 -12.604   3.148  1.00  0.00     0.277 C 
HETATM    3  O   UNL     1      43.858 -12.135   2.802  1.00  0.00    -0.266 OA
HETATM    4  H   UNL     1      41.347 -13.010   4.518  1.00  0.00     0.169 HD
ENDROOT
BRANCH   2   5
HETATM    5  C   UNL     1      41.887 -13.306   2.228  1.00  0.00     0.157 A 
HETATM    6  N   UNL     1      41.111 -12.629   1.288  1.00  0.00    -0.216 NA
HETATM    7  C   UNL     1      40.487 -13.594   0.635  1.00  0.00     0.180 A 
HETATM    8  O   UNL     1      40.787 -14.851   1.081  1.00  0.00    -0.293 OA
HETATM    9  C   UNL     1      41.680 -14.666   2.100  1.00  0.00     0.094 A 
BRANCH   7  10
HETATM   10  C   UNL     1      39.553 -13.509  -0.485  1.00  0.00     0.017 A 
HETATM   11  C   UNL     1      38.713 -12.392  -0.612  1.00  0.00     0.016 A 
HETATM   12  C   UNL     1      37.819 -12.286  -1.681  1.00  0.00     0.001 A 
HETATM   13  C   UNL     1      37.754 -13.296  -2.639  1.00  0.00     0.000 A 
HETATM   14  C   UNL     1      38.580 -14.412  -2.528  1.00  0.00     0.001 A 
HETATM   15  C   UNL     1      39.472 -14.517  -1.458  1.00  0.00     0.016 A 
ENDBRANCH   7  10
BRANCH   9  16
HETATM   16  C   UNL     1      42.304 -15.798   2.894  1.00  0.00     0.046 A 
HETATM   17  C   UNL     1      42.090 -17.213   2.394  1.00  0.00     0.012 A 
HETATM   18  C   UNL     1      43.430 -16.577   2.242  1.00  0.00     0.012 A 
ENDBRANCH   9  16
ENDBRANCH   2   5
BRANCH   1  19
HETATM   19  C   UNL     1      42.759 -11.854   5.540  1.00  0.00     0.035 A 
HETATM   20  C   UNL     1      42.277 -10.616   5.977  1.00  0.00     0.039 A 
HETATM   21  C   UNL     1      42.819 -10.049   7.121  1.00  0.00    -0.022 A 
HETATM   22  C   UNL     1      42.413  -8.780   7.785  1.00  0.00     0.274 C 
HETATM   23  C   UNL     1      43.833 -10.685   7.837  1.00  0.00    -0.025 A 
HETATM   24  N   UNL     1      43.439  -8.576   8.896  1.00  0.00    -0.067 N 
HETATM   25  C   UNL     1      42.866  -8.041  10.159  1.00  0.00     0.270 C 
HETATM   26  H   UNL     1      44.119  -7.901   8.529  1.00  0.00     0.280 HD
HETATM   27  C   UNL     1      44.189  -9.895   9.049  1.00  0.00     0.273 C 
HETATM   28  C   UNL     1      44.335 -11.904   7.416  1.00  0.00     0.012 A 
HETATM   29  C   UNL     1      43.792 -12.485   6.262  1.00  0.00     0.030 A 
ENDBRANCH   1  19
TORSDOF 4
ENDMDL
