MODEL 1
REMARK VINA RESULT:      -9.5      0.000      0.000
REMARK  6 active torsions:
REMARK  status: ('A' for Active; 'I' for Inactive)
REMARK       I    between atoms: N_2  and  C_3 
REMARK    1  A    between atoms: N_2  and  C_15 
REMARK       I    between atoms: C_3  and  N_4 
REMARK    2  A    between atoms: N_4  and  C_5 
REMARK    3  A    between atoms: C_15  and  C_16 
REMARK    4  A    between atoms: C_16  and  C_17 
REMARK    5  A    between atoms: C_17  and  C_18 
REMARK    6  A    between atoms: C_22  and  C_23 
ROOT
HETATM    1  C   UNL     1      43.558 -12.674   5.585  1.00  0.00     0.127 C 
ENDROOT
BRANCH   1   2
HETATM    2  N   UNL     1      42.313 -13.438   5.724  1.00  0.00    -0.338 N 
HETATM    3  C   UNL     1      41.121 -12.655   6.030  1.00  0.00     0.154 C 
HETATM    4  C   UNL     1      42.092 -14.699   5.169  1.00  0.00     0.322 C 
HETATM    5  N   UNL     1      43.220 -15.461   4.995  1.00  0.00    -0.309 N 
HETATM    6  O   UNL     1      40.966 -15.029   4.808  1.00  0.00    -0.247 OA
HETATM    7  H   UNL     1      44.022 -15.196   5.544  1.00  0.00     0.170 HD
BRANCH   5   8
HETATM    8  C   UNL     1      43.347 -16.667   4.270  1.00  0.00     0.036 A 
HETATM    9  C   UNL     1      43.633 -17.904   4.857  1.00  0.00     0.039 A 
HETATM   10  C   UNL     1      43.717 -19.025   4.045  1.00  0.00    -0.024 A 
HETATM   11  C   UNL     1      43.500 -18.949   2.680  1.00  0.00    -0.026 A 
HETATM   12  C   UNL     1      44.008 -20.431   4.420  1.00  0.00     0.207 C 
HETATM   13  C   UNL     1      43.614 -20.306   2.091  1.00  0.00     0.207 C 
HETATM   14  C   UNL     1      43.201 -17.743   2.074  1.00  0.00     0.012 A 
HETATM   15  O   UNL     1      44.155 -21.122   3.155  1.00  0.00    -0.382 OA
HETATM   16  C   UNL     1      43.136 -16.599   2.877  1.00  0.00     0.030 A 
ENDBRANCH   5   8
ENDBRANCH   1   2
BRANCH   1  17
HETATM   17  C   UNL     1      44.363 -12.554   6.889  1.00  0.00     0.026 C 
BRANCH  17  18
HETATM   18  C   UNL     1      44.703 -11.111   7.279  1.00  0.00     0.060 C 
BRANCH  18  19
HETATM   19  C   UNL     1      43.826 -10.550   8.343  1.00  0.00     0.030 A 
HETATM   20  N   UNL     1      42.624  -9.940   8.106  1.00  0.00    -0.282 N 
HETATM   21  H   UNL     1      42.141  -9.801   7.221  1.00  0.00     0.189 HD
HETATM   22  N   UNL     1      42.038  -9.465   9.215  1.00  0.00    -0.174 NA
HETATM   23  C   UNL     1      42.890  -9.746  10.212  1.00  0.00     0.089 A 
HETATM   24  C   UNL     1      44.016 -10.450   9.704  1.00  0.00     0.060 A 
BRANCH  23  25
HETATM   25  C   UNL     1      42.623  -9.327  11.594  1.00  0.00    -0.003 A 
HETATM   26  C   UNL     1      43.415  -8.361  12.228  1.00  0.00     0.056 A 
HETATM   27  C   UNL     1      43.123  -7.966  13.531  1.00  0.00     0.117 A 
HETATM   28  F   UNL     1      43.889  -7.037  14.121  1.00  0.00    -0.206 F 
HETATM   29  C   UNL     1      42.056  -8.513  14.231  1.00  0.00     0.042 A 
HETATM   30  C   UNL     1      41.260  -9.475  13.618  1.00  0.00     0.004 A 
HETATM   31  C   UNL     1      41.544  -9.879  12.308  1.00  0.00     0.014 A 
ENDBRANCH  23  25
ENDBRANCH  18  19
ENDBRANCH  17  18
ENDBRANCH   1  17
TORSDOF 6
ENDMDL
MODEL 2
REMARK VINA RESULT:      -9.4      4.596     11.542
REMARK  6 active torsions:
REMARK  status: ('A' for Active; 'I' for Inactive)
REMARK       I    between atoms: N_2  and  C_3 
REMARK    1  A    between atoms: N_2  and  C_15 
REMARK       I    between atoms: C_3  and  N_4 
REMARK    2  A    between atoms: N_4  and  C_5 
REMARK    3  A    between atoms: C_15  and  C_16 
REMARK    4  A    between atoms: C_16  and  C_17 
REMARK    5  A    between atoms: C_17  and  C_18 
REMARK    6  A    between atoms: C_22  and  C_23 
ROOT
HETATM    1  C   UNL     1      43.198 -11.171   6.515  1.00  0.00     0.127 C 
ENDROOT
BRANCH   1   2
HETATM    2  N   UNL     1      44.433 -11.162   7.307  1.00  0.00    -0.338 N 
HETATM    3  C   UNL     1      45.670 -11.344   6.555  1.00  0.00     0.154 C 
HETATM    4  C   UNL     1      44.562 -10.570   8.563  1.00  0.00     0.322 C 
HETATM    5  N   UNL     1      43.405 -10.511   9.299  1.00  0.00    -0.309 N 
HETATM    6  O   UNL     1      45.634 -10.082   8.912  1.00  0.00    -0.247 OA
HETATM    7  H   UNL     1      42.675 -11.149   9.025  1.00  0.00     0.170 HD
BRANCH   5   8
HETATM    8  C   UNL     1      43.171  -9.789  10.490  1.00  0.00     0.036 A 
HETATM    9  C   UNL     1      42.913  -8.416  10.533  1.00  0.00     0.039 A 
HETATM   10  C   UNL     1      42.681  -7.817  11.763  1.00  0.00    -0.024 A 
HETATM   11  C   UNL     1      42.676  -8.552  12.936  1.00  0.00    -0.026 A 
HETATM   12  C   UNL     1      42.391  -6.395  12.070  1.00  0.00     0.207 C 
HETATM   13  C   UNL     1      42.359  -7.653  14.073  1.00  0.00     0.207 C 
HETATM   14  C   UNL     1      42.913  -9.913  12.924  1.00  0.00     0.012 A 
HETATM   15  O   UNL     1      42.430  -6.320  13.516  1.00  0.00    -0.382 OA
HETATM   16  C   UNL     1      43.172 -10.527  11.693  1.00  0.00     0.030 A 
ENDBRANCH   5   8
ENDBRANCH   1   2
BRANCH   1  17
HETATM   17  C   UNL     1      43.108 -12.339   5.518  1.00  0.00     0.026 C 
BRANCH  17  18
HETATM   18  C   UNL     1      42.912 -13.707   6.181  1.00  0.00     0.060 C 
BRANCH  18  19
HETATM   19  C   UNL     1      43.142 -14.859   5.266  1.00  0.00     0.030 A 
HETATM   20  N   UNL     1      43.079 -14.781   3.901  1.00  0.00    -0.282 N 
HETATM   21  H   UNL     1      42.906 -13.968   3.314  1.00  0.00     0.189 HD
HETATM   22  N   UNL     1      43.268 -15.960   3.289  1.00  0.00    -0.174 NA
HETATM   23  C   UNL     1      43.434 -16.849   4.280  1.00  0.00     0.089 A 
HETATM   24  C   UNL     1      43.384 -16.188   5.538  1.00  0.00     0.060 A 
BRANCH  23  25
HETATM   25  C   UNL     1      43.613 -18.281   4.006  1.00  0.00    -0.003 A 
HETATM   26  C   UNL     1      43.462 -18.799   2.714  1.00  0.00     0.056 A 
HETATM   27  C   UNL     1      43.660 -20.157   2.480  1.00  0.00     0.117 A 
HETATM   28  F   UNL     1      43.517 -20.636   1.237  1.00  0.00    -0.206 F 
HETATM   29  C   UNL     1      44.004 -21.026   3.508  1.00  0.00     0.042 A 
HETATM   30  C   UNL     1      44.155 -20.528   4.798  1.00  0.00     0.004 A 
HETATM   31  C   UNL     1      43.959 -19.165   5.044  1.00  0.00     0.014 A 
ENDBRANCH  23  25
ENDBRANCH  18  19
ENDBRANCH  17  18
ENDBRANCH   1  17
TORSDOF 6
ENDMDL
MODEL 3
REMARK VINA RESULT:      -9.3      5.566      9.046
REMARK  6 active torsions:
REMARK  status: ('A' for Active; 'I' for Inactive)
REMARK       I    between atoms: N_2  and  C_3 
REMARK    1  A    between atoms: N_2  and  C_15 
REMARK       I    between atoms: C_3  and  N_4 
REMARK    2  A    between atoms: N_4  and  C_5 
REMARK    3  A    between atoms: C_15  and  C_16 
REMARK    4  A    between atoms: C_16  and  C_17 
REMARK    5  A    between atoms: C_17  and  C_18 
REMARK    6  A    between atoms: C_22  and  C_23 
ROOT
HETATM    1  C   UNL     1      43.054 -12.895   5.321  1.00  0.00     0.127 C 
ENDROOT
BRANCH   1   2
HETATM    2  N   UNL     1      42.019 -13.846   5.743  1.00  0.00    -0.338 N 
HETATM    3  C   UNL     1      40.799 -13.256   6.285  1.00  0.00     0.154 C 
HETATM    4  C   UNL     1      41.911 -15.155   5.276  1.00  0.00     0.322 C 
HETATM    5  N   UNL     1      43.093 -15.728   4.877  1.00  0.00    -0.309 N 
HETATM    6  O   UNL     1      40.809 -15.689   5.176  1.00  0.00    -0.247 OA
HETATM    7  H   UNL     1      43.933 -15.301   5.233  1.00  0.00     0.170 HD
BRANCH   5   8
HETATM    8  C   UNL     1      43.274 -16.937   4.168  1.00  0.00     0.036 A 
HETATM    9  C   UNL     1      43.592 -18.157   4.773  1.00  0.00     0.039 A 
HETATM   10  C   UNL     1      43.728 -19.283   3.974  1.00  0.00    -0.024 A 
HETATM   11  C   UNL     1      43.532 -19.227   2.605  1.00  0.00    -0.026 A 
HETATM   12  C   UNL     1      44.060 -20.674   4.369  1.00  0.00     0.207 C 
HETATM   13  C   UNL     1      43.703 -20.585   2.032  1.00  0.00     0.207 C 
HETATM   14  C   UNL     1      43.203 -18.039   1.981  1.00  0.00     0.012 A 
HETATM   15  O   UNL     1      44.253 -21.372   3.115  1.00  0.00    -0.382 OA
HETATM   16  C   UNL     1      43.085 -16.889   2.771  1.00  0.00     0.030 A 
ENDBRANCH   5   8
ENDBRANCH   1   2
BRANCH   1  17
HETATM   17  C   UNL     1      42.669 -12.068   4.083  1.00  0.00     0.026 C 
BRANCH  17  18
HETATM   18  C   UNL     1      42.974 -12.765   2.752  1.00  0.00     0.060 C 
BRANCH  18  19
HETATM   19  C   UNL     1      41.760 -13.187   2.000  1.00  0.00     0.030 A 
HETATM   20  N   UNL     1      40.806 -14.035   2.494  1.00  0.00    -0.282 N 
HETATM   21  H   UNL     1      40.751 -14.471   3.413  1.00  0.00     0.189 HD
HETATM   22  N   UNL     1      39.832 -14.314   1.615  1.00  0.00    -0.174 NA
HETATM   23  C   UNL     1      40.166 -13.652   0.497  1.00  0.00     0.089 A 
HETATM   24  C   UNL     1      41.361 -12.913   0.710  1.00  0.00     0.060 A 
BRANCH  23  25
HETATM   25  C   UNL     1      39.361 -13.756  -0.727  1.00  0.00    -0.003 A 
HETATM   26  C   UNL     1      38.491 -12.730  -1.116  1.00  0.00     0.056 A 
HETATM   27  C   UNL     1      37.757 -12.846  -2.293  1.00  0.00     0.117 A 
HETATM   28  F   UNL     1      36.933 -11.853  -2.653  1.00  0.00    -0.206 F 
HETATM   29  C   UNL     1      37.863 -13.969  -3.104  1.00  0.00     0.042 A 
HETATM   30  C   UNL     1      38.721 -14.999  -2.732  1.00  0.00     0.004 A 
HETATM   31  C   UNL     1      39.464 -14.892  -1.550  1.00  0.00     0.014 A 
ENDBRANCH  23  25
ENDBRANCH  18  19
ENDBRANCH  17  18
ENDBRANCH   1  17
TORSDOF 6
ENDMDL
MODEL 4
REMARK VINA RESULT:      -9.0      5.919      9.502
REMARK  6 active torsions:
REMARK  status: ('A' for Active; 'I' for Inactive)
REMARK       I    between atoms: N_2  and  C_3 
REMARK    1  A    between atoms: N_2  and  C_15 
REMARK       I    between atoms: C_3  and  N_4 
REMARK    2  A    between atoms: N_4  and  C_5 
REMARK    3  A    between atoms: C_15  and  C_16 
REMARK    4  A    between atoms: C_16  and  C_17 
REMARK    5  A    between atoms: C_17  and  C_18 
REMARK    6  A    between atoms: C_22  and  C_23 
ROOT
HETATM    1  C   UNL     1      40.260 -11.951   5.512  1.00  0.00     0.127 C 
ENDROOT
BRANCH   1   2
HETATM    2  N   UNL     1      41.080 -11.278   4.499  1.00  0.00    -0.338 N 
HETATM    3  C   UNL     1      42.253 -10.569   5.003  1.00  0.00     0.154 C 
HETATM    4  C   UNL     1      41.105 -11.617   3.147  1.00  0.00     0.322 C 
HETATM    5  N   UNL     1      39.947 -12.181   2.669  1.00  0.00    -0.309 N 
HETATM    6  O   UNL     1      42.133 -11.476   2.489  1.00  0.00    -0.247 OA
HETATM    7  H   UNL     1      39.118 -12.017   3.217  1.00  0.00     0.170 HD
BRANCH   5   8
HETATM    8  C   UNL     1      39.743 -12.818   1.426  1.00  0.00     0.036 A 
HETATM    9  C   UNL     1      39.218 -12.180   0.298  1.00  0.00     0.039 A 
HETATM   10  C   UNL     1      39.079 -12.905  -0.876  1.00  0.00    -0.024 A 
HETATM   11  C   UNL     1      39.469 -14.230  -0.960  1.00  0.00    -0.026 A 
HETATM   12  C   UNL     1      38.552 -12.462  -2.191  1.00  0.00     0.207 C 
HETATM   13  C   UNL     1      39.240 -14.721  -2.341  1.00  0.00     0.207 C 
HETATM   14  C   UNL     1      40.005 -14.884   0.134  1.00  0.00     0.012 A 
HETATM   15  O   UNL     1      38.465 -13.677  -2.976  1.00  0.00    -0.382 OA
HETATM   16  C   UNL     1      40.130 -14.172   1.333  1.00  0.00     0.030 A 
ENDBRANCH   5   8
ENDBRANCH   1   2
BRANCH   1  17
HETATM   17  C   UNL     1      40.566 -13.450   5.664  1.00  0.00     0.026 C 
BRANCH  17  18
HETATM   18  C   UNL     1      42.048 -13.759   5.910  1.00  0.00     0.060 C 
BRANCH  18  19
HETATM   19  C   UNL     1      42.578 -14.874   5.078  1.00  0.00     0.030 A 
HETATM   20  N   UNL     1      42.956 -14.743   3.769  1.00  0.00    -0.282 N 
HETATM   21  H   UNL     1      42.967 -13.909   3.187  1.00  0.00     0.189 HD
HETATM   22  N   UNL     1      43.351 -15.897   3.210  1.00  0.00    -0.174 NA
HETATM   23  C   UNL     1      43.205 -16.822   4.169  1.00  0.00     0.089 A 
HETATM   24  C   UNL     1      42.743 -16.211   5.367  1.00  0.00     0.060 A 
BRANCH  23  25
HETATM   25  C   UNL     1      43.486 -18.242   3.918  1.00  0.00    -0.003 A 
HETATM   26  C   UNL     1      43.350 -18.795   2.638  1.00  0.00     0.056 A 
HETATM   27  C   UNL     1      43.645 -20.139   2.424  1.00  0.00     0.117 A 
HETATM   28  F   UNL     1      43.514 -20.651   1.193  1.00  0.00    -0.206 F 
HETATM   29  C   UNL     1      44.073 -20.959   3.461  1.00  0.00     0.042 A 
HETATM   30  C   UNL     1      44.211 -20.427   4.738  1.00  0.00     0.004 A 
HETATM   31  C   UNL     1      43.918 -19.077   4.964  1.00  0.00     0.014 A 
ENDBRANCH  23  25
ENDBRANCH  18  19
ENDBRANCH  17  18
ENDBRANCH   1  17
TORSDOF 6
ENDMDL
MODEL 5
REMARK VINA RESULT:      -8.8      1.928      3.011
REMARK  6 active torsions:
REMARK  status: ('A' for Active; 'I' for Inactive)
REMARK       I    between atoms: N_2  and  C_3 
REMARK    1  A    between atoms: N_2  and  C_15 
REMARK       I    between atoms: C_3  and  N_4 
REMARK    2  A    between atoms: N_4  and  C_5 
REMARK    3  A    between atoms: C_15  and  C_16 
REMARK    4  A    between atoms: C_16  and  C_17 
REMARK    5  A    between atoms: C_17  and  C_18 
REMARK    6  A    between atoms: C_22  and  C_23 
ROOT
HETATM    1  C   UNL     1      41.741 -12.969   2.303  1.00  0.00     0.127 C 
ENDROOT
BRANCH   1   2
HETATM    2  N   UNL     1      41.177 -13.538   3.532  1.00  0.00    -0.338 N 
HETATM    3  C   UNL     1      39.965 -12.894   4.030  1.00  0.00     0.154 C 
HETATM    4  C   UNL     1      41.407 -14.838   3.981  1.00  0.00     0.322 C 
HETATM    5  N   UNL     1      42.606 -15.382   3.592  1.00  0.00    -0.309 N 
HETATM    6  O   UNL     1      40.541 -15.441   4.610  1.00  0.00    -0.247 OA
HETATM    7  H   UNL     1      43.316 -14.727   3.306  1.00  0.00     0.170 HD
BRANCH   5   8
HETATM    8  C   UNL     1      43.023 -16.727   3.699  1.00  0.00     0.036 A 
HETATM    9  C   UNL     1      42.959 -17.650   2.651  1.00  0.00     0.039 A 
HETATM   10  C   UNL     1      43.414 -18.943   2.870  1.00  0.00    -0.024 A 
HETATM   11  C   UNL     1      43.949 -19.325   4.088  1.00  0.00    -0.026 A 
HETATM   12  C   UNL     1      43.450 -20.092   1.932  1.00  0.00     0.207 C 
HETATM   13  C   UNL     1      44.385 -20.741   4.006  1.00  0.00     0.207 C 
HETATM   14  C   UNL     1      44.039 -18.431   5.137  1.00  0.00     0.012 A 
HETATM   15  O   UNL     1      43.842 -21.219   2.754  1.00  0.00    -0.382 OA
HETATM   16  C   UNL     1      43.562 -17.130   4.939  1.00  0.00     0.030 A 
ENDBRANCH   5   8
ENDBRANCH   1   2
BRANCH   1  17
HETATM   17  C   UNL     1      42.566 -11.692   2.531  1.00  0.00     0.026 C 
BRANCH  17  18
HETATM   18  C   UNL     1      43.624 -11.824   3.632  1.00  0.00     0.060 C 
BRANCH  18  19
HETATM   19  C   UNL     1      43.269 -11.126   4.899  1.00  0.00     0.030 A 
HETATM   20  N   UNL     1      42.259 -10.209   5.013  1.00  0.00    -0.282 N 
HETATM   21  H   UNL     1      41.601  -9.890   4.305  1.00  0.00     0.189 HD
HETATM   22  N   UNL     1      42.161  -9.672   6.239  1.00  0.00    -0.174 NA
HETATM   23  C   UNL     1      43.153 -10.231   6.949  1.00  0.00     0.089 A 
HETATM   24  C   UNL     1      43.856 -11.169   6.144  1.00  0.00     0.060 A 
BRANCH  23  25
HETATM   25  C   UNL     1      43.410  -9.849   8.343  1.00  0.00    -0.003 A 
HETATM   26  C   UNL     1      44.701  -9.899   8.885  1.00  0.00     0.056 A 
HETATM   27  C   UNL     1      44.919  -9.509  10.204  1.00  0.00     0.117 A 
HETATM   28  F   UNL     1      46.161  -9.558  10.705  1.00  0.00    -0.206 F 
HETATM   29  C   UNL     1      43.877  -9.068  11.010  1.00  0.00     0.042 A 
HETATM   30  C   UNL     1      42.589  -9.014  10.488  1.00  0.00     0.004 A 
HETATM   31  C   UNL     1      42.358  -9.403   9.164  1.00  0.00     0.014 A 
ENDBRANCH  23  25
ENDBRANCH  18  19
ENDBRANCH  17  18
ENDBRANCH   1  17
TORSDOF 6
ENDMDL
MODEL 6
REMARK VINA RESULT:      -8.8      1.480      2.070
REMARK  6 active torsions:
REMARK  status: ('A' for Active; 'I' for Inactive)
REMARK       I    between atoms: N_2  and  C_3 
REMARK    1  A    between atoms: N_2  and  C_15 
REMARK       I    between atoms: C_3  and  N_4 
REMARK    2  A    between atoms: N_4  and  C_5 
REMARK    3  A    between atoms: C_15  and  C_16 
REMARK    4  A    between atoms: C_16  and  C_17 
REMARK    5  A    between atoms: C_17  and  C_18 
REMARK    6  A    between atoms: C_22  and  C_23 
ROOT
HETATM    1  C   UNL     1      42.957 -12.740   4.140  1.00  0.00     0.127 C 
ENDROOT
BRANCH   1   2
HETATM    2  N   UNL     1      41.730 -13.528   4.305  1.00  0.00    -0.338 N 
HETATM    3  C   UNL     1      40.482 -12.820   4.040  1.00  0.00     0.154 C 
HETATM    4  C   UNL     1      41.670 -14.920   4.241  1.00  0.00     0.322 C 
HETATM    5  N   UNL     1      42.824 -15.568   4.604  1.00  0.00    -0.309 N 
HETATM    6  O   UNL     1      40.663 -15.478   3.814  1.00  0.00    -0.247 OA
HETATM    7  H   UNL     1      43.474 -15.035   5.160  1.00  0.00     0.170 HD
BRANCH   5   8
HETATM    8  C   UNL     1      43.140 -16.934   4.437  1.00  0.00     0.036 A 
HETATM    9  C   UNL     1      43.188 -17.578   3.197  1.00  0.00     0.039 A 
HETATM   10  C   UNL     1      43.527 -18.923   3.155  1.00  0.00    -0.024 A 
HETATM   11  C   UNL     1      43.840 -19.627   4.305  1.00  0.00    -0.026 A 
HETATM   12  C   UNL     1      43.643 -19.821   1.980  1.00  0.00     0.207 C 
HETATM   13  C   UNL     1      44.200 -21.020   3.942  1.00  0.00     0.207 C 
HETATM   14  C   UNL     1      43.815 -19.013   5.543  1.00  0.00     0.012 A 
HETATM   15  O   UNL     1      43.834 -21.140   2.548  1.00  0.00    -0.382 OA
HETATM   16  C   UNL     1      43.452 -17.663   5.604  1.00  0.00     0.030 A 
ENDBRANCH   5   8
ENDBRANCH   1   2
BRANCH   1  17
HETATM   17  C   UNL     1      43.067 -11.551   5.108  1.00  0.00     0.026 C 
BRANCH  17  18
HETATM   18  C   UNL     1      44.501 -11.245   5.556  1.00  0.00     0.060 C 
BRANCH  18  19
HETATM   19  C   UNL     1      44.619 -10.874   6.993  1.00  0.00     0.030 A 
HETATM   20  N   UNL     1      45.703 -11.168   7.776  1.00  0.00    -0.282 N 
HETATM   21  H   UNL     1      46.570 -11.634   7.518  1.00  0.00     0.189 HD
HETATM   22  N   UNL     1      45.559 -10.781   9.053  1.00  0.00    -0.174 NA
HETATM   23  C   UNL     1      44.334 -10.240   9.122  1.00  0.00     0.089 A 
HETATM   24  C   UNL     1      43.722 -10.260   7.839  1.00  0.00     0.060 A 
BRANCH  23  25
HETATM   25  C   UNL     1      43.783  -9.746  10.390  1.00  0.00    -0.003 A 
HETATM   26  C   UNL     1      43.481  -8.391  10.574  1.00  0.00     0.056 A 
HETATM   27  C   UNL     1      42.937  -7.955  11.780  1.00  0.00     0.117 A 
HETATM   28  F   UNL     1      42.650  -6.656  11.937  1.00  0.00    -0.206 F 
HETATM   29  C   UNL     1      42.686  -8.838  12.822  1.00  0.00     0.042 A 
HETATM   30  C   UNL     1      42.983 -10.187  12.657  1.00  0.00     0.004 A 
HETATM   31  C   UNL     1      43.528 -10.637  11.449  1.00  0.00     0.014 A 
ENDBRANCH  23  25
ENDBRANCH  18  19
ENDBRANCH  17  18
ENDBRANCH   1  17
TORSDOF 6
ENDMDL
MODEL 7
REMARK VINA RESULT:      -8.7     17.740     19.254
REMARK  6 active torsions:
REMARK  status: ('A' for Active; 'I' for Inactive)
REMARK       I    between atoms: N_2  and  C_3 
REMARK    1  A    between atoms: N_2  and  C_15 
REMARK       I    between atoms: C_3  and  N_4 
REMARK    2  A    between atoms: N_4  and  C_5 
REMARK    3  A    between atoms: C_15  and  C_16 
REMARK    4  A    between atoms: C_16  and  C_17 
REMARK    5  A    between atoms: C_17  and  C_18 
REMARK    6  A    between atoms: C_22  and  C_23 
ROOT
HETATM    1  C   UNL     1      50.576 -31.539   1.636  1.00  0.00     0.127 C 
ENDROOT
BRANCH   1   2
HETATM    2  N   UNL     1      51.042 -31.445   0.248  1.00  0.00    -0.338 N 
HETATM    3  C   UNL     1      52.147 -32.327  -0.111  1.00  0.00     0.154 C 
HETATM    4  C   UNL     1      50.275 -30.962  -0.812  1.00  0.00     0.322 C 
HETATM    5  N   UNL     1      49.314 -30.046  -0.463  1.00  0.00    -0.309 N 
HETATM    6  O   UNL     1      50.433 -31.408  -1.946  1.00  0.00    -0.247 OA
HETATM    7  H   UNL     1      49.444 -29.585   0.423  1.00  0.00     0.170 HD
BRANCH   5   8
HETATM    8  C   UNL     1      48.258 -29.552  -1.261  1.00  0.00     0.036 A 
HETATM    9  C   UNL     1      47.527 -30.334  -2.160  1.00  0.00     0.039 A 
HETATM   10  C   UNL     1      46.499 -29.741  -2.879  1.00  0.00    -0.024 A 
HETATM   11  C   UNL     1      46.170 -28.408  -2.706  1.00  0.00    -0.026 A 
HETATM   12  C   UNL     1      45.590 -30.347  -3.883  1.00  0.00     0.207 C 
HETATM   13  C   UNL     1      45.011 -28.075  -3.571  1.00  0.00     0.207 C 
HETATM   14  C   UNL     1      46.865 -27.614  -1.814  1.00  0.00     0.012 A 
HETATM   15  O   UNL     1      44.856 -29.226  -4.433  1.00  0.00    -0.382 OA
HETATM   16  C   UNL     1      47.920 -28.192  -1.098  1.00  0.00     0.030 A 
ENDBRANCH   5   8
ENDBRANCH   1   2
BRANCH   1  17
HETATM   17  C   UNL     1      50.976 -30.339   2.509  1.00  0.00     0.026 C 
BRANCH  17  18
HETATM   18  C   UNL     1      49.924 -29.955   3.557  1.00  0.00     0.060 C 
BRANCH  18  19
HETATM   19  C   UNL     1      48.646 -29.460   2.977  1.00  0.00     0.030 A 
HETATM   20  N   UNL     1      48.400 -28.150   2.664  1.00  0.00    -0.282 N 
HETATM   21  H   UNL     1      49.020 -27.347   2.742  1.00  0.00     0.189 HD
HETATM   22  N   UNL     1      47.158 -27.935   2.204  1.00  0.00    -0.174 NA
HETATM   23  C   UNL     1      46.557 -29.133   2.239  1.00  0.00     0.089 A 
HETATM   24  C   UNL     1      47.470 -30.121   2.698  1.00  0.00     0.060 A 
BRANCH  23  25
HETATM   25  C   UNL     1      45.147 -29.297   1.860  1.00  0.00    -0.003 A 
HETATM   26  C   UNL     1      44.145 -29.441   2.827  1.00  0.00     0.056 A 
HETATM   27  C   UNL     1      42.814 -29.572   2.439  1.00  0.00     0.117 A 
HETATM   28  F   UNL     1      41.868 -29.704   3.379  1.00  0.00    -0.206 F 
HETATM   29  C   UNL     1      42.448 -29.567   1.100  1.00  0.00     0.042 A 
HETATM   30  C   UNL     1      43.430 -29.427   0.125  1.00  0.00     0.004 A 
HETATM   31  C   UNL     1      44.771 -29.294   0.504  1.00  0.00     0.014 A 
ENDBRANCH  23  25
ENDBRANCH  18  19
ENDBRANCH  17  18
ENDBRANCH   1  17
TORSDOF 6
ENDMDL
MODEL 8
REMARK VINA RESULT:      -8.6      3.103      4.758
REMARK  6 active torsions:
REMARK  status: ('A' for Active; 'I' for Inactive)
REMARK       I    between atoms: N_2  and  C_3 
REMARK    1  A    between atoms: N_2  and  C_15 
REMARK       I    between atoms: C_3  and  N_4 
REMARK    2  A    between atoms: N_4  and  C_5 
REMARK    3  A    between atoms: C_15  and  C_16 
REMARK    4  A    between atoms: C_16  and  C_17 
REMARK    5  A    between atoms: C_17  and  C_18 
REMARK    6  A    between atoms: C_22  and  C_23 
ROOT
HETATM    1  C   UNL     1      41.440 -13.418   1.215  1.00  0.00     0.127 C 
ENDROOT
BRANCH   1   2
HETATM    2  N   UNL     1      40.674 -13.969   2.338  1.00  0.00    -0.338 N 
HETATM    3  C   UNL     1      39.317 -13.453   2.493  1.00  0.00     0.154 C 
HETATM    4  C   UNL     1      40.935 -15.196   2.947  1.00  0.00     0.322 C 
HETATM    5  N   UNL     1      42.244 -15.606   2.886  1.00  0.00    -0.309 N 
HETATM    6  O   UNL     1      40.019 -15.860   3.425  1.00  0.00    -0.247 OA
HETATM    7  H   UNL     1      42.924 -14.887   2.702  1.00  0.00     0.170 HD
BRANCH   5   8
HETATM    8  C   UNL     1      42.769 -16.877   3.210  1.00  0.00     0.036 A 
HETATM    9  C   UNL     1      42.872 -17.935   2.301  1.00  0.00     0.039 A 
HETATM   10  C   UNL     1      43.421 -19.134   2.731  1.00  0.00    -0.024 A 
HETATM   11  C   UNL     1      43.890 -19.294   4.023  1.00  0.00    -0.026 A 
HETATM   12  C   UNL     1      43.634 -20.390   1.970  1.00  0.00     0.207 C 
HETATM   13  C   UNL     1      44.456 -20.657   4.172  1.00  0.00     0.207 C 
HETATM   14  C   UNL     1      43.815 -18.262   4.939  1.00  0.00     0.012 A 
HETATM   15  O   UNL     1      44.059 -21.351   2.967  1.00  0.00    -0.382 OA
HETATM   16  C   UNL     1      43.241 -17.053   4.528  1.00  0.00     0.030 A 
ENDBRANCH   5   8
ENDBRANCH   1   2
BRANCH   1  17
HETATM   17  C   UNL     1      40.891 -12.084   0.683  1.00  0.00     0.026 C 
BRANCH  17  18
HETATM   18  C   UNL     1      41.668 -10.854   1.168  1.00  0.00     0.060 C 
BRANCH  18  19
HETATM   19  C   UNL     1      41.876 -10.815   2.642  1.00  0.00     0.030 A 
HETATM   20  N   UNL     1      40.909 -10.465   3.546  1.00  0.00    -0.282 N 
HETATM   21  H   UNL     1      39.937 -10.216   3.378  1.00  0.00     0.189 HD
HETATM   22  N   UNL     1      41.345 -10.449   4.815  1.00  0.00    -0.174 NA
HETATM   23  C   UNL     1      42.645 -10.772   4.746  1.00  0.00     0.089 A 
HETATM   24  C   UNL     1      43.009 -11.033   3.396  1.00  0.00     0.060 A 
BRANCH  23  25
HETATM   25  C   UNL     1      43.494 -10.805   5.943  1.00  0.00    -0.003 A 
HETATM   26  C   UNL     1      43.035 -10.318   7.174  1.00  0.00     0.056 A 
HETATM   27  C   UNL     1      43.854 -10.383   8.299  1.00  0.00     0.117 A 
HETATM   28  F   UNL     1      43.397  -9.917   9.469  1.00  0.00    -0.206 F 
HETATM   29  C   UNL     1      45.133 -10.920   8.232  1.00  0.00     0.042 A 
HETATM   30  C   UNL     1      45.605 -11.405   7.017  1.00  0.00     0.004 A 
HETATM   31  C   UNL     1      44.790 -11.346   5.881  1.00  0.00     0.014 A 
ENDBRANCH  23  25
ENDBRANCH  18  19
ENDBRANCH  17  18
ENDBRANCH   1  17
TORSDOF 6
ENDMDL
MODEL 9
REMARK VINA RESULT:      -8.5      5.191      9.905
REMARK  6 active torsions:
REMARK  status: ('A' for Active; 'I' for Inactive)
REMARK       I    between atoms: N_2  and  C_3 
REMARK    1  A    between atoms: N_2  and  C_15 
REMARK       I    between atoms: C_3  and  N_4 
REMARK    2  A    between atoms: N_4  and  C_5 
REMARK    3  A    between atoms: C_15  and  C_16 
REMARK    4  A    between atoms: C_16  and  C_17 
REMARK    5  A    between atoms: C_17  and  C_18 
REMARK    6  A    between atoms: C_22  and  C_23 
ROOT
HETATM    1  C   UNL     1      39.783 -12.110  -0.783  1.00  0.00     0.127 C 
ENDROOT
BRANCH   1   2
HETATM    2  N   UNL     1      40.937 -11.203  -0.804  1.00  0.00    -0.338 N 
HETATM    3  C   UNL     1      41.103 -10.418  -2.023  1.00  0.00     0.154 C 
HETATM    4  C   UNL     1      41.577 -10.711   0.333  1.00  0.00     0.322 C 
HETATM    5  N   UNL     1      41.502 -11.523   1.437  1.00  0.00    -0.309 N 
HETATM    6  O   UNL     1      42.091  -9.596   0.322  1.00  0.00    -0.247 OA
HETATM    7  H   UNL     1      41.285 -12.490   1.261  1.00  0.00     0.170 HD
BRANCH   5   8
HETATM    8  C   UNL     1      41.854 -11.208   2.769  1.00  0.00     0.036 A 
HETATM    9  C   UNL     1      43.083 -11.536   3.350  1.00  0.00     0.039 A 
HETATM   10  C   UNL     1      43.322 -11.159   4.664  1.00  0.00    -0.024 A 
HETATM   11  C   UNL     1      42.387 -10.448   5.395  1.00  0.00    -0.026 A 
HETATM   12  C   UNL     1      44.529 -11.389   5.496  1.00  0.00     0.207 C 
HETATM   13  C   UNL     1      42.940 -10.154   6.740  1.00  0.00     0.207 C 
HETATM   14  C   UNL     1      41.170 -10.097   4.843  1.00  0.00     0.012 A 
HETATM   15  O   UNL     1      44.144 -10.952   6.823  1.00  0.00    -0.382 OA
HETATM   16  C   UNL     1      40.904 -10.491   3.526  1.00  0.00     0.030 A 
ENDBRANCH   5   8
ENDBRANCH   1   2
BRANCH   1  17
HETATM   17  C   UNL     1      40.151 -13.589  -0.991  1.00  0.00     0.026 C 
BRANCH  17  18
HETATM   18  C   UNL     1      39.744 -14.500   0.173  1.00  0.00     0.060 C 
BRANCH  18  19
HETATM   19  C   UNL     1      40.896 -15.080   0.917  1.00  0.00     0.030 A 
HETATM   20  N   UNL     1      42.176 -14.601   0.847  1.00  0.00    -0.282 N 
HETATM   21  H   UNL     1      42.531 -13.799   0.331  1.00  0.00     0.189 HD
HETATM   22  N   UNL     1      43.055 -15.319   1.562  1.00  0.00    -0.174 NA
HETATM   23  C   UNL     1      42.340 -16.319   2.099  1.00  0.00     0.089 A 
HETATM   24  C   UNL     1      40.972 -16.187   1.734  1.00  0.00     0.060 A 
BRANCH  23  25
HETATM   25  C   UNL     1      42.971 -17.364   2.915  1.00  0.00    -0.003 A 
HETATM   26  C   UNL     1      43.276 -17.150   4.265  1.00  0.00     0.056 A 
HETATM   27  C   UNL     1      43.853 -18.167   5.020  1.00  0.00     0.117 A 
HETATM   28  F   UNL     1      44.134 -17.946   6.311  1.00  0.00    -0.206 F 
HETATM   29  C   UNL     1      44.144 -19.406   4.462  1.00  0.00     0.042 A 
HETATM   30  C   UNL     1      43.850 -19.635   3.122  1.00  0.00     0.004 A 
HETATM   31  C   UNL     1      43.268 -18.620   2.355  1.00  0.00     0.014 A 
ENDBRANCH  23  25
ENDBRANCH  18  19
ENDBRANCH  17  18
ENDBRANCH   1  17
TORSDOF 6
ENDMDL
MODEL 10
REMARK VINA RESULT:      -8.5      7.881     10.622
REMARK  6 active torsions:
REMARK  status: ('A' for Active; 'I' for Inactive)
REMARK       I    between atoms: N_2  and  C_3 
REMARK    1  A    between atoms: N_2  and  C_15 
REMARK       I    between atoms: C_3  and  N_4 
REMARK    2  A    between atoms: N_4  and  C_5 
REMARK    3  A    between atoms: C_15  and  C_16 
REMARK    4  A    between atoms: C_16  and  C_17 
REMARK    5  A    between atoms: C_17  and  C_18 
REMARK    6  A    between atoms: C_22  and  C_23 
ROOT
HETATM    1  C   UNL     1      39.053  -6.304  16.434  1.00  0.00     0.127 C 
ENDROOT
BRANCH   1   2
HETATM    2  N   UNL     1      39.391  -5.355  15.367  1.00  0.00    -0.338 N 
HETATM    3  C   UNL     1      40.036  -4.120  15.799  1.00  0.00     0.154 C 
HETATM    4  C   UNL     1      39.566  -5.701  14.028  1.00  0.00     0.322 C 
HETATM    5  N   UNL     1      38.859  -6.803  13.616  1.00  0.00    -0.309 N 
HETATM    6  O   UNL     1      40.362  -5.083  13.326  1.00  0.00    -0.247 OA
HETATM    7  H   UNL     1      38.073  -7.063  14.190  1.00  0.00     0.170 HD
BRANCH   5   8
HETATM    8  C   UNL     1      38.995  -7.517  12.404  1.00  0.00     0.036 A 
HETATM    9  C   UNL     1      38.833  -6.943  11.139  1.00  0.00     0.039 A 
HETATM   10  C   UNL     1      39.008  -7.740  10.017  1.00  0.00    -0.024 A 
HETATM   11  C   UNL     1      39.360  -9.074  10.125  1.00  0.00    -0.026 A 
HETATM   12  C   UNL     1      38.891  -7.375   8.584  1.00  0.00     0.207 C 
HETATM   13  C   UNL     1      39.516  -9.649   8.765  1.00  0.00     0.207 C 
HETATM   14  C   UNL     1      39.541  -9.665  11.361  1.00  0.00     0.012 A 
HETATM   15  O   UNL     1      38.989  -8.636   7.878  1.00  0.00    -0.382 OA
HETATM   16  C   UNL     1      39.346  -8.879  12.503  1.00  0.00     0.030 A 
ENDBRANCH   5   8
ENDBRANCH   1   2
BRANCH   1  17
HETATM   17  C   UNL     1      40.118  -6.404  17.538  1.00  0.00     0.026 C 
BRANCH  17  18
HETATM   18  C   UNL     1      41.080  -7.585  17.367  1.00  0.00     0.060 C 
BRANCH  18  19
HETATM   19  C   UNL     1      41.818  -7.581  16.074  1.00  0.00     0.030 A 
HETATM   20  N   UNL     1      42.744  -6.636  15.720  1.00  0.00    -0.282 N 
HETATM   21  H   UNL     1      43.086  -5.843  16.258  1.00  0.00     0.189 HD
HETATM   22  N   UNL     1      43.237  -6.808  14.484  1.00  0.00    -0.174 NA
HETATM   23  C   UNL     1      42.599  -7.883  13.997  1.00  0.00     0.089 A 
HETATM   24  C   UNL     1      41.715  -8.409  14.978  1.00  0.00     0.060 A 
BRANCH  23  25
HETATM   25  C   UNL     1      42.830  -8.357  12.626  1.00  0.00    -0.003 A 
HETATM   26  C   UNL     1      43.148  -9.696  12.363  1.00  0.00     0.056 A 
HETATM   27  C   UNL     1      43.340 -10.123  11.052  1.00  0.00     0.117 A 
HETATM   28  F   UNL     1      43.638 -11.408  10.818  1.00  0.00    -0.206 F 
HETATM   29  C   UNL     1      43.226  -9.244   9.981  1.00  0.00     0.042 A 
HETATM   30  C   UNL     1      42.914  -7.911  10.225  1.00  0.00     0.004 A 
HETATM   31  C   UNL     1      42.718  -7.472  11.539  1.00  0.00     0.014 A 
ENDBRANCH  23  25
ENDBRANCH  18  19
ENDBRANCH  17  18
ENDBRANCH   1  17
TORSDOF 6
ENDMDL
