MODEL 1
REMARK VINA RESULT:      -8.8      0.000      0.000
REMARK  5 active torsions:
REMARK  status: ('A' for Active; 'I' for Inactive)
REMARK    1  A    between atoms: C_6  and  C_7 
REMARK    2  A    between atoms: C_7  and  N_8 
REMARK       I    between atoms: N_8  and  C_9 
REMARK       I    between atoms: C_9  and  N_10 
REMARK    3  A    between atoms: N_10  and  C_11 
REMARK    4  A    between atoms: C_13  and  C_14 
REMARK       I    between atoms: C_14  and  N_15 
REMARK    5  A    between atoms: N_15  and  C_16 
ROOT
HETATM    1  C   UNL     1      43.707 -17.561   5.021  1.00  0.00     0.036 A 
HETATM    2  C   UNL     1      43.740 -18.233   3.798  1.00  0.00     0.052 A 
HETATM    3  C   UNL     1      43.751 -19.634   3.758  1.00  0.00     0.046 A 
HETATM    4  C   UNL     1      43.788 -20.317   2.499  1.00  0.00     0.099 C 
HETATM    5  N   UNL     1      43.819 -20.891   1.490  1.00  0.00    -0.191 NA
HETATM    6  C   UNL     1      43.725 -20.369   4.948  1.00  0.00     0.023 A 
HETATM    7  C   UNL     1      43.688 -19.706   6.172  1.00  0.00     0.004 A 
HETATM    8  C   UNL     1      43.680 -18.310   6.207  1.00  0.00     0.029 A 
ENDROOT
BRANCH   1   9
HETATM    9  N   UNL     1      43.697 -16.157   5.153  1.00  0.00    -0.323 N 
HETATM   10  C   UNL     1      42.635 -15.296   4.933  1.00  0.00     0.256 C 
HETATM   11  O   UNL     1      41.519 -15.605   4.532  1.00  0.00    -0.267 OA
HETATM   12  H   UNL     1      44.587 -15.738   5.395  1.00  0.00     0.169 HD
BRANCH  10  13
HETATM   13  C   UNL     1      42.928 -13.851   5.167  1.00  0.00     0.034 A 
HETATM   14  C   UNL     1      43.060 -13.325   6.460  1.00  0.00     0.046 A 
HETATM   15  C   UNL     1      43.392 -11.981   6.645  1.00  0.00     0.037 A 
HETATM   16  C   UNL     1      43.530 -11.152   5.526  1.00  0.00     0.029 A 
HETATM   17  C   UNL     1      43.361 -11.660   4.237  1.00  0.00     0.003 A 
HETATM   18  C   UNL     1      43.064 -13.010   4.057  1.00  0.00     0.017 A 
BRANCH  15  19
HETATM   19  N   UNL     1      43.596 -11.397   7.912  1.00  0.00    -0.309 N 
HETATM   20  C   UNL     1      44.751 -10.849   8.398  1.00  0.00     0.321 C 
HETATM   21  N   UNL     1      44.704 -10.397   9.683  1.00  0.00    -0.337 N 
HETATM   22  O   UNL     1      45.811 -10.726   7.788  1.00  0.00    -0.247 OA
HETATM   23  H   UNL     1      45.595 -10.032   9.994  1.00  0.00     0.164 HD
HETATM   24  H   UNL     1      42.752 -11.176   8.431  1.00  0.00     0.170 HD
BRANCH  21  25
HETATM   25  C   UNL     1      43.676 -10.612  10.680  1.00  0.00     0.186 C 
BRANCH  25  26
HETATM   26  C   UNL     1      42.756  -9.444  10.712  1.00  0.00     0.083 A 
HETATM   27  C   UNL     1      42.648  -8.427  11.638  1.00  0.00     0.076 A 
HETATM   28  C   UNL     1      43.334  -8.092  12.897  1.00  0.00     0.079 C 
HETATM   29  O   UNL     1      41.670  -7.574  11.209  1.00  0.00    -0.307 OA
HETATM   30  C   UNL     1      41.247  -8.116  10.036  1.00  0.00     0.258 A 
HETATM   31  N   UNL     1      41.857  -9.226   9.682  1.00  0.00    -0.237 NA
ENDBRANCH  25  26
ENDBRANCH  21  25
ENDBRANCH  15  19
ENDBRANCH  10  13
ENDBRANCH   1   9
TORSDOF 5
ENDMDL
MODEL 2
REMARK VINA RESULT:      -8.7      1.685      1.986
REMARK  5 active torsions:
REMARK  status: ('A' for Active; 'I' for Inactive)
REMARK    1  A    between atoms: C_6  and  C_7 
REMARK    2  A    between atoms: C_7  and  N_8 
REMARK       I    between atoms: N_8  and  C_9 
REMARK       I    between atoms: C_9  and  N_10 
REMARK    3  A    between atoms: N_10  and  C_11 
REMARK    4  A    between atoms: C_13  and  C_14 
REMARK       I    between atoms: C_14  and  N_15 
REMARK    5  A    between atoms: N_15  and  C_16 
ROOT
HETATM    1  C   UNL     1      43.330 -17.712   5.030  1.00  0.00     0.036 A 
HETATM    2  C   UNL     1      43.429 -18.316   3.775  1.00  0.00     0.052 A 
HETATM    3  C   UNL     1      43.729 -19.681   3.667  1.00  0.00     0.046 A 
HETATM    4  C   UNL     1      43.833 -20.294   2.376  1.00  0.00     0.099 C 
HETATM    5  N   UNL     1      43.922 -20.811   1.340  1.00  0.00    -0.191 NA
HETATM    6  C   UNL     1      43.930 -20.448   4.819  1.00  0.00     0.023 A 
HETATM    7  C   UNL     1      43.828 -19.853   6.075  1.00  0.00     0.004 A 
HETATM    8  C   UNL     1      43.531 -18.493   6.177  1.00  0.00     0.029 A 
ENDROOT
BRANCH   1   9
HETATM    9  N   UNL     1      43.034 -16.347   5.231  1.00  0.00    -0.323 N 
HETATM   10  C   UNL     1      41.824 -15.707   5.023  1.00  0.00     0.256 C 
HETATM   11  O   UNL     1      40.800 -16.212   4.578  1.00  0.00    -0.267 OA
HETATM   12  H   UNL     1      43.817 -15.772   5.517  1.00  0.00     0.169 HD
BRANCH  10  13
HETATM   13  C   UNL     1      41.814 -14.248   5.336  1.00  0.00     0.034 A 
HETATM   14  C   UNL     1      42.889 -13.625   5.988  1.00  0.00     0.046 A 
HETATM   15  C   UNL     1      42.875 -12.247   6.214  1.00  0.00     0.037 A 
HETATM   16  C   UNL     1      41.750 -11.505   5.837  1.00  0.00     0.029 A 
HETATM   17  C   UNL     1      40.660 -12.125   5.223  1.00  0.00     0.003 A 
HETATM   18  C   UNL     1      40.694 -13.494   4.969  1.00  0.00     0.017 A 
BRANCH  15  19
HETATM   19  N   UNL     1      43.942 -11.545   6.812  1.00  0.00    -0.309 N 
HETATM   20  C   UNL     1      45.089 -11.106   6.210  1.00  0.00     0.321 C 
HETATM   21  N   UNL     1      45.997 -10.498   7.025  1.00  0.00    -0.337 N 
HETATM   22  O   UNL     1      45.369 -11.205   5.017  1.00  0.00    -0.247 OA
HETATM   23  H   UNL     1      46.833 -10.223   6.528  1.00  0.00     0.164 HD
HETATM   24  H   UNL     1      43.745 -11.149   7.726  1.00  0.00     0.170 HD
BRANCH  21  25
HETATM   25  C   UNL     1      46.020 -10.445   8.472  1.00  0.00     0.186 C 
BRANCH  25  26
HETATM   26  C   UNL     1      45.121  -9.362   8.950  1.00  0.00     0.083 A 
HETATM   27  C   UNL     1      44.226  -9.354  10.001  1.00  0.00     0.076 A 
HETATM   28  C   UNL     1      43.806 -10.335  11.014  1.00  0.00     0.079 C 
HETATM   29  O   UNL     1      43.655  -8.113  10.053  1.00  0.00    -0.307 OA
HETATM   30  C   UNL     1      44.246  -7.432   9.034  1.00  0.00     0.258 A 
HETATM   31  N   UNL     1      45.130  -8.118   8.343  1.00  0.00    -0.237 NA
ENDBRANCH  25  26
ENDBRANCH  21  25
ENDBRANCH  15  19
ENDBRANCH  10  13
ENDBRANCH   1   9
TORSDOF 5
ENDMDL
MODEL 3
REMARK VINA RESULT:      -8.7      5.490      8.758
REMARK  5 active torsions:
REMARK  status: ('A' for Active; 'I' for Inactive)
REMARK    1  A    between atoms: C_6  and  C_7 
REMARK    2  A    between atoms: C_7  and  N_8 
REMARK       I    between atoms: N_8  and  C_9 
REMARK       I    between atoms: C_9  and  N_10 
REMARK    3  A    between atoms: N_10  and  C_11 
REMARK    4  A    between atoms: C_13  and  C_14 
REMARK       I    between atoms: C_14  and  N_15 
REMARK    5  A    between atoms: N_15  and  C_16 
ROOT
HETATM    1  C   UNL     1      43.194 -16.613   3.867  1.00  0.00     0.036 A 
HETATM    2  C   UNL     1      43.273 -17.700   2.994  1.00  0.00     0.052 A 
HETATM    3  C   UNL     1      43.694 -18.954   3.460  1.00  0.00     0.046 A 
HETATM    4  C   UNL     1      43.776 -20.065   2.559  1.00  0.00     0.099 C 
HETATM    5  N   UNL     1      43.851 -20.978   1.846  1.00  0.00    -0.191 NA
HETATM    6  C   UNL     1      44.036 -19.123   4.806  1.00  0.00     0.023 A 
HETATM    7  C   UNL     1      43.955 -18.043   5.683  1.00  0.00     0.004 A 
HETATM    8  C   UNL     1      43.537 -16.796   5.214  1.00  0.00     0.029 A 
ENDROOT
BRANCH   1   9
HETATM    9  N   UNL     1      42.783 -15.319   3.483  1.00  0.00    -0.323 N 
HETATM   10  C   UNL     1      43.149 -14.621   2.345  1.00  0.00     0.256 C 
HETATM   11  O   UNL     1      43.942 -14.991   1.486  1.00  0.00    -0.267 OA
HETATM   12  H   UNL     1      42.188 -14.838   4.147  1.00  0.00     0.169 HD
BRANCH  10  13
HETATM   13  C   UNL     1      42.539 -13.265   2.205  1.00  0.00     0.034 A 
HETATM   14  C   UNL     1      41.537 -13.001   1.261  1.00  0.00     0.046 A 
HETATM   15  C   UNL     1      40.945 -11.737   1.195  1.00  0.00     0.037 A 
HETATM   16  C   UNL     1      41.405 -10.722   2.041  1.00  0.00     0.029 A 
HETATM   17  C   UNL     1      42.430 -10.969   2.957  1.00  0.00     0.003 A 
HETATM   18  C   UNL     1      42.993 -12.240   3.043  1.00  0.00     0.017 A 
BRANCH  15  19
HETATM   19  N   UNL     1      39.895 -11.415   0.310  1.00  0.00    -0.309 N 
HETATM   20  C   UNL     1      38.552 -11.487   0.553  1.00  0.00     0.321 C 
HETATM   21  N   UNL     1      37.736 -11.171  -0.493  1.00  0.00    -0.337 N 
HETATM   22  O   UNL     1      38.020 -11.803   1.616  1.00  0.00    -0.247 OA
HETATM   23  H   UNL     1      36.757 -11.271  -0.259  1.00  0.00     0.164 HD
HETATM   24  H   UNL     1      40.166 -10.882  -0.511  1.00  0.00     0.170 HD
BRANCH  21  25
HETATM   25  C   UNL     1      38.085 -10.983  -1.886  1.00  0.00     0.186 C 
BRANCH  25  26
HETATM   26  C   UNL     1      38.375 -12.299  -2.513  1.00  0.00     0.083 A 
HETATM   27  C   UNL     1      39.567 -12.813  -2.981  1.00  0.00     0.076 A 
HETATM   28  C   UNL     1      40.951 -12.317  -3.062  1.00  0.00     0.079 C 
HETATM   29  O   UNL     1      39.324 -14.077  -3.443  1.00  0.00    -0.307 OA
HETATM   30  C   UNL     1      37.996 -14.263  -3.218  1.00  0.00     0.258 A 
HETATM   31  N   UNL     1      37.376 -13.245  -2.662  1.00  0.00    -0.237 NA
ENDBRANCH  25  26
ENDBRANCH  21  25
ENDBRANCH  15  19
ENDBRANCH  10  13
ENDBRANCH   1   9
TORSDOF 5
ENDMDL
MODEL 4
REMARK VINA RESULT:      -8.6      4.367     10.228
REMARK  5 active torsions:
REMARK  status: ('A' for Active; 'I' for Inactive)
REMARK    1  A    between atoms: C_6  and  C_7 
REMARK    2  A    between atoms: C_7  and  N_8 
REMARK       I    between atoms: N_8  and  C_9 
REMARK       I    between atoms: C_9  and  N_10 
REMARK    3  A    between atoms: N_10  and  C_11 
REMARK    4  A    between atoms: C_13  and  C_14 
REMARK       I    between atoms: C_14  and  N_15 
REMARK    5  A    between atoms: N_15  and  C_16 
ROOT
HETATM    1  C   UNL     1      44.563 -11.626   7.230  1.00  0.00     0.036 A 
HETATM    2  C   UNL     1      43.789 -11.116   8.276  1.00  0.00     0.052 A 
HETATM    3  C   UNL     1      44.290 -10.097   9.097  1.00  0.00     0.046 A 
HETATM    4  C   UNL     1      43.493  -9.581  10.170  1.00  0.00     0.099 C 
HETATM    5  N   UNL     1      42.864  -9.150  11.046  1.00  0.00    -0.191 NA
HETATM    6  C   UNL     1      45.571  -9.581   8.871  1.00  0.00     0.023 A 
HETATM    7  C   UNL     1      46.346 -10.080   7.827  1.00  0.00     0.004 A 
HETATM    8  C   UNL     1      45.843 -11.098   7.013  1.00  0.00     0.029 A 
ENDROOT
BRANCH   1   9
HETATM    9  N   UNL     1      44.139 -12.651   6.359  1.00  0.00    -0.323 N 
HETATM   10  C   UNL     1      43.599 -13.879   6.701  1.00  0.00     0.256 C 
HETATM   11  O   UNL     1      43.439 -14.314   7.836  1.00  0.00    -0.267 OA
HETATM   12  H   UNL     1      44.293 -12.474   5.374  1.00  0.00     0.169 HD
BRANCH  10  13
HETATM   13  C   UNL     1      43.233 -14.756   5.550  1.00  0.00     0.034 A 
HETATM   14  C   UNL     1      42.465 -14.283   4.476  1.00  0.00     0.046 A 
HETATM   15  C   UNL     1      42.189 -15.112   3.386  1.00  0.00     0.037 A 
HETATM   16  C   UNL     1      42.635 -16.438   3.407  1.00  0.00     0.029 A 
HETATM   17  C   UNL     1      43.367 -16.927   4.491  1.00  0.00     0.003 A 
HETATM   18  C   UNL     1      43.669 -16.086   5.560  1.00  0.00     0.017 A 
BRANCH  15  19
HETATM   19  N   UNL     1      41.472 -14.689   2.249  1.00  0.00    -0.309 N 
HETATM   20  C   UNL     1      40.202 -15.044   1.887  1.00  0.00     0.321 C 
HETATM   21  N   UNL     1      39.753 -14.538   0.703  1.00  0.00    -0.337 N 
HETATM   22  O   UNL     1      39.438 -15.764   2.526  1.00  0.00    -0.247 OA
HETATM   23  H   UNL     1      38.822 -14.859   0.478  1.00  0.00     0.164 HD
HETATM   24  H   UNL     1      41.859 -13.884   1.764  1.00  0.00     0.170 HD
BRANCH  21  25
HETATM   25  C   UNL     1      40.505 -13.859  -0.333  1.00  0.00     0.186 C 
BRANCH  25  26
HETATM   26  C   UNL     1      39.820 -14.027  -1.641  1.00  0.00     0.083 A 
HETATM   27  C   UNL     1      39.928 -13.283  -2.799  1.00  0.00     0.076 A 
HETATM   28  C   UNL     1      40.698 -12.094  -3.201  1.00  0.00     0.079 C 
HETATM   29  O   UNL     1      39.116 -13.854  -3.739  1.00  0.00    -0.307 OA
HETATM   30  C   UNL     1      38.568 -14.922  -3.100  1.00  0.00     0.258 A 
HETATM   31  N   UNL     1      38.950 -15.083  -1.852  1.00  0.00    -0.237 NA
ENDBRANCH  25  26
ENDBRANCH  21  25
ENDBRANCH  15  19
ENDBRANCH  10  13
ENDBRANCH   1   9
TORSDOF 5
ENDMDL
MODEL 5
REMARK VINA RESULT:      -8.5      2.423      3.654
REMARK  5 active torsions:
REMARK  status: ('A' for Active; 'I' for Inactive)
REMARK    1  A    between atoms: C_6  and  C_7 
REMARK    2  A    between atoms: C_7  and  N_8 
REMARK       I    between atoms: N_8  and  C_9 
REMARK       I    between atoms: C_9  and  N_10 
REMARK    3  A    between atoms: N_10  and  C_11 
REMARK    4  A    between atoms: C_13  and  C_14 
REMARK       I    between atoms: C_14  and  N_15 
REMARK    5  A    between atoms: N_15  and  C_16 
ROOT
HETATM    1  C   UNL     1      42.684 -14.667   4.812  1.00  0.00     0.036 A 
HETATM    2  C   UNL     1      43.323 -15.833   4.382  1.00  0.00     0.052 A 
HETATM    3  C   UNL     1      42.674 -16.716   3.508  1.00  0.00     0.046 A 
HETATM    4  C   UNL     1      43.333 -17.912   3.074  1.00  0.00     0.099 C 
HETATM    5  N   UNL     1      43.849 -18.886   2.710  1.00  0.00    -0.191 NA
HETATM    6  C   UNL     1      41.380 -16.432   3.058  1.00  0.00     0.023 A 
HETATM    7  C   UNL     1      40.739 -15.270   3.479  1.00  0.00     0.004 A 
HETATM    8  C   UNL     1      41.388 -14.394   4.351  1.00  0.00     0.029 A 
ENDROOT
BRANCH   1   9
HETATM    9  N   UNL     1      43.261 -13.727   5.691  1.00  0.00    -0.323 N 
HETATM   10  C   UNL     1      43.739 -12.465   5.380  1.00  0.00     0.256 C 
HETATM   11  O   UNL     1      43.789 -11.959   4.265  1.00  0.00    -0.267 OA
HETATM   12  H   UNL     1      43.373 -14.039   6.648  1.00  0.00     0.169 HD
BRANCH  10  13
HETATM   13  C   UNL     1      44.286 -11.690   6.533  1.00  0.00     0.034 A 
HETATM   14  C   UNL     1      43.490 -11.345   7.635  1.00  0.00     0.046 A 
HETATM   15  C   UNL     1      44.047 -10.671   8.724  1.00  0.00     0.037 A 
HETATM   16  C   UNL     1      45.393 -10.290   8.677  1.00  0.00     0.029 A 
HETATM   17  C   UNL     1      46.181 -10.596   7.565  1.00  0.00     0.003 A 
HETATM   18  C   UNL     1      45.629 -11.299   6.496  1.00  0.00     0.017 A 
BRANCH  15  19
HETATM   19  N   UNL     1      43.323 -10.341   9.888  1.00  0.00    -0.309 N 
HETATM   20  C   UNL     1      43.571 -10.756  11.167  1.00  0.00     0.321 C 
HETATM   21  N   UNL     1      42.685 -10.339  12.115  1.00  0.00    -0.337 N 
HETATM   22  O   UNL     1      44.511 -11.459  11.535  1.00  0.00    -0.247 OA
HETATM   23  H   UNL     1      42.906 -10.702  13.033  1.00  0.00     0.164 HD
HETATM   24  H   UNL     1      42.684  -9.557   9.797  1.00  0.00     0.170 HD
BRANCH  21  25
HETATM   25  C   UNL     1      41.397  -9.702  11.930  1.00  0.00     0.186 C 
BRANCH  25  26
HETATM   26  C   UNL     1      41.068  -8.880  13.124  1.00  0.00     0.083 A 
HETATM   27  C   UNL     1      40.016  -8.012  13.339  1.00  0.00     0.076 A 
HETATM   28  C   UNL     1      38.865  -7.559  12.540  1.00  0.00     0.079 C 
HETATM   29  O   UNL     1      40.136  -7.517  14.607  1.00  0.00    -0.307 OA
HETATM   30  C   UNL     1      41.251  -8.122  15.096  1.00  0.00     0.258 A 
HETATM   31  N   UNL     1      41.848  -8.948  14.265  1.00  0.00    -0.237 NA
ENDBRANCH  25  26
ENDBRANCH  21  25
ENDBRANCH  15  19
ENDBRANCH  10  13
ENDBRANCH   1   9
TORSDOF 5
ENDMDL
MODEL 6
REMARK VINA RESULT:      -8.4      6.602      8.990
REMARK  5 active torsions:
REMARK  status: ('A' for Active; 'I' for Inactive)
REMARK    1  A    between atoms: C_6  and  C_7 
REMARK    2  A    between atoms: C_7  and  N_8 
REMARK       I    between atoms: N_8  and  C_9 
REMARK       I    between atoms: C_9  and  N_10 
REMARK    3  A    between atoms: N_10  and  C_11 
REMARK    4  A    between atoms: C_13  and  C_14 
REMARK       I    between atoms: C_14  and  N_15 
REMARK    5  A    between atoms: N_15  and  C_16 
ROOT
HETATM    1  C   UNL     1      42.611 -16.071   2.132  1.00  0.00     0.036 A 
HETATM    2  C   UNL     1      42.805 -17.411   1.790  1.00  0.00     0.052 A 
HETATM    3  C   UNL     1      43.364 -18.304   2.713  1.00  0.00     0.046 A 
HETATM    4  C   UNL     1      43.564 -19.678   2.355  1.00  0.00     0.099 C 
HETATM    5  N   UNL     1      43.735 -20.794   2.086  1.00  0.00    -0.191 NA
HETATM    6  C   UNL     1      43.730 -17.857   3.987  1.00  0.00     0.023 A 
HETATM    7  C   UNL     1      43.535 -16.523   4.337  1.00  0.00     0.004 A 
HETATM    8  C   UNL     1      42.979 -15.636   3.413  1.00  0.00     0.029 A 
ENDROOT
BRANCH   1   9
HETATM    9  N   UNL     1      42.057 -15.105   1.265  1.00  0.00    -0.323 N 
HETATM   10  C   UNL     1      40.737 -14.989   0.864  1.00  0.00     0.256 C 
HETATM   11  O   UNL     1      39.818 -15.744   1.158  1.00  0.00    -0.267 OA
HETATM   12  H   UNL     1      42.721 -14.454   0.861  1.00  0.00     0.169 HD
BRANCH  10  13
HETATM   13  C   UNL     1      40.450 -13.850  -0.057  1.00  0.00     0.034 A 
HETATM   14  C   UNL     1      41.158 -12.642   0.019  1.00  0.00     0.046 A 
HETATM   15  C   UNL     1      40.906 -11.616  -0.896  1.00  0.00     0.037 A 
HETATM   16  C   UNL     1      39.896 -11.785  -1.849  1.00  0.00     0.029 A 
HETATM   17  C   UNL     1      39.160 -12.971  -1.905  1.00  0.00     0.003 A 
HETATM   18  C   UNL     1      39.439 -14.004  -1.013  1.00  0.00     0.017 A 
BRANCH  15  19
HETATM   19  N   UNL     1      41.616 -10.399  -0.915  1.00  0.00    -0.309 N 
HETATM   20  C   UNL     1      41.317  -9.251  -0.234  1.00  0.00     0.321 C 
HETATM   21  N   UNL     1      42.135  -8.186  -0.467  1.00  0.00    -0.337 N 
HETATM   22  O   UNL     1      40.393  -9.097   0.562  1.00  0.00    -0.247 OA
HETATM   23  H   UNL     1      41.845  -7.362   0.042  1.00  0.00     0.164 HD
HETATM   24  H   UNL     1      42.551 -10.445  -1.309  1.00  0.00     0.170 HD
BRANCH  21  25
HETATM   25  C   UNL     1      43.141  -8.027  -1.497  1.00  0.00     0.186 C 
BRANCH  25  26
HETATM   26  C   UNL     1      42.596  -7.203  -2.608  1.00  0.00     0.083 A 
HETATM   27  C   UNL     1      41.758  -7.558  -3.645  1.00  0.00     0.076 A 
HETATM   28  C   UNL     1      41.103  -8.807  -4.070  1.00  0.00     0.079 C 
HETATM   29  O   UNL     1      41.521  -6.439  -4.393  1.00  0.00    -0.307 OA
HETATM   30  C   UNL     1      42.221  -5.461  -3.758  1.00  0.00     0.258 A 
HETATM   31  N   UNL     1      42.878  -5.850  -2.687  1.00  0.00    -0.237 NA
ENDBRANCH  25  26
ENDBRANCH  21  25
ENDBRANCH  15  19
ENDBRANCH  10  13
ENDBRANCH   1   9
TORSDOF 5
ENDMDL
MODEL 7
REMARK VINA RESULT:      -8.3      2.590     10.307
REMARK  5 active torsions:
REMARK  status: ('A' for Active; 'I' for Inactive)
REMARK    1  A    between atoms: C_6  and  C_7 
REMARK    2  A    between atoms: C_7  and  N_8 
REMARK       I    between atoms: N_8  and  C_9 
REMARK       I    between atoms: C_9  and  N_10 
REMARK    3  A    between atoms: N_10  and  C_11 
REMARK    4  A    between atoms: C_13  and  C_14 
REMARK       I    between atoms: C_14  and  N_15 
REMARK    5  A    between atoms: N_15  and  C_16 
ROOT
HETATM    1  C   UNL     1      42.550  -8.370  11.998  1.00  0.00     0.036 A 
HETATM    2  C   UNL     1      41.166  -8.189  12.023  1.00  0.00     0.052 A 
HETATM    3  C   UNL     1      40.551  -7.576  13.124  1.00  0.00     0.046 A 
HETATM    4  C   UNL     1      39.130  -7.397  13.146  1.00  0.00     0.099 C 
HETATM    5  N   UNL     1      37.980  -7.242  13.184  1.00  0.00    -0.191 NA
HETATM    6  C   UNL     1      41.324  -7.139  14.204  1.00  0.00     0.023 A 
HETATM    7  C   UNL     1      42.706  -7.312  14.184  1.00  0.00     0.004 A 
HETATM    8  C   UNL     1      43.314  -7.925  13.086  1.00  0.00     0.029 A 
ENDROOT
BRANCH   1   9
HETATM    9  N   UNL     1      43.249  -8.979  10.934  1.00  0.00    -0.323 N 
HETATM   10  C   UNL     1      43.672  -8.388   9.755  1.00  0.00     0.256 C 
HETATM   11  O   UNL     1      43.466  -7.231   9.406  1.00  0.00    -0.267 OA
HETATM   12  H   UNL     1      43.417  -9.972  11.037  1.00  0.00     0.169 HD
BRANCH  10  13
HETATM   13  C   UNL     1      44.404  -9.290   8.817  1.00  0.00     0.034 A 
HETATM   14  C   UNL     1      43.742 -10.287   8.085  1.00  0.00     0.046 A 
HETATM   15  C   UNL     1      44.446 -11.076   7.172  1.00  0.00     0.037 A 
HETATM   16  C   UNL     1      45.828 -10.901   7.041  1.00  0.00     0.029 A 
HETATM   17  C   UNL     1      46.499  -9.937   7.796  1.00  0.00     0.003 A 
HETATM   18  C   UNL     1      45.787  -9.129   8.680  1.00  0.00     0.017 A 
BRANCH  15  19
HETATM   19  N   UNL     1      43.839 -12.057   6.362  1.00  0.00    -0.309 N 
HETATM   20  C   UNL     1      43.623 -12.004   5.013  1.00  0.00     0.321 C 
HETATM   21  N   UNL     1      42.962 -13.065   4.470  1.00  0.00    -0.337 N 
HETATM   22  O   UNL     1      43.970 -11.100   4.255  1.00  0.00    -0.247 OA
HETATM   23  H   UNL     1      42.807 -12.953   3.477  1.00  0.00     0.164 HD
HETATM   24  H   UNL     1      43.742 -12.974   6.787  1.00  0.00     0.170 HD
BRANCH  21  25
HETATM   25  C   UNL     1      42.261 -14.137   5.148  1.00  0.00     0.186 C 
BRANCH  25  26
HETATM   26  C   UNL     1      43.193 -15.269   5.392  1.00  0.00     0.083 A 
HETATM   27  C   UNL     1      43.475 -16.369   4.607  1.00  0.00     0.076 A 
HETATM   28  C   UNL     1      43.007 -16.859   3.300  1.00  0.00     0.079 C 
HETATM   29  O   UNL     1      44.422 -17.112   5.255  1.00  0.00    -0.307 OA
HETATM   30  C   UNL     1      44.670 -16.413   6.395  1.00  0.00     0.258 A 
HETATM   31  N   UNL     1      43.975 -15.306   6.533  1.00  0.00    -0.237 NA
ENDBRANCH  25  26
ENDBRANCH  21  25
ENDBRANCH  15  19
ENDBRANCH  10  13
ENDBRANCH   1   9
TORSDOF 5
ENDMDL
MODEL 8
REMARK VINA RESULT:      -8.1      1.803     10.440
REMARK  5 active torsions:
REMARK  status: ('A' for Active; 'I' for Inactive)
REMARK    1  A    between atoms: C_6  and  C_7 
REMARK    2  A    between atoms: C_7  and  N_8 
REMARK       I    between atoms: N_8  and  C_9 
REMARK       I    between atoms: C_9  and  N_10 
REMARK    3  A    between atoms: N_10  and  C_11 
REMARK    4  A    between atoms: C_13  and  C_14 
REMARK       I    between atoms: C_14  and  N_15 
REMARK    5  A    between atoms: N_15  and  C_16 
ROOT
HETATM    1  C   UNL     1      42.924  -9.556   9.694  1.00  0.00     0.036 A 
HETATM    2  C   UNL     1      42.700  -8.180   9.768  1.00  0.00     0.052 A 
HETATM    3  C   UNL     1      42.769  -7.515  10.999  1.00  0.00     0.046 A 
HETATM    4  C   UNL     1      42.535  -6.103  11.068  1.00  0.00     0.099 C 
HETATM    5  N   UNL     1      42.349  -4.959  11.147  1.00  0.00    -0.191 NA
HETATM    6  C   UNL     1      43.066  -8.229  12.165  1.00  0.00     0.023 A 
HETATM    7  C   UNL     1      43.294  -9.601  12.099  1.00  0.00     0.004 A 
HETATM    8  C   UNL     1      43.223 -10.260  10.870  1.00  0.00     0.029 A 
ENDROOT
BRANCH   1   9
HETATM    9  N   UNL     1      42.872 -10.304   8.499  1.00  0.00    -0.323 N 
HETATM   10  C   UNL     1      43.933 -10.860   7.805  1.00  0.00     0.256 C 
HETATM   11  O   UNL     1      45.121 -10.756   8.086  1.00  0.00    -0.267 OA
HETATM   12  H   UNL     1      41.951 -10.401   8.088  1.00  0.00     0.169 HD
BRANCH  10  13
HETATM   13  C   UNL     1      43.562 -11.612   6.570  1.00  0.00     0.034 A 
HETATM   14  C   UNL     1      43.748 -12.998   6.465  1.00  0.00     0.046 A 
HETATM   15  C   UNL     1      43.336 -13.681   5.319  1.00  0.00     0.037 A 
HETATM   16  C   UNL     1      42.792 -12.958   4.251  1.00  0.00     0.029 A 
HETATM   17  C   UNL     1      42.640 -11.572   4.334  1.00  0.00     0.003 A 
HETATM   18  C   UNL     1      43.020 -10.900   5.494  1.00  0.00     0.017 A 
BRANCH  15  19
HETATM   19  N   UNL     1      43.440 -15.079   5.166  1.00  0.00    -0.309 N 
HETATM   20  C   UNL     1      42.572 -16.031   5.622  1.00  0.00     0.321 C 
HETATM   21  N   UNL     1      42.929 -17.327   5.392  1.00  0.00    -0.337 N 
HETATM   22  O   UNL     1      41.511 -15.828   6.209  1.00  0.00    -0.247 OA
HETATM   23  H   UNL     1      42.263 -17.982   5.778  1.00  0.00     0.164 HD
HETATM   24  H   UNL     1      44.113 -15.393   4.473  1.00  0.00     0.170 HD
BRANCH  21  25
HETATM   25  C   UNL     1      44.200 -17.845   4.929  1.00  0.00     0.186 C 
BRANCH  25  26
HETATM   26  C   UNL     1      43.969 -18.967   3.982  1.00  0.00     0.083 A 
HETATM   27  C   UNL     1      43.977 -20.329   4.204  1.00  0.00     0.076 A 
HETATM   28  C   UNL     1      44.205 -21.189   5.378  1.00  0.00     0.079 C 
HETATM   29  O   UNL     1      43.682 -20.947   3.021  1.00  0.00    -0.307 OA
HETATM   30  C   UNL     1      43.500 -19.922   2.147  1.00  0.00     0.258 A 
HETATM   31  N   UNL     1      43.652 -18.719   2.657  1.00  0.00    -0.237 NA
ENDBRANCH  25  26
ENDBRANCH  21  25
ENDBRANCH  15  19
ENDBRANCH  10  13
ENDBRANCH   1   9
TORSDOF 5
ENDMDL
MODEL 9
REMARK VINA RESULT:      -8.1      6.408      9.108
REMARK  5 active torsions:
REMARK  status: ('A' for Active; 'I' for Inactive)
REMARK    1  A    between atoms: C_6  and  C_7 
REMARK    2  A    between atoms: C_7  and  N_8 
REMARK       I    between atoms: N_8  and  C_9 
REMARK       I    between atoms: C_9  and  N_10 
REMARK    3  A    between atoms: N_10  and  C_11 
REMARK    4  A    between atoms: C_13  and  C_14 
REMARK       I    between atoms: C_14  and  N_15 
REMARK    5  A    between atoms: N_15  and  C_16 
ROOT
HETATM    1  C   UNL     1      42.847 -16.592   2.560  1.00  0.00     0.036 A 
HETATM    2  C   UNL     1      43.174 -16.255   3.875  1.00  0.00     0.052 A 
HETATM    3  C   UNL     1      43.762 -17.202   4.725  1.00  0.00     0.046 A 
HETATM    4  C   UNL     1      44.091 -16.851   6.075  1.00  0.00     0.099 C 
HETATM    5  N   UNL     1      44.365 -16.587   7.172  1.00  0.00    -0.191 NA
HETATM    6  C   UNL     1      44.027 -18.494   4.258  1.00  0.00     0.023 A 
HETATM    7  C   UNL     1      43.708 -18.836   2.946  1.00  0.00     0.004 A 
HETATM    8  C   UNL     1      43.121 -17.890   2.104  1.00  0.00     0.029 A 
ENDROOT
BRANCH   1   9
HETATM    9  N   UNL     1      42.253 -15.704   1.639  1.00  0.00    -0.323 N 
HETATM   10  C   UNL     1      40.924 -15.321   1.575  1.00  0.00     0.256 C 
HETATM   11  O   UNL     1      40.013 -15.730   2.286  1.00  0.00    -0.267 OA
HETATM   12  H   UNL     1      42.871 -15.347   0.921  1.00  0.00     0.169 HD
BRANCH  10  13
HETATM   13  C   UNL     1      40.593 -14.350   0.490  1.00  0.00     0.034 A 
HETATM   14  C   UNL     1      41.111 -13.047   0.482  1.00  0.00     0.046 A 
HETATM   15  C   UNL     1      40.830 -12.182  -0.578  1.00  0.00     0.037 A 
HETATM   16  C   UNL     1      39.976 -12.611  -1.601  1.00  0.00     0.029 A 
HETATM   17  C   UNL     1      39.426 -13.894  -1.579  1.00  0.00     0.003 A 
HETATM   18  C   UNL     1      39.737 -14.765  -0.537  1.00  0.00     0.017 A 
BRANCH  15  19
HETATM   19  N   UNL     1      41.359 -10.880  -0.682  1.00  0.00    -0.309 N 
HETATM   20  C   UNL     1      40.739  -9.703  -0.363  1.00  0.00     0.321 C 
HETATM   21  N   UNL     1      41.451  -8.566  -0.608  1.00  0.00    -0.337 N 
HETATM   22  O   UNL     1      39.617  -9.580   0.123  1.00  0.00    -0.247 OA
HETATM   23  H   UNL     1      40.929  -7.731  -0.379  1.00  0.00     0.164 HD
HETATM   24  H   UNL     1      42.365 -10.827  -0.808  1.00  0.00     0.170 HD
BRANCH  21  25
HETATM   25  C   UNL     1      42.678  -8.413  -1.361  1.00  0.00     0.186 C 
BRANCH  25  26
HETATM   26  C   UNL     1      42.399  -7.703  -2.636  1.00  0.00     0.083 A 
HETATM   27  C   UNL     1      41.664  -8.107  -3.732  1.00  0.00     0.076 A 
HETATM   28  C   UNL     1      40.907  -9.320  -4.085  1.00  0.00     0.079 C 
HETATM   29  O   UNL     1      41.679  -7.088  -4.644  1.00  0.00    -0.307 OA
HETATM   30  C   UNL     1      42.415  -6.116  -4.043  1.00  0.00     0.258 A 
HETATM   31  N   UNL     1      42.868  -6.417  -2.846  1.00  0.00    -0.237 NA
ENDBRANCH  25  26
ENDBRANCH  21  25
ENDBRANCH  15  19
ENDBRANCH  10  13
ENDBRANCH   1   9
TORSDOF 5
ENDMDL
MODEL 10
REMARK VINA RESULT:      -8.0      2.936     10.311
REMARK  5 active torsions:
REMARK  status: ('A' for Active; 'I' for Inactive)
REMARK    1  A    between atoms: C_6  and  C_7 
REMARK    2  A    between atoms: C_7  and  N_8 
REMARK       I    between atoms: N_8  and  C_9 
REMARK       I    between atoms: C_9  and  N_10 
REMARK    3  A    between atoms: N_10  and  C_11 
REMARK    4  A    between atoms: C_13  and  C_14 
REMARK       I    between atoms: C_14  and  N_15 
REMARK    5  A    between atoms: N_15  and  C_16 
ROOT
HETATM    1  C   UNL     1      42.064  -9.276  11.632  1.00  0.00     0.036 A 
HETATM    2  C   UNL     1      42.539  -8.544  12.722  1.00  0.00     0.052 A 
HETATM    3  C   UNL     1      41.688  -8.231  13.791  1.00  0.00     0.046 A 
HETATM    4  C   UNL     1      42.181  -7.477  14.905  1.00  0.00     0.099 C 
HETATM    5  N   UNL     1      42.559  -6.866  15.818  1.00  0.00    -0.191 NA
HETATM    6  C   UNL     1      40.355  -8.654  13.772  1.00  0.00     0.023 A 
HETATM    7  C   UNL     1      39.876  -9.388  12.690  1.00  0.00     0.004 A 
HETATM    8  C   UNL     1      40.727  -9.696  11.626  1.00  0.00     0.029 A 
ENDROOT
BRANCH   1   9
HETATM    9  N   UNL     1      42.850  -9.631  10.515  1.00  0.00    -0.323 N 
HETATM   10  C   UNL     1      43.854 -10.583  10.459  1.00  0.00     0.256 C 
HETATM   11  O   UNL     1      44.273 -11.255  11.393  1.00  0.00    -0.267 OA
HETATM   12  H   UNL     1      42.679  -9.091   9.675  1.00  0.00     0.169 HD
BRANCH  10  13
HETATM   13  C   UNL     1      44.503 -10.745   9.124  1.00  0.00     0.034 A 
HETATM   14  C   UNL     1      43.964 -11.584   8.138  1.00  0.00     0.046 A 
HETATM   15  C   UNL     1      44.562 -11.669   6.879  1.00  0.00     0.037 A 
HETATM   16  C   UNL     1      45.740 -10.954   6.633  1.00  0.00     0.029 A 
HETATM   17  C   UNL     1      46.304 -10.148   7.623  1.00  0.00     0.003 A 
HETATM   18  C   UNL     1      45.684 -10.039   8.866  1.00  0.00     0.017 A 
BRANCH  15  19
HETATM   19  N   UNL     1      44.045 -12.446   5.822  1.00  0.00    -0.309 N 
HETATM   20  C   UNL     1      43.477 -11.999   4.662  1.00  0.00     0.321 C 
HETATM   21  N   UNL     1      43.002 -12.960   3.819  1.00  0.00    -0.337 N 
HETATM   22  O   UNL     1      43.363 -10.826   4.312  1.00  0.00    -0.247 OA
HETATM   23  H   UNL     1      42.569 -12.566   2.994  1.00  0.00     0.164 HD
HETATM   24  H   UNL     1      44.309 -13.427   5.834  1.00  0.00     0.170 HD
BRANCH  21  25
HETATM   25  C   UNL     1      42.812 -14.373   4.074  1.00  0.00     0.186 C 
BRANCH  25  26
HETATM   26  C   UNL     1      41.781 -14.916   3.151  1.00  0.00     0.083 A 
HETATM   27  C   UNL     1      41.783 -16.079   2.408  1.00  0.00     0.076 A 
HETATM   28  C   UNL     1      42.731 -17.189   2.219  1.00  0.00     0.079 C 
HETATM   29  O   UNL     1      40.594 -16.147   1.737  1.00  0.00    -0.307 OA
HETATM   30  C   UNL     1      39.931 -15.023   2.121  1.00  0.00     0.258 A 
HETATM   31  N   UNL     1      40.581 -14.252   2.964  1.00  0.00    -0.237 NA
ENDBRANCH  25  26
ENDBRANCH  21  25
ENDBRANCH  15  19
ENDBRANCH  10  13
ENDBRANCH   1   9
TORSDOF 5
ENDMDL
