MODEL 1
REMARK VINA RESULT:      -8.3      0.000      0.000
REMARK  9 active torsions:
REMARK  status: ('A' for Active; 'I' for Inactive)
REMARK    1  A    between atoms: C_4  and  N_5 
REMARK       I    between atoms: N_5  and  C_6 
REMARK    2  A    between atoms: C_6  and  C_7 
REMARK    3  A    between atoms: C_7  and  N_8 
REMARK       I    between atoms: N_8  and  C_9 
REMARK    4  A    between atoms: C_9  and  C_10 
REMARK    5  A    between atoms: C_10  and  O_11 
REMARK    6  A    between atoms: O_11  and  C_12 
REMARK    7  A    between atoms: C_12  and  C_13 
REMARK    8  A    between atoms: C_17  and  C_18 
REMARK    9  A    between atoms: C_27  and  O_28 
ROOT
HETATM    1  N   UNL     1      41.847 -13.784   5.624  1.00  0.00    -0.350 N 
HETATM    2  C   UNL     1      41.137 -14.675   6.403  1.00  0.00     0.242 C 
HETATM    3  O   UNL     1      39.939 -14.561   6.642  1.00  0.00    -0.271 OA
HETATM    4  H   UNL     1      42.862 -13.823   5.719  1.00  0.00     0.163 HD
ENDROOT
BRANCH   2   5
HETATM    5  C   UNL     1      41.970 -15.838   6.949  1.00  0.00     0.281 C 
BRANCH   5   6
HETATM    6  O   UNL     1      42.175 -16.881   6.000  1.00  0.00    -0.308 OA
BRANCH   6   7
HETATM    7  C   UNL     1      43.464 -17.073   5.603  1.00  0.00     0.301 C 
HETATM    8  O   UNL     1      44.431 -16.614   6.208  1.00  0.00    -0.259 OA
BRANCH   7   9
HETATM    9  C   UNL     1      43.506 -17.906   4.418  1.00  0.00     0.091 A 
HETATM   10  S   UNL     1      44.232 -19.458   4.566  1.00  0.00    -0.095 SA
HETATM   11  C   UNL     1      43.855 -19.874   2.957  1.00  0.00     0.051 A 
HETATM   12  C   UNL     1      43.234 -18.841   2.294  1.00  0.00     0.021 A 
HETATM   13  C   UNL     1      43.047 -17.685   3.124  1.00  0.00    -0.002 A 
BRANCH  13  14
HETATM   14  C   UNL     1      42.476 -16.420   2.674  1.00  0.00    -0.024 A 
HETATM   15  C   UNL     1      41.087 -16.266   2.601  1.00  0.00     0.012 A 
HETATM   16  C   UNL     1      40.535 -15.067   2.144  1.00  0.00     0.001 A 
HETATM   17  C   UNL     1      41.368 -14.019   1.755  1.00  0.00     0.000 A 
HETATM   18  C   UNL     1      42.753 -14.168   1.817  1.00  0.00     0.001 A 
HETATM   19  C   UNL     1      43.307 -15.367   2.269  1.00  0.00     0.012 A 
ENDBRANCH  13  14
ENDBRANCH   7   9
ENDBRANCH   6   7
ENDBRANCH   5   6
ENDBRANCH   2   5
BRANCH   1  20
HETATM   20  C   UNL     1      41.246 -12.532   5.191  1.00  0.00     0.225 C 
BRANCH  20  21
HETATM   21  C   UNL     1      42.156 -11.332   5.487  1.00  0.00     0.239 C 
HETATM   22  N   UNL     1      42.372 -11.149   6.841  1.00  0.00    -0.323 N 
HETATM   23  H   UNL     1      42.058 -11.869   7.483  1.00  0.00     0.169 HD
HETATM   24  O   UNL     1      42.714 -10.716   4.584  1.00  0.00    -0.271 OA
BRANCH  22  25
HETATM   25  C   UNL     1      43.100 -10.116   7.471  1.00  0.00     0.069 A 
HETATM   26  C   UNL     1      42.515  -8.920   7.896  1.00  0.00     0.039 A 
HETATM   27  C   UNL     1      43.275  -7.959   8.576  1.00  0.00    -0.060 A 
HETATM   28  C   UNL     1      42.640  -6.675   9.022  1.00  0.00     0.048 C 
HETATM   29  C   UNL     1      44.636  -8.191   8.792  1.00  0.00     0.009 A 
HETATM   30  C   UNL     1      45.231  -9.380   8.364  1.00  0.00     0.039 A 
HETATM   31  C   UNL     1      44.471 -10.348   7.706  1.00  0.00     0.095 A 
BRANCH  31  32
HETATM   32  O   UNL     1      44.955 -11.553   7.244  1.00  0.00    -0.354 OA
HETATM   33  C   UNL     1      45.941 -11.495   6.221  1.00  0.00     0.210 C 
ENDBRANCH  31  32
ENDBRANCH  22  25
ENDBRANCH  20  21
ENDBRANCH   1  20
TORSDOF 9
ENDMDL
MODEL 2
REMARK VINA RESULT:      -8.2      2.337      4.024
REMARK  9 active torsions:
REMARK  status: ('A' for Active; 'I' for Inactive)
REMARK    1  A    between atoms: C_4  and  N_5 
REMARK       I    between atoms: N_5  and  C_6 
REMARK    2  A    between atoms: C_6  and  C_7 
REMARK    3  A    between atoms: C_7  and  N_8 
REMARK       I    between atoms: N_8  and  C_9 
REMARK    4  A    between atoms: C_9  and  C_10 
REMARK    5  A    between atoms: C_10  and  O_11 
REMARK    6  A    between atoms: O_11  and  C_12 
REMARK    7  A    between atoms: C_12  and  C_13 
REMARK    8  A    between atoms: C_17  and  C_18 
REMARK    9  A    between atoms: C_27  and  O_28 
ROOT
HETATM    1  N   UNL     1      43.023 -12.802   7.186  1.00  0.00    -0.350 N 
HETATM    2  C   UNL     1      43.204 -14.125   6.839  1.00  0.00     0.242 C 
HETATM    3  O   UNL     1      44.288 -14.598   6.512  1.00  0.00    -0.271 OA
HETATM    4  H   UNL     1      42.060 -12.466   7.171  1.00  0.00     0.163 HD
ENDROOT
BRANCH   2   5
HETATM    5  C   UNL     1      41.930 -14.972   6.900  1.00  0.00     0.281 C 
BRANCH   5   6
HETATM    6  O   UNL     1      40.988 -14.649   5.880  1.00  0.00    -0.308 OA
BRANCH   6   7
HETATM    7  C   UNL     1      40.928 -15.521   4.835  1.00  0.00     0.301 C 
HETATM    8  O   UNL     1      40.266 -16.556   4.857  1.00  0.00    -0.259 OA
BRANCH   7   9
HETATM    9  C   UNL     1      41.712 -15.024   3.722  1.00  0.00     0.091 A 
HETATM   10  S   UNL     1      41.352 -13.446   3.141  1.00  0.00    -0.095 SA
HETATM   11  C   UNL     1      42.625 -13.487   2.009  1.00  0.00     0.051 A 
HETATM   12  C   UNL     1      43.287 -14.693   2.027  1.00  0.00     0.021 A 
HETATM   13  C   UNL     1      42.751 -15.602   3.000  1.00  0.00    -0.002 A 
BRANCH  13  14
HETATM   14  C   UNL     1      43.209 -16.972   3.200  1.00  0.00    -0.024 A 
HETATM   15  C   UNL     1      42.940 -17.948   2.234  1.00  0.00     0.012 A 
HETATM   16  C   UNL     1      43.351 -19.269   2.434  1.00  0.00     0.001 A 
HETATM   17  C   UNL     1      44.030 -19.619   3.600  1.00  0.00     0.000 A 
HETATM   18  C   UNL     1      44.295 -18.654   4.571  1.00  0.00     0.001 A 
HETATM   19  C   UNL     1      43.880 -17.335   4.376  1.00  0.00     0.012 A 
ENDBRANCH  13  14
ENDBRANCH   7   9
ENDBRANCH   6   7
ENDBRANCH   5   6
ENDBRANCH   2   5
BRANCH   1  20
HETATM   20  C   UNL     1      44.090 -11.831   6.997  1.00  0.00     0.225 C 
BRANCH  20  21
HETATM   21  C   UNL     1      44.278 -10.945   8.236  1.00  0.00     0.239 C 
HETATM   22  N   UNL     1      43.125 -10.266   8.586  1.00  0.00    -0.323 N 
HETATM   23  H   UNL     1      42.258 -10.511   8.119  1.00  0.00     0.169 HD
HETATM   24  O   UNL     1      45.318 -10.973   8.889  1.00  0.00    -0.271 OA
BRANCH  22  25
HETATM   25  C   UNL     1      42.954  -9.325   9.625  1.00  0.00     0.069 A 
HETATM   26  C   UNL     1      42.815  -9.687  10.967  1.00  0.00     0.039 A 
HETATM   27  C   UNL     1      42.715  -8.705  11.962  1.00  0.00    -0.060 A 
HETATM   28  C   UNL     1      42.559  -9.103  13.400  1.00  0.00     0.048 C 
HETATM   29  C   UNL     1      42.718  -7.356  11.594  1.00  0.00     0.009 A 
HETATM   30  C   UNL     1      42.849  -6.985  10.254  1.00  0.00     0.039 A 
HETATM   31  C   UNL     1      42.970  -7.961   9.264  1.00  0.00     0.095 A 
BRANCH  31  32
HETATM   32  O   UNL     1      43.105  -7.708   7.917  1.00  0.00    -0.354 OA
HETATM   33  C   UNL     1      42.242  -6.722   7.362  1.00  0.00     0.210 C 
ENDBRANCH  31  32
ENDBRANCH  22  25
ENDBRANCH  20  21
ENDBRANCH   1  20
TORSDOF 9
ENDMDL
MODEL 3
REMARK VINA RESULT:      -8.1      2.071      3.463
REMARK  9 active torsions:
REMARK  status: ('A' for Active; 'I' for Inactive)
REMARK    1  A    between atoms: C_4  and  N_5 
REMARK       I    between atoms: N_5  and  C_6 
REMARK    2  A    between atoms: C_6  and  C_7 
REMARK    3  A    between atoms: C_7  and  N_8 
REMARK       I    between atoms: N_8  and  C_9 
REMARK    4  A    between atoms: C_9  and  C_10 
REMARK    5  A    between atoms: C_10  and  O_11 
REMARK    6  A    between atoms: O_11  and  C_12 
REMARK    7  A    between atoms: C_12  and  C_13 
REMARK    8  A    between atoms: C_17  and  C_18 
REMARK    9  A    between atoms: C_27  and  O_28 
ROOT
HETATM    1  N   UNL     1      41.274 -12.054   6.379  1.00  0.00    -0.350 N 
HETATM    2  C   UNL     1      40.411 -13.052   5.973  1.00  0.00     0.242 C 
HETATM    3  O   UNL     1      39.438 -12.854   5.251  1.00  0.00    -0.271 OA
HETATM    4  H   UNL     1      41.867 -12.278   7.177  1.00  0.00     0.163 HD
ENDROOT
BRANCH   2   5
HETATM    5  C   UNL     1      40.769 -14.445   6.495  1.00  0.00     0.281 C 
BRANCH   5   6
HETATM    6  O   UNL     1      41.747 -15.112   5.702  1.00  0.00    -0.308 OA
BRANCH   6   7
HETATM    7  C   UNL     1      41.261 -15.878   4.686  1.00  0.00     0.301 C 
HETATM    8  O   UNL     1      40.306 -16.640   4.814  1.00  0.00    -0.259 OA
BRANCH   7   9
HETATM    9  C   UNL     1      42.003 -15.623   3.467  1.00  0.00     0.091 A 
HETATM   10  S   UNL     1      41.755 -14.110   2.689  1.00  0.00    -0.095 SA
HETATM   11  C   UNL     1      42.929 -14.441   1.499  1.00  0.00     0.051 A 
HETATM   12  C   UNL     1      43.469 -15.697   1.649  1.00  0.00     0.021 A 
HETATM   13  C   UNL     1      42.923 -16.402   2.773  1.00  0.00    -0.002 A 
BRANCH  13  14
HETATM   14  C   UNL     1      43.259 -17.774   3.138  1.00  0.00    -0.024 A 
HETATM   15  C   UNL     1      43.829 -18.046   4.387  1.00  0.00     0.012 A 
HETATM   16  C   UNL     1      44.179 -19.354   4.730  1.00  0.00     0.001 A 
HETATM   17  C   UNL     1      43.963 -20.394   3.828  1.00  0.00     0.000 A 
HETATM   18  C   UNL     1      43.402 -20.130   2.579  1.00  0.00     0.001 A 
HETATM   19  C   UNL     1      43.056 -18.823   2.231  1.00  0.00     0.012 A 
ENDBRANCH  13  14
ENDBRANCH   7   9
ENDBRANCH   6   7
ENDBRANCH   5   6
ENDBRANCH   2   5
BRANCH   1  20
HETATM   20  C   UNL     1      40.965 -10.655   6.124  1.00  0.00     0.225 C 
BRANCH  20  21
HETATM   21  C   UNL     1      41.768  -9.720   7.038  1.00  0.00     0.239 C 
HETATM   22  N   UNL     1      41.878 -10.202   8.330  1.00  0.00    -0.323 N 
HETATM   23  H   UNL     1      41.570 -11.150   8.521  1.00  0.00     0.169 HD
HETATM   24  O   UNL     1      42.345  -8.732   6.593  1.00  0.00    -0.271 OA
BRANCH  22  25
HETATM   25  C   UNL     1      42.488  -9.579   9.440  1.00  0.00     0.069 A 
HETATM   26  C   UNL     1      41.873  -8.567  10.181  1.00  0.00     0.039 A 
HETATM   27  C   UNL     1      42.501  -8.031  11.313  1.00  0.00    -0.060 A 
HETATM   28  C   UNL     1      41.835  -6.940  12.098  1.00  0.00     0.048 C 
HETATM   29  C   UNL     1      43.770  -8.494  11.675  1.00  0.00     0.009 A 
HETATM   30  C   UNL     1      44.396  -9.501  10.936  1.00  0.00     0.039 A 
HETATM   31  C   UNL     1      43.763 -10.050   9.820  1.00  0.00     0.095 A 
BRANCH  31  32
HETATM   32  O   UNL     1      44.287 -11.044   9.024  1.00  0.00    -0.354 OA
HETATM   33  C   UNL     1      45.409 -10.695   8.221  1.00  0.00     0.210 C 
ENDBRANCH  31  32
ENDBRANCH  22  25
ENDBRANCH  20  21
ENDBRANCH   1  20
TORSDOF 9
ENDMDL
MODEL 4
REMARK VINA RESULT:      -8.1      0.925      2.123
REMARK  9 active torsions:
REMARK  status: ('A' for Active; 'I' for Inactive)
REMARK    1  A    between atoms: C_4  and  N_5 
REMARK       I    between atoms: N_5  and  C_6 
REMARK    2  A    between atoms: C_6  and  C_7 
REMARK    3  A    between atoms: C_7  and  N_8 
REMARK       I    between atoms: N_8  and  C_9 
REMARK    4  A    between atoms: C_9  and  C_10 
REMARK    5  A    between atoms: C_10  and  O_11 
REMARK    6  A    between atoms: O_11  and  C_12 
REMARK    7  A    between atoms: C_12  and  C_13 
REMARK    8  A    between atoms: C_17  and  C_18 
REMARK    9  A    between atoms: C_27  and  O_28 
ROOT
HETATM    1  N   UNL     1      41.775 -14.041   5.493  1.00  0.00    -0.350 N 
HETATM    2  C   UNL     1      41.032 -14.833   6.344  1.00  0.00     0.242 C 
HETATM    3  O   UNL     1      39.847 -14.636   6.594  1.00  0.00    -0.271 OA
HETATM    4  H   UNL     1      42.787 -14.129   5.573  1.00  0.00     0.163 HD
ENDROOT
BRANCH   2   5
HETATM    5  C   UNL     1      41.812 -15.999   6.959  1.00  0.00     0.281 C 
BRANCH   5   6
HETATM    6  O   UNL     1      42.124 -17.027   6.021  1.00  0.00    -0.308 OA
BRANCH   6   7
HETATM    7  C   UNL     1      43.362 -16.956   5.458  1.00  0.00     0.301 C 
HETATM    8  O   UNL     1      44.266 -16.254   5.906  1.00  0.00    -0.259 OA
BRANCH   7   9
HETATM    9  C   UNL     1      43.443 -17.840   4.313  1.00  0.00     0.091 A 
HETATM   10  S   UNL     1      44.222 -19.357   4.537  1.00  0.00    -0.095 SA
HETATM   11  C   UNL     1      43.875 -19.859   2.946  1.00  0.00     0.051 A 
HETATM   12  C   UNL     1      43.224 -18.879   2.232  1.00  0.00     0.021 A 
HETATM   13  C   UNL     1      42.990 -17.694   3.007  1.00  0.00    -0.002 A 
BRANCH  13  14
HETATM   14  C   UNL     1      42.379 -16.473   2.495  1.00  0.00    -0.024 A 
HETATM   15  C   UNL     1      43.185 -15.405   2.086  1.00  0.00     0.012 A 
HETATM   16  C   UNL     1      42.605 -14.222   1.622  1.00  0.00     0.001 A 
HETATM   17  C   UNL     1      41.217 -14.100   1.568  1.00  0.00     0.000 A 
HETATM   18  C   UNL     1      40.407 -15.156   1.980  1.00  0.00     0.001 A 
HETATM   19  C   UNL     1      40.984 -16.338   2.449  1.00  0.00     0.012 A 
ENDBRANCH  13  14
ENDBRANCH   7   9
ENDBRANCH   6   7
ENDBRANCH   5   6
ENDBRANCH   2   5
BRANCH   1  20
HETATM   20  C   UNL     1      41.234 -12.790   4.980  1.00  0.00     0.225 C 
BRANCH  20  21
HETATM   21  C   UNL     1      42.131 -11.596   5.331  1.00  0.00     0.239 C 
HETATM   22  N   UNL     1      42.241 -11.395   6.695  1.00  0.00    -0.323 N 
HETATM   23  H   UNL     1      41.868 -12.101   7.321  1.00  0.00     0.169 HD
HETATM   24  O   UNL     1      42.768 -11.001   4.467  1.00  0.00    -0.271 OA
BRANCH  22  25
HETATM   25  C   UNL     1      42.928 -10.361   7.367  1.00  0.00     0.069 A 
HETATM   26  C   UNL     1      44.318 -10.332   7.504  1.00  0.00     0.039 A 
HETATM   27  C   UNL     1      44.950  -9.245   8.123  1.00  0.00    -0.060 A 
HETATM   28  C   UNL     1      46.443  -9.226   8.271  1.00  0.00     0.048 C 
HETATM   29  C   UNL     1      44.172  -8.204   8.637  1.00  0.00     0.009 A 
HETATM   30  C   UNL     1      42.781  -8.227   8.512  1.00  0.00     0.039 A 
HETATM   31  C   UNL     1      42.151  -9.299   7.876  1.00  0.00     0.095 A 
BRANCH  31  32
HETATM   32  O   UNL     1      40.791  -9.423   7.698  1.00  0.00    -0.354 OA
HETATM   33  C   UNL     1      39.982  -9.329   8.864  1.00  0.00     0.210 C 
ENDBRANCH  31  32
ENDBRANCH  22  25
ENDBRANCH  20  21
ENDBRANCH   1  20
TORSDOF 9
ENDMDL
MODEL 5
REMARK VINA RESULT:      -8.1      3.269      8.488
REMARK  9 active torsions:
REMARK  status: ('A' for Active; 'I' for Inactive)
REMARK    1  A    between atoms: C_4  and  N_5 
REMARK       I    between atoms: N_5  and  C_6 
REMARK    2  A    between atoms: C_6  and  C_7 
REMARK    3  A    between atoms: C_7  and  N_8 
REMARK       I    between atoms: N_8  and  C_9 
REMARK    4  A    between atoms: C_9  and  C_10 
REMARK    5  A    between atoms: C_10  and  O_11 
REMARK    6  A    between atoms: O_11  and  C_12 
REMARK    7  A    between atoms: C_12  and  C_13 
REMARK    8  A    between atoms: C_17  and  C_18 
REMARK    9  A    between atoms: C_27  and  O_28 
ROOT
HETATM    1  N   UNL     1      40.152 -11.752   6.663  1.00  0.00    -0.350 N 
HETATM    2  C   UNL     1      39.171 -10.846   7.014  1.00  0.00     0.242 C 
HETATM    3  O   UNL     1      37.983 -10.998   6.748  1.00  0.00    -0.271 OA
HETATM    4  H   UNL     1      41.109 -11.401   6.689  1.00  0.00     0.163 HD
ENDROOT
BRANCH   2   5
HETATM    5  C   UNL     1      39.686  -9.623   7.777  1.00  0.00     0.281 C 
BRANCH   5   6
HETATM    6  O   UNL     1      41.080  -9.686   8.070  1.00  0.00    -0.308 OA
BRANCH   6   7
HETATM    7  C   UNL     1      41.551  -8.718   8.903  1.00  0.00     0.301 C 
HETATM    8  O   UNL     1      41.430  -7.516   8.677  1.00  0.00    -0.259 OA
BRANCH   7   9
HETATM    9  C   UNL     1      42.161  -9.316  10.074  1.00  0.00     0.091 A 
HETATM   10  S   UNL     1      41.301  -9.206  11.559  1.00  0.00    -0.095 SA
HETATM   11  C   UNL     1      42.461 -10.138  12.390  1.00  0.00     0.051 A 
HETATM   12  C   UNL     1      43.514 -10.488  11.576  1.00  0.00     0.021 A 
HETATM   13  C   UNL     1      43.363  -9.997  10.236  1.00  0.00    -0.002 A 
BRANCH  13  14
HETATM   14  C   UNL     1      44.350 -10.158   9.174  1.00  0.00    -0.024 A 
HETATM   15  C   UNL     1      44.252 -11.236   8.286  1.00  0.00     0.012 A 
HETATM   16  C   UNL     1      45.211 -11.411   7.285  1.00  0.00     0.001 A 
HETATM   17  C   UNL     1      46.271 -10.514   7.169  1.00  0.00     0.000 A 
HETATM   18  C   UNL     1      46.380  -9.442   8.055  1.00  0.00     0.001 A 
HETATM   19  C   UNL     1      45.426  -9.267   9.060  1.00  0.00     0.012 A 
ENDBRANCH  13  14
ENDBRANCH   7   9
ENDBRANCH   6   7
ENDBRANCH   5   6
ENDBRANCH   2   5
BRANCH   1  20
HETATM   20  C   UNL     1      39.853 -12.865   5.775  1.00  0.00     0.225 C 
BRANCH  20  21
HETATM   21  C   UNL     1      41.110 -13.678   5.439  1.00  0.00     0.239 C 
HETATM   22  N   UNL     1      40.847 -15.025   5.275  1.00  0.00    -0.323 N 
HETATM   23  H   UNL     1      39.879 -15.329   5.240  1.00  0.00     0.169 HD
HETATM   24  O   UNL     1      42.185 -13.127   5.217  1.00  0.00    -0.271 OA
BRANCH  22  25
HETATM   25  C   UNL     1      41.768 -16.065   5.024  1.00  0.00     0.069 A 
HETATM   26  C   UNL     1      42.064 -16.528   3.740  1.00  0.00     0.039 A 
HETATM   27  C   UNL     1      43.038 -17.518   3.547  1.00  0.00    -0.060 A 
HETATM   28  C   UNL     1      43.344 -18.014   2.165  1.00  0.00     0.048 C 
HETATM   29  C   UNL     1      43.685 -18.067   4.659  1.00  0.00     0.009 A 
HETATM   30  C   UNL     1      43.390 -17.615   5.947  1.00  0.00     0.039 A 
HETATM   31  C   UNL     1      42.436 -16.614   6.139  1.00  0.00     0.095 A 
BRANCH  31  32
HETATM   32  O   UNL     1      42.070 -16.096   7.362  1.00  0.00    -0.354 OA
HETATM   33  C   UNL     1      43.104 -15.511   8.143  1.00  0.00     0.210 C 
ENDBRANCH  31  32
ENDBRANCH  22  25
ENDBRANCH  20  21
ENDBRANCH   1  20
TORSDOF 9
ENDMDL
MODEL 6
REMARK VINA RESULT:      -8.0      2.382      8.643
REMARK  9 active torsions:
REMARK  status: ('A' for Active; 'I' for Inactive)
REMARK    1  A    between atoms: C_4  and  N_5 
REMARK       I    between atoms: N_5  and  C_6 
REMARK    2  A    between atoms: C_6  and  C_7 
REMARK    3  A    between atoms: C_7  and  N_8 
REMARK       I    between atoms: N_8  and  C_9 
REMARK    4  A    between atoms: C_9  and  C_10 
REMARK    5  A    between atoms: C_10  and  O_11 
REMARK    6  A    between atoms: O_11  and  C_12 
REMARK    7  A    between atoms: C_12  and  C_13 
REMARK    8  A    between atoms: C_17  and  C_18 
REMARK    9  A    between atoms: C_27  and  O_28 
ROOT
HETATM    1  N   UNL     1      41.418 -13.056   4.326  1.00  0.00    -0.350 N 
HETATM    2  C   UNL     1      40.254 -12.361   4.581  1.00  0.00     0.242 C 
HETATM    3  O   UNL     1      39.254 -12.431   3.874  1.00  0.00    -0.271 OA
HETATM    4  H   UNL     1      42.252 -12.719   4.808  1.00  0.00     0.163 HD
ENDROOT
BRANCH   2   5
HETATM    5  C   UNL     1      40.305 -11.485   5.836  1.00  0.00     0.281 C 
BRANCH   5   6
HETATM    6  O   UNL     1      41.538 -11.584   6.544  1.00  0.00    -0.308 OA
BRANCH   6   7
HETATM    7  C   UNL     1      42.198 -10.410   6.747  1.00  0.00     0.301 C 
HETATM    8  O   UNL     1      41.635  -9.318   6.780  1.00  0.00    -0.259 OA
BRANCH   7   9
HETATM    9  C   UNL     1      43.611 -10.658   6.950  1.00  0.00     0.091 A 
HETATM   10  S   UNL     1      44.470 -11.435   5.679  1.00  0.00    -0.095 SA
HETATM   11  C   UNL     1      45.958 -11.305   6.500  1.00  0.00     0.051 A 
HETATM   12  C   UNL     1      45.809 -10.731   7.740  1.00  0.00     0.021 A 
HETATM   13  C   UNL     1      44.448 -10.373   8.023  1.00  0.00    -0.002 A 
BRANCH  13  14
HETATM   14  C   UNL     1      43.981  -9.806   9.284  1.00  0.00    -0.024 A 
HETATM   15  C   UNL     1      43.779  -8.426   9.398  1.00  0.00     0.012 A 
HETATM   16  C   UNL     1      43.359  -7.875  10.612  1.00  0.00     0.001 A 
HETATM   17  C   UNL     1      43.143  -8.698  11.715  1.00  0.00     0.000 A 
HETATM   18  C   UNL     1      43.350 -10.073  11.611  1.00  0.00     0.001 A 
HETATM   19  C   UNL     1      43.775 -10.627  10.401  1.00  0.00     0.012 A 
ENDBRANCH  13  14
ENDBRANCH   7   9
ENDBRANCH   6   7
ENDBRANCH   5   6
ENDBRANCH   2   5
BRANCH   1  20
HETATM   20  C   UNL     1      41.594 -13.780   3.076  1.00  0.00     0.225 C 
BRANCH  20  21
HETATM   21  C   UNL     1      41.586 -15.299   3.292  1.00  0.00     0.239 C 
HETATM   22  N   UNL     1      42.856 -15.820   3.462  1.00  0.00    -0.323 N 
HETATM   23  H   UNL     1      43.632 -15.177   3.578  1.00  0.00     0.169 HD
HETATM   24  O   UNL     1      40.535 -15.919   3.427  1.00  0.00    -0.271 OA
BRANCH  22  25
HETATM   25  C   UNL     1      43.223 -17.174   3.620  1.00  0.00     0.069 A 
HETATM   26  C   UNL     1      43.185 -18.102   2.577  1.00  0.00     0.039 A 
HETATM   27  C   UNL     1      43.626 -19.417   2.777  1.00  0.00    -0.060 A 
HETATM   28  C   UNL     1      43.575 -20.408   1.652  1.00  0.00     0.048 C 
HETATM   29  C   UNL     1      44.071 -19.804   4.045  1.00  0.00     0.009 A 
HETATM   30  C   UNL     1      44.106 -18.885   5.097  1.00  0.00     0.039 A 
HETATM   31  C   UNL     1      43.687 -17.568   4.893  1.00  0.00     0.095 A 
BRANCH  31  32
HETATM   32  O   UNL     1      43.680 -16.584   5.856  1.00  0.00    -0.354 OA
HETATM   33  C   UNL     1      43.743 -17.015   7.210  1.00  0.00     0.210 C 
ENDBRANCH  31  32
ENDBRANCH  22  25
ENDBRANCH  20  21
ENDBRANCH   1  20
TORSDOF 9
ENDMDL
MODEL 7
REMARK VINA RESULT:      -8.0      3.366      8.764
REMARK  9 active torsions:
REMARK  status: ('A' for Active; 'I' for Inactive)
REMARK    1  A    between atoms: C_4  and  N_5 
REMARK       I    between atoms: N_5  and  C_6 
REMARK    2  A    between atoms: C_6  and  C_7 
REMARK    3  A    between atoms: C_7  and  N_8 
REMARK       I    between atoms: N_8  and  C_9 
REMARK    4  A    between atoms: C_9  and  C_10 
REMARK    5  A    between atoms: C_10  and  O_11 
REMARK    6  A    between atoms: O_11  and  C_12 
REMARK    7  A    between atoms: C_12  and  C_13 
REMARK    8  A    between atoms: C_17  and  C_18 
REMARK    9  A    between atoms: C_27  and  O_28 
ROOT
HETATM    1  N   UNL     1      40.398 -11.736   6.547  1.00  0.00    -0.350 N 
HETATM    2  C   UNL     1      39.498 -10.805   7.026  1.00  0.00     0.242 C 
HETATM    3  O   UNL     1      38.299 -11.028   7.159  1.00  0.00    -0.271 OA
HETATM    4  H   UNL     1      41.292 -11.366   6.226  1.00  0.00     0.163 HD
ENDROOT
BRANCH   2   5
HETATM    5  C   UNL     1      40.123  -9.455   7.388  1.00  0.00     0.281 C 
BRANCH   5   6
HETATM    6  O   UNL     1      40.414  -9.322   8.778  1.00  0.00    -0.308 OA
BRANCH   6   7
HETATM    7  C   UNL     1      41.598  -8.718   9.076  1.00  0.00     0.301 C 
HETATM    8  O   UNL     1      42.035  -7.749   8.460  1.00  0.00    -0.259 OA
BRANCH   7   9
HETATM    9  C   UNL     1      42.212  -9.360  10.222  1.00  0.00     0.091 A 
HETATM   10  S   UNL     1      41.393  -9.245  11.729  1.00  0.00    -0.095 SA
HETATM   11  C   UNL     1      42.537 -10.234  12.515  1.00  0.00     0.051 A 
HETATM   12  C   UNL     1      43.556 -10.608  11.670  1.00  0.00     0.021 A 
HETATM   13  C   UNL     1      43.391 -10.087  10.343  1.00  0.00    -0.002 A 
BRANCH  13  14
HETATM   14  C   UNL     1      44.346 -10.266   9.255  1.00  0.00    -0.024 A 
HETATM   15  C   UNL     1      45.469  -9.435   9.164  1.00  0.00     0.012 A 
HETATM   16  C   UNL     1      46.371  -9.583   8.108  1.00  0.00     0.001 A 
HETATM   17  C   UNL     1      46.154 -10.560   7.137  1.00  0.00     0.000 A 
HETATM   18  C   UNL     1      45.034 -11.387   7.216  1.00  0.00     0.001 A 
HETATM   19  C   UNL     1      44.128 -11.237   8.268  1.00  0.00     0.012 A 
ENDBRANCH  13  14
ENDBRANCH   7   9
ENDBRANCH   6   7
ENDBRANCH   5   6
ENDBRANCH   2   5
BRANCH   1  20
HETATM   20  C   UNL     1      39.935 -12.996   5.984  1.00  0.00     0.225 C 
BRANCH  20  21
HETATM   21  C   UNL     1      41.021 -13.674   5.139  1.00  0.00     0.239 C 
HETATM   22  N   UNL     1      40.724 -14.992   4.846  1.00  0.00    -0.323 N 
HETATM   23  H   UNL     1      39.797 -15.341   5.068  1.00  0.00     0.169 HD
HETATM   24  O   UNL     1      41.966 -13.036   4.684  1.00  0.00    -0.271 OA
BRANCH  22  25
HETATM   25  C   UNL     1      41.520 -15.927   4.148  1.00  0.00     0.069 A 
HETATM   26  C   UNL     1      42.584 -16.613   4.738  1.00  0.00     0.039 A 
HETATM   27  C   UNL     1      43.297 -17.579   4.014  1.00  0.00    -0.060 A 
HETATM   28  C   UNL     1      44.443 -18.306   4.654  1.00  0.00     0.048 C 
HETATM   29  C   UNL     1      42.956 -17.823   2.680  1.00  0.00     0.009 A 
HETATM   30  C   UNL     1      41.897 -17.136   2.080  1.00  0.00     0.039 A 
HETATM   31  C   UNL     1      41.173 -16.189   2.806  1.00  0.00     0.095 A 
BRANCH  31  32
HETATM   32  O   UNL     1      40.114 -15.458   2.315  1.00  0.00    -0.354 OA
HETATM   33  C   UNL     1      40.088 -15.237   0.910  1.00  0.00     0.210 C 
ENDBRANCH  31  32
ENDBRANCH  22  25
ENDBRANCH  20  21
ENDBRANCH   1  20
TORSDOF 9
ENDMDL
MODEL 8
REMARK VINA RESULT:      -7.8      2.616      4.675
REMARK  9 active torsions:
REMARK  status: ('A' for Active; 'I' for Inactive)
REMARK    1  A    between atoms: C_4  and  N_5 
REMARK       I    between atoms: N_5  and  C_6 
REMARK    2  A    between atoms: C_6  and  C_7 
REMARK    3  A    between atoms: C_7  and  N_8 
REMARK       I    between atoms: N_8  and  C_9 
REMARK    4  A    between atoms: C_9  and  C_10 
REMARK    5  A    between atoms: C_10  and  O_11 
REMARK    6  A    between atoms: O_11  and  C_12 
REMARK    7  A    between atoms: C_12  and  C_13 
REMARK    8  A    between atoms: C_17  and  C_18 
REMARK    9  A    between atoms: C_27  and  O_28 
ROOT
HETATM    1  N   UNL     1      44.990 -11.592   7.231  1.00  0.00    -0.350 N 
HETATM    2  C   UNL     1      44.493 -11.801   5.961  1.00  0.00     0.242 C 
HETATM    3  O   UNL     1      44.868 -11.176   4.974  1.00  0.00    -0.271 OA
HETATM    4  H   UNL     1      44.426 -11.962   7.996  1.00  0.00     0.163 HD
ENDROOT
BRANCH   2   5
HETATM    5  C   UNL     1      43.425 -12.894   5.875  1.00  0.00     0.281 C 
BRANCH   5   6
HETATM    6  O   UNL     1      42.593 -12.783   4.723  1.00  0.00    -0.308 OA
BRANCH   6   7
HETATM    7  C   UNL     1      41.298 -13.172   4.891  1.00  0.00     0.301 C 
HETATM    8  O   UNL     1      40.568 -12.723   5.771  1.00  0.00    -0.259 OA
BRANCH   7   9
HETATM    9  C   UNL     1      40.929 -14.136   3.873  1.00  0.00     0.091 A 
HETATM   10  S   UNL     1      39.803 -13.631   2.675  1.00  0.00    -0.095 SA
HETATM   11  C   UNL     1      39.920 -15.107   1.831  1.00  0.00     0.051 A 
HETATM   12  C   UNL     1      40.756 -15.995   2.467  1.00  0.00     0.021 A 
HETATM   13  C   UNL     1      41.329 -15.451   3.666  1.00  0.00    -0.002 A 
BRANCH  13  14
HETATM   14  C   UNL     1      42.201 -16.184   4.578  1.00  0.00    -0.024 A 
HETATM   15  C   UNL     1      43.419 -16.699   4.120  1.00  0.00     0.012 A 
HETATM   16  C   UNL     1      44.244 -17.426   4.982  1.00  0.00     0.001 A 
HETATM   17  C   UNL     1      43.855 -17.643   6.302  1.00  0.00     0.000 A 
HETATM   18  C   UNL     1      42.640 -17.139   6.765  1.00  0.00     0.001 A 
HETATM   19  C   UNL     1      41.811 -16.417   5.904  1.00  0.00     0.012 A 
ENDBRANCH  13  14
ENDBRANCH   7   9
ENDBRANCH   6   7
ENDBRANCH   5   6
ENDBRANCH   2   5
BRANCH   1  20
HETATM   20  C   UNL     1      45.868 -10.465   7.509  1.00  0.00     0.225 C 
BRANCH  20  21
HETATM   21  C   UNL     1      45.172  -9.401   8.368  1.00  0.00     0.239 C 
HETATM   22  N   UNL     1      44.242  -9.941   9.236  1.00  0.00    -0.323 N 
HETATM   23  H   UNL     1      44.205 -10.950   9.341  1.00  0.00     0.169 HD
HETATM   24  O   UNL     1      45.533  -8.227   8.346  1.00  0.00    -0.271 OA
BRANCH  22  25
HETATM   25  C   UNL     1      43.380  -9.256  10.120  1.00  0.00     0.069 A 
HETATM   26  C   UNL     1      43.784  -8.795  11.376  1.00  0.00     0.039 A 
HETATM   27  C   UNL     1      42.903  -8.062  12.182  1.00  0.00    -0.060 A 
HETATM   28  C   UNL     1      43.343  -7.577  13.532  1.00  0.00     0.048 C 
HETATM   29  C   UNL     1      41.599  -7.829  11.734  1.00  0.00     0.009 A 
HETATM   30  C   UNL     1      41.184  -8.293  10.484  1.00  0.00     0.039 A 
HETATM   31  C   UNL     1      42.067  -9.004   9.670  1.00  0.00     0.095 A 
BRANCH  31  32
HETATM   32  O   UNL     1      41.763  -9.505   8.423  1.00  0.00    -0.354 OA
HETATM   33  C   UNL     1      40.686  -8.886   7.731  1.00  0.00     0.210 C 
ENDBRANCH  31  32
ENDBRANCH  22  25
ENDBRANCH  20  21
ENDBRANCH   1  20
TORSDOF 9
ENDMDL
MODEL 9
REMARK VINA RESULT:      -7.8      3.568      9.382
REMARK  9 active torsions:
REMARK  status: ('A' for Active; 'I' for Inactive)
REMARK    1  A    between atoms: C_4  and  N_5 
REMARK       I    between atoms: N_5  and  C_6 
REMARK    2  A    between atoms: C_6  and  C_7 
REMARK    3  A    between atoms: C_7  and  N_8 
REMARK       I    between atoms: N_8  and  C_9 
REMARK    4  A    between atoms: C_9  and  C_10 
REMARK    5  A    between atoms: C_10  and  O_11 
REMARK    6  A    between atoms: O_11  and  C_12 
REMARK    7  A    between atoms: C_12  and  C_13 
REMARK    8  A    between atoms: C_17  and  C_18 
REMARK    9  A    between atoms: C_27  and  O_28 
ROOT
HETATM    1  N   UNL     1      39.849 -11.867   6.823  1.00  0.00    -0.350 N 
HETATM    2  C   UNL     1      39.154 -10.680   6.933  1.00  0.00     0.242 C 
HETATM    3  O   UNL     1      38.170 -10.405   6.255  1.00  0.00    -0.271 OA
HETATM    4  H   UNL     1      40.785 -11.873   7.227  1.00  0.00     0.163 HD
ENDROOT
BRANCH   2   5
HETATM    5  C   UNL     1      39.712  -9.720   7.988  1.00  0.00     0.281 C 
BRANCH   5   6
HETATM    6  O   UNL     1      41.136  -9.674   8.013  1.00  0.00    -0.308 OA
BRANCH   6   7
HETATM    7  C   UNL     1      41.685  -8.952   9.029  1.00  0.00     0.301 C 
HETATM    8  O   UNL     1      41.096  -8.036   9.600  1.00  0.00    -0.259 OA
BRANCH   7   9
HETATM    9  C   UNL     1      43.010  -9.449   9.339  1.00  0.00     0.091 A 
HETATM   10  S   UNL     1      43.945 -10.078   8.041  1.00  0.00    -0.095 SA
HETATM   11  C   UNL     1      45.298 -10.347   9.041  1.00  0.00     0.051 A 
HETATM   12  C   UNL     1      45.039 -10.017  10.351  1.00  0.00     0.021 A 
HETATM   13  C   UNL     1      43.707  -9.517  10.541  1.00  0.00    -0.002 A 
BRANCH  13  14
HETATM   14  C   UNL     1      43.132  -9.150  11.831  1.00  0.00    -0.024 A 
HETATM   15  C   UNL     1      43.555  -7.983  12.479  1.00  0.00     0.012 A 
HETATM   16  C   UNL     1      43.028  -7.642  13.727  1.00  0.00     0.001 A 
HETATM   17  C   UNL     1      42.080  -8.464  14.333  1.00  0.00     0.000 A 
HETATM   18  C   UNL     1      41.660  -9.632  13.698  1.00  0.00     0.001 A 
HETATM   19  C   UNL     1      42.188  -9.978  12.452  1.00  0.00     0.012 A 
ENDBRANCH  13  14
ENDBRANCH   7   9
ENDBRANCH   6   7
ENDBRANCH   5   6
ENDBRANCH   2   5
BRANCH   1  20
HETATM   20  C   UNL     1      39.562 -12.799   5.743  1.00  0.00     0.225 C 
BRANCH  20  21
HETATM   21  C   UNL     1      40.845 -13.391   5.146  1.00  0.00     0.239 C 
HETATM   22  N   UNL     1      40.605 -14.501   4.358  1.00  0.00    -0.323 N 
HETATM   23  H   UNL     1      39.644 -14.731   4.125  1.00  0.00     0.169 HD
HETATM   24  O   UNL     1      41.928 -12.825   5.273  1.00  0.00    -0.271 OA
BRANCH  22  25
HETATM   25  C   UNL     1      41.549 -15.326   3.709  1.00  0.00     0.069 A 
HETATM   26  C   UNL     1      42.331 -16.268   4.383  1.00  0.00     0.039 A 
HETATM   27  C   UNL     1      43.204 -17.105   3.677  1.00  0.00    -0.060 A 
HETATM   28  C   UNL     1      44.044 -18.108   4.410  1.00  0.00     0.048 C 
HETATM   29  C   UNL     1      43.315 -16.964   2.290  1.00  0.00     0.009 A 
HETATM   30  C   UNL     1      42.543 -16.020   1.608  1.00  0.00     0.039 A 
HETATM   31  C   UNL     1      41.657 -15.199   2.308  1.00  0.00     0.095 A 
BRANCH  31  32
HETATM   32  O   UNL     1      40.850 -14.240   1.737  1.00  0.00    -0.354 OA
HETATM   33  C   UNL     1      40.166 -14.607   0.546  1.00  0.00     0.210 C 
ENDBRANCH  31  32
ENDBRANCH  22  25
ENDBRANCH  20  21
ENDBRANCH   1  20
TORSDOF 9
ENDMDL
MODEL 10
REMARK VINA RESULT:      -7.7      2.272      3.141
REMARK  9 active torsions:
REMARK  status: ('A' for Active; 'I' for Inactive)
REMARK    1  A    between atoms: C_4  and  N_5 
REMARK       I    between atoms: N_5  and  C_6 
REMARK    2  A    between atoms: C_6  and  C_7 
REMARK    3  A    between atoms: C_7  and  N_8 
REMARK       I    between atoms: N_8  and  C_9 
REMARK    4  A    between atoms: C_9  and  C_10 
REMARK    5  A    between atoms: C_10  and  O_11 
REMARK    6  A    between atoms: O_11  and  C_12 
REMARK    7  A    between atoms: C_12  and  C_13 
REMARK    8  A    between atoms: C_17  and  C_18 
REMARK    9  A    between atoms: C_27  and  O_28 
ROOT
HETATM    1  N   UNL     1      40.208 -10.393   5.633  1.00  0.00    -0.350 N 
HETATM    2  C   UNL     1      39.492 -11.520   5.982  1.00  0.00     0.242 C 
HETATM    3  O   UNL     1      38.543 -11.507   6.759  1.00  0.00    -0.271 OA
HETATM    4  H   UNL     1      41.120 -10.559   5.209  1.00  0.00     0.163 HD
ENDROOT
BRANCH   2   5
HETATM    5  C   UNL     1      39.978 -12.807   5.309  1.00  0.00     0.281 C 
BRANCH   5   6
HETATM    6  O   UNL     1      41.098 -13.398   5.963  1.00  0.00    -0.308 OA
BRANCH   6   7
HETATM    7  C   UNL     1      40.920 -14.677   6.397  1.00  0.00     0.301 C 
HETATM    8  O   UNL     1      39.838 -15.113   6.783  1.00  0.00    -0.259 OA
BRANCH   7   9
HETATM    9  C   UNL     1      42.161 -15.419   6.295  1.00  0.00     0.091 A 
HETATM   10  S   UNL     1      42.998 -15.769   7.755  1.00  0.00    -0.095 SA
HETATM   11  C   UNL     1      44.193 -16.675   6.944  1.00  0.00     0.051 A 
HETATM   12  C   UNL     1      43.998 -16.675   5.583  1.00  0.00     0.021 A 
HETATM   13  C   UNL     1      42.836 -15.930   5.191  1.00  0.00    -0.002 A 
BRANCH  13  14
HETATM   14  C   UNL     1      42.418 -15.703   3.812  1.00  0.00    -0.024 A 
HETATM   15  C   UNL     1      43.089 -14.763   3.022  1.00  0.00     0.012 A 
HETATM   16  C   UNL     1      42.675 -14.522   1.710  1.00  0.00     0.001 A 
HETATM   17  C   UNL     1      41.588 -15.216   1.183  1.00  0.00     0.000 A 
HETATM   18  C   UNL     1      40.909 -16.149   1.965  1.00  0.00     0.001 A 
HETATM   19  C   UNL     1      41.318 -16.389   3.279  1.00  0.00     0.012 A 
ENDBRANCH  13  14
ENDBRANCH   7   9
ENDBRANCH   6   7
ENDBRANCH   5   6
ENDBRANCH   2   5
BRANCH   1  20
HETATM   20  C   UNL     1      39.993  -9.132   6.327  1.00  0.00     0.225 C 
BRANCH  20  21
HETATM   21  C   UNL     1      41.230  -8.706   7.128  1.00  0.00     0.239 C 
HETATM   22  N   UNL     1      41.639  -9.670   8.031  1.00  0.00    -0.323 N 
HETATM   23  H   UNL     1      41.209 -10.588   7.986  1.00  0.00     0.169 HD
HETATM   24  O   UNL     1      41.835  -7.670   6.865  1.00  0.00    -0.271 OA
BRANCH  22  25
HETATM   25  C   UNL     1      42.693  -9.591   8.966  1.00  0.00     0.069 A 
HETATM   26  C   UNL     1      42.571  -8.952  10.202  1.00  0.00     0.039 A 
HETATM   27  C   UNL     1      43.631  -8.963  11.118  1.00  0.00    -0.060 A 
HETATM   28  C   UNL     1      43.492  -8.267  12.440  1.00  0.00     0.048 C 
HETATM   29  C   UNL     1      44.831  -9.590  10.768  1.00  0.00     0.009 A 
HETATM   30  C   UNL     1      44.965 -10.226   9.531  1.00  0.00     0.039 A 
HETATM   31  C   UNL     1      43.902 -10.234   8.626  1.00  0.00     0.095 A 
BRANCH  31  32
HETATM   32  O   UNL     1      43.927 -10.830   7.385  1.00  0.00    -0.354 OA
HETATM   33  C   UNL     1      45.159 -11.414   6.980  1.00  0.00     0.210 C 
ENDBRANCH  31  32
ENDBRANCH  22  25
ENDBRANCH  20  21
ENDBRANCH   1  20
TORSDOF 9
ENDMDL
