MODEL 1
REMARK VINA RESULT:      -9.1      0.000      0.000
REMARK  5 active torsions:
REMARK  status: ('A' for Active; 'I' for Inactive)
REMARK    1  A    between atoms: C_3  and  C_4 
REMARK    2  A    between atoms: C_8  and  C_9 
REMARK       I    between atoms: C_9  and  N_10 
REMARK    3  A    between atoms: N_10  and  C_11 
REMARK    4  A    between atoms: C_11  and  C_12 
REMARK    5  A    between atoms: C_24  and  O_25 
ROOT
HETATM    1  C   UNL     1      41.682 -15.829   4.603  1.00  0.00     0.270 C 
HETATM    2  N   UNL     1      43.061 -15.799   4.674  1.00  0.00    -0.342 N 
HETATM    3  O   UNL     1      40.981 -16.454   5.392  1.00  0.00    -0.266 OA
HETATM    4  H   UNL     1      43.568 -15.304   3.954  1.00  0.00     0.164 HD
ENDROOT
BRANCH   1   5
HETATM    5  C   UNL     1      41.112 -15.117   3.491  1.00  0.00     0.120 A 
HETATM    6  N   UNL     1      39.812 -14.698   3.507  1.00  0.00    -0.272 N 
HETATM    7  N   UNL     1      39.391 -14.160   2.351  1.00  0.00    -0.174 NA
HETATM    8  H   UNL     1      39.154 -14.799   4.276  1.00  0.00     0.189 HD
HETATM    9  C   UNL     1      40.473 -14.195   1.549  1.00  0.00     0.092 A 
HETATM   10  C   UNL     1      41.580 -14.761   2.241  1.00  0.00     0.071 A 
BRANCH   9  11
HETATM   11  C   UNL     1      40.399 -13.752   0.149  1.00  0.00     0.028 A 
HETATM   12  C   UNL     1      41.034 -12.567  -0.258  1.00  0.00     0.017 A 
HETATM   13  C   UNL     1      41.013 -12.166  -1.598  1.00  0.00     0.001 A 
HETATM   14  C   UNL     1      40.360 -12.944  -2.552  1.00  0.00     0.003 A 
HETATM   15  C   UNL     1      39.716 -14.116  -2.167  1.00  0.00     0.037 A 
HETATM   16  C   UNL     1      39.732 -14.510  -0.830  1.00  0.00     0.078 A 
BRANCH  16  17
HETATM   17  O   UNL     1      39.067 -15.675  -0.539  1.00  0.00    -0.360 OA
HETATM   18  H   UNL     1      38.996 -16.168  -1.389  1.00  0.00     0.217 HD
ENDBRANCH  16  17
ENDBRANCH   9  11
ENDBRANCH   1   5
BRANCH   2  19
HETATM   19  C   UNL     1      43.810 -16.802   5.385  1.00  0.00     0.064 A 
HETATM   20  C   UNL     1      45.049 -16.360   6.145  1.00  0.00     0.039 A 
HETATM   21  C   UNL     1      43.840 -16.806   6.900  1.00  0.00     0.039 A 
BRANCH  19  22
HETATM   22  C   UNL     1      43.853 -18.124   4.635  1.00  0.00     0.011 A 
HETATM   23  C   UNL     1      43.858 -18.177   3.230  1.00  0.00     0.125 A 
HETATM   24  F   UNL     1      43.861 -17.033   2.528  1.00  0.00    -0.205 F 
HETATM   25  C   UNL     1      43.828 -19.383   2.528  1.00  0.00     0.046 A 
HETATM   26  C   UNL     1      43.783 -20.583   3.230  1.00  0.00     0.045 A 
HETATM   27  C   UNL     1      43.770 -20.557   4.619  1.00  0.00     0.117 A 
HETATM   28  F   UNL     1      43.709 -21.711   5.297  1.00  0.00    -0.206 F 
HETATM   29  C   UNL     1      43.804 -19.352   5.317  1.00  0.00     0.055 A 
ENDBRANCH  19  22
ENDBRANCH   2  19
TORSDOF 5
ENDMDL
MODEL 2
REMARK VINA RESULT:      -8.8      1.424      1.692
REMARK  5 active torsions:
REMARK  status: ('A' for Active; 'I' for Inactive)
REMARK    1  A    between atoms: C_3  and  C_4 
REMARK    2  A    between atoms: C_8  and  C_9 
REMARK       I    between atoms: C_9  and  N_10 
REMARK    3  A    between atoms: N_10  and  C_11 
REMARK    4  A    between atoms: C_11  and  C_12 
REMARK    5  A    between atoms: C_24  and  O_25 
ROOT
HETATM    1  C   UNL     1      41.754 -15.859   3.884  1.00  0.00     0.270 C 
HETATM    2  N   UNL     1      43.099 -15.884   4.195  1.00  0.00    -0.342 N 
HETATM    3  O   UNL     1      40.892 -16.388   4.579  1.00  0.00    -0.266 OA
HETATM    4  H   UNL     1      43.751 -15.470   3.543  1.00  0.00     0.164 HD
ENDROOT
BRANCH   1   5
HETATM    5  C   UNL     1      41.426 -15.212   2.642  1.00  0.00     0.120 A 
HETATM    6  N   UNL     1      42.123 -14.121   2.204  1.00  0.00    -0.272 N 
HETATM    7  N   UNL     1      41.620 -13.555   1.094  1.00  0.00    -0.174 NA
HETATM    8  H   UNL     1      42.928 -13.696   2.658  1.00  0.00     0.189 HD
HETATM    9  C   UNL     1      40.567 -14.328   0.768  1.00  0.00     0.092 A 
HETATM   10  C   UNL     1      40.433 -15.396   1.700  1.00  0.00     0.071 A 
BRANCH   9  11
HETATM   11  C   UNL     1      39.698 -13.993  -0.368  1.00  0.00     0.028 A 
HETATM   12  C   UNL     1      39.480 -14.922  -1.398  1.00  0.00     0.017 A 
HETATM   13  C   UNL     1      38.612 -14.630  -2.456  1.00  0.00     0.001 A 
HETATM   14  C   UNL     1      37.947 -13.407  -2.500  1.00  0.00     0.003 A 
HETATM   15  C   UNL     1      38.157 -12.468  -1.494  1.00  0.00     0.037 A 
HETATM   16  C   UNL     1      39.028 -12.757  -0.445  1.00  0.00     0.078 A 
BRANCH  16  17
HETATM   17  O   UNL     1      39.180 -11.773   0.500  1.00  0.00    -0.360 OA
HETATM   18  H   UNL     1      39.700 -12.176   1.233  1.00  0.00     0.217 HD
ENDBRANCH  16  17
ENDBRANCH   9  11
ENDBRANCH   1   5
BRANCH   2  19
HETATM   19  C   UNL     1      43.656 -16.860   5.096  1.00  0.00     0.064 A 
HETATM   20  C   UNL     1      44.753 -16.409   6.045  1.00  0.00     0.039 A 
HETATM   21  C   UNL     1      43.405 -16.758   6.586  1.00  0.00     0.039 A 
BRANCH  19  22
HETATM   22  C   UNL     1      43.774 -18.232   4.451  1.00  0.00     0.011 A 
HETATM   23  C   UNL     1      43.867 -18.389   3.057  1.00  0.00     0.125 A 
HETATM   24  F   UNL     1      43.885 -17.300   2.271  1.00  0.00    -0.205 F 
HETATM   25  C   UNL     1      43.906 -19.644   2.447  1.00  0.00     0.046 A 
HETATM   26  C   UNL     1      43.846 -20.789   3.234  1.00  0.00     0.045 A 
HETATM   27  C   UNL     1      43.748 -20.661   4.614  1.00  0.00     0.117 A 
HETATM   28  F   UNL     1      43.672 -21.763   5.372  1.00  0.00    -0.206 F 
HETATM   29  C   UNL     1      43.712 -19.407   5.220  1.00  0.00     0.055 A 
ENDBRANCH  19  22
ENDBRANCH   2  19
TORSDOF 5
ENDMDL
MODEL 3
REMARK VINA RESULT:      -8.7      4.222      6.714
REMARK  5 active torsions:
REMARK  status: ('A' for Active; 'I' for Inactive)
REMARK    1  A    between atoms: C_3  and  C_4 
REMARK    2  A    between atoms: C_8  and  C_9 
REMARK       I    between atoms: C_9  and  N_10 
REMARK    3  A    between atoms: N_10  and  C_11 
REMARK    4  A    between atoms: C_11  and  C_12 
REMARK    5  A    between atoms: C_24  and  O_25 
ROOT
HETATM    1  C   UNL     1      42.700 -13.780   2.887  1.00  0.00     0.270 C 
HETATM    2  N   UNL     1      41.613 -14.471   3.385  1.00  0.00    -0.342 N 
HETATM    3  O   UNL     1      43.195 -14.005   1.787  1.00  0.00    -0.266 OA
HETATM    4  H   UNL     1      41.299 -14.262   4.322  1.00  0.00     0.164 HD
ENDROOT
BRANCH   1   5
HETATM    5  C   UNL     1      43.261 -12.800   3.779  1.00  0.00     0.120 A 
HETATM    6  N   UNL     1      44.241 -11.942   3.365  1.00  0.00    -0.272 N 
HETATM    7  N   UNL     1      44.750 -11.174   4.342  1.00  0.00    -0.174 NA
HETATM    8  H   UNL     1      44.629 -11.875   2.427  1.00  0.00     0.189 HD
HETATM    9  C   UNL     1      44.050 -11.517   5.440  1.00  0.00     0.092 A 
HETATM   10  C   UNL     1      43.086 -12.514   5.118  1.00  0.00     0.071 A 
BRANCH   9  11
HETATM   11  C   UNL     1      44.362 -10.938   6.755  1.00  0.00     0.028 A 
HETATM   12  C   UNL     1      43.331 -10.558   7.629  1.00  0.00     0.017 A 
HETATM   13  C   UNL     1      43.619 -10.055   8.903  1.00  0.00     0.001 A 
HETATM   14  C   UNL     1      44.941  -9.927   9.323  1.00  0.00     0.003 A 
HETATM   15  C   UNL     1      45.978 -10.289   8.467  1.00  0.00     0.037 A 
HETATM   16  C   UNL     1      45.689 -10.783   7.196  1.00  0.00     0.078 A 
BRANCH  16  17
HETATM   17  O   UNL     1      46.771 -11.109   6.417  1.00  0.00    -0.360 OA
HETATM   18  H   UNL     1      46.897 -10.355   5.796  1.00  0.00     0.217 HD
ENDBRANCH  16  17
ENDBRANCH   9  11
ENDBRANCH   1   5
BRANCH   2  19
HETATM   19  C   UNL     1      41.234 -15.764   2.876  1.00  0.00     0.064 A 
HETATM   20  C   UNL     1      39.753 -16.091   2.798  1.00  0.00     0.039 A 
HETATM   21  C   UNL     1      40.531 -15.885   1.540  1.00  0.00     0.039 A 
BRANCH  19  22
HETATM   22  C   UNL     1      42.196 -16.857   3.315  1.00  0.00     0.011 A 
HETATM   23  C   UNL     1      42.720 -16.901   4.619  1.00  0.00     0.125 A 
HETATM   24  F   UNL     1      42.339 -15.976   5.514  1.00  0.00    -0.205 F 
HETATM   25  C   UNL     1      43.656 -17.858   5.016  1.00  0.00     0.046 A 
HETATM   26  C   UNL     1      44.101 -18.803   4.097  1.00  0.00     0.045 A 
HETATM   27  C   UNL     1      43.603 -18.777   2.801  1.00  0.00     0.117 A 
HETATM   28  F   UNL     1      44.042 -19.675   1.910  1.00  0.00    -0.206 F 
HETATM   29  C   UNL     1      42.666 -17.823   2.408  1.00  0.00     0.055 A 
ENDBRANCH  19  22
ENDBRANCH   2  19
TORSDOF 5
ENDMDL
MODEL 4
REMARK VINA RESULT:      -8.5      4.440      6.915
REMARK  5 active torsions:
REMARK  status: ('A' for Active; 'I' for Inactive)
REMARK    1  A    between atoms: C_3  and  C_4 
REMARK    2  A    between atoms: C_8  and  C_9 
REMARK       I    between atoms: C_9  and  N_10 
REMARK    3  A    between atoms: N_10  and  C_11 
REMARK    4  A    between atoms: C_11  and  C_12 
REMARK    5  A    between atoms: C_24  and  O_25 
ROOT
HETATM    1  C   UNL     1      42.573 -13.393   3.465  1.00  0.00     0.270 C 
HETATM    2  N   UNL     1      41.400 -14.116   3.551  1.00  0.00    -0.342 N 
HETATM    3  O   UNL     1      43.410 -13.569   2.585  1.00  0.00    -0.266 OA
HETATM    4  H   UNL     1      40.788 -13.947   4.337  1.00  0.00     0.164 HD
ENDROOT
BRANCH   1   5
HETATM    5  C   UNL     1      42.783 -12.441   4.523  1.00  0.00     0.120 A 
HETATM    6  N   UNL     1      42.117 -11.249   4.548  1.00  0.00    -0.272 N 
HETATM    7  N   UNL     1      42.511 -10.417   5.527  1.00  0.00    -0.174 NA
HETATM    8  H   UNL     1      41.410 -10.937   3.886  1.00  0.00     0.189 HD
HETATM    9  C   UNL     1      43.453 -11.107   6.196  1.00  0.00     0.092 A 
HETATM   10  C   UNL     1      43.629 -12.394   5.614  1.00  0.00     0.071 A 
BRANCH   9  11
HETATM   11  C   UNL     1      44.190 -10.503   7.315  1.00  0.00     0.028 A 
HETATM   12  C   UNL     1      45.591 -10.411   7.280  1.00  0.00     0.017 A 
HETATM   13  C   UNL     1      46.296  -9.789   8.316  1.00  0.00     0.001 A 
HETATM   14  C   UNL     1      45.612  -9.248   9.402  1.00  0.00     0.003 A 
HETATM   15  C   UNL     1      44.224  -9.338   9.462  1.00  0.00     0.037 A 
HETATM   16  C   UNL     1      43.524  -9.964   8.432  1.00  0.00     0.078 A 
BRANCH  16  17
HETATM   17  O   UNL     1      42.160 -10.013   8.574  1.00  0.00    -0.360 OA
HETATM   18  H   UNL     1      41.993 -10.335   9.491  1.00  0.00     0.217 HD
ENDBRANCH  16  17
ENDBRANCH   9  11
ENDBRANCH   1   5
BRANCH   2  19
HETATM   19  C   UNL     1      41.243 -15.393   2.904  1.00  0.00     0.064 A 
HETATM   20  C   UNL     1      39.855 -15.782   2.426  1.00  0.00     0.039 A 
HETATM   21  C   UNL     1      40.919 -15.468   1.426  1.00  0.00     0.039 A 
BRANCH  19  22
HETATM   22  C   UNL     1      42.121 -16.465   3.530  1.00  0.00     0.011 A 
HETATM   23  C   UNL     1      42.188 -16.646   4.923  1.00  0.00     0.125 A 
HETATM   24  F   UNL     1      41.432 -15.877   5.724  1.00  0.00    -0.205 F 
HETATM   25  C   UNL     1      43.040 -17.579   5.515  1.00  0.00     0.046 A 
HETATM   26  C   UNL     1      43.865 -18.360   4.712  1.00  0.00     0.045 A 
HETATM   27  C   UNL     1      43.822 -18.196   3.333  1.00  0.00     0.117 A 
HETATM   28  F   UNL     1      44.627 -18.934   2.558  1.00  0.00    -0.206 F 
HETATM   29  C   UNL     1      42.968 -17.266   2.744  1.00  0.00     0.055 A 
ENDBRANCH  19  22
ENDBRANCH   2  19
TORSDOF 5
ENDMDL
MODEL 5
REMARK VINA RESULT:      -8.4      3.221      7.674
REMARK  5 active torsions:
REMARK  status: ('A' for Active; 'I' for Inactive)
REMARK    1  A    between atoms: C_3  and  C_4 
REMARK    2  A    between atoms: C_8  and  C_9 
REMARK       I    between atoms: C_9  and  N_10 
REMARK    3  A    between atoms: N_10  and  C_11 
REMARK    4  A    between atoms: C_11  and  C_12 
REMARK    5  A    between atoms: C_24  and  O_25 
ROOT
HETATM    1  C   UNL     1      41.705 -13.322   2.367  1.00  0.00     0.270 C 
HETATM    2  N   UNL     1      40.346 -13.273   2.130  1.00  0.00    -0.342 N 
HETATM    3  O   UNL     1      42.470 -12.401   2.097  1.00  0.00    -0.266 OA
HETATM    4  H   UNL     1      39.794 -14.095   2.332  1.00  0.00     0.164 HD
ENDROOT
BRANCH   1   5
HETATM    5  C   UNL     1      42.187 -14.565   2.908  1.00  0.00     0.120 A 
HETATM    6  N   UNL     1      42.995 -14.595   4.009  1.00  0.00    -0.272 N 
HETATM    7  N   UNL     1      43.462 -15.816   4.317  1.00  0.00    -0.174 NA
HETATM    8  H   UNL     1      43.294 -13.795   4.561  1.00  0.00     0.189 HD
HETATM    9  C   UNL     1      42.909 -16.631   3.398  1.00  0.00     0.092 A 
HETATM   10  C   UNL     1      42.078 -15.885   2.516  1.00  0.00     0.071 A 
BRANCH   9  11
HETATM   11  C   UNL     1      43.236 -18.063   3.354  1.00  0.00     0.028 A 
HETATM   12  C   UNL     1      43.004 -18.812   2.189  1.00  0.00     0.017 A 
HETATM   13  C   UNL     1      43.361 -20.163   2.121  1.00  0.00     0.001 A 
HETATM   14  C   UNL     1      43.958 -20.785   3.214  1.00  0.00     0.003 A 
HETATM   15  C   UNL     1      44.188 -20.063   4.383  1.00  0.00     0.037 A 
HETATM   16  C   UNL     1      43.824 -18.719   4.451  1.00  0.00     0.078 A 
BRANCH  16  17
HETATM   17  O   UNL     1      44.082 -18.087   5.642  1.00  0.00    -0.360 OA
HETATM   18  H   UNL     1      43.759 -17.162   5.534  1.00  0.00     0.217 HD
ENDBRANCH  16  17
ENDBRANCH   9  11
ENDBRANCH   1   5
BRANCH   2  19
HETATM   19  C   UNL     1      39.770 -12.353   1.185  1.00  0.00     0.064 A 
HETATM   20  C   UNL     1      38.397 -11.781   1.494  1.00  0.00     0.039 A 
HETATM   21  C   UNL     1      39.596 -10.891   1.545  1.00  0.00     0.039 A 
BRANCH  19  22
HETATM   22  C   UNL     1      40.089 -12.733  -0.253  1.00  0.00     0.011 A 
HETATM   23  C   UNL     1      40.939 -11.950  -1.053  1.00  0.00     0.125 A 
HETATM   24  F   UNL     1      41.514 -10.855  -0.529  1.00  0.00    -0.205 F 
HETATM   25  C   UNL     1      41.187 -12.248  -2.394  1.00  0.00     0.046 A 
HETATM   26  C   UNL     1      40.573 -13.353  -2.975  1.00  0.00     0.045 A 
HETATM   27  C   UNL     1      39.723 -14.139  -2.207  1.00  0.00     0.117 A 
HETATM   28  F   UNL     1      39.117 -15.193  -2.768  1.00  0.00    -0.206 F 
HETATM   29  C   UNL     1      39.480 -13.841  -0.868  1.00  0.00     0.055 A 
ENDBRANCH  19  22
ENDBRANCH   2  19
TORSDOF 5
ENDMDL
MODEL 6
REMARK VINA RESULT:      -8.4      6.088      9.048
REMARK  5 active torsions:
REMARK  status: ('A' for Active; 'I' for Inactive)
REMARK    1  A    between atoms: C_3  and  C_4 
REMARK    2  A    between atoms: C_8  and  C_9 
REMARK       I    between atoms: C_9  and  N_10 
REMARK    3  A    between atoms: N_10  and  C_11 
REMARK    4  A    between atoms: C_11  and  C_12 
REMARK    5  A    between atoms: C_24  and  O_25 
ROOT
HETATM    1  C   UNL     1      43.767 -11.208   5.747  1.00  0.00     0.270 C 
HETATM    2  N   UNL     1      42.452 -11.485   5.432  1.00  0.00    -0.342 N 
HETATM    3  O   UNL     1      44.693 -11.342   4.952  1.00  0.00    -0.266 OA
HETATM    4  H   UNL     1      41.756 -11.400   6.159  1.00  0.00     0.164 HD
ENDROOT
BRANCH   1   5
HETATM    5  C   UNL     1      43.997 -10.800   7.107  1.00  0.00     0.120 A 
HETATM    6  N   UNL     1      45.116 -11.192   7.786  1.00  0.00    -0.272 N 
HETATM    7  N   UNL     1      45.127 -10.837   9.082  1.00  0.00    -0.174 NA
HETATM    8  H   UNL     1      45.885 -11.746   7.416  1.00  0.00     0.189 HD
HETATM    9  C   UNL     1      43.981 -10.152   9.253  1.00  0.00     0.092 A 
HETATM   10  C   UNL     1      43.260 -10.082   8.028  1.00  0.00     0.071 A 
BRANCH   9  11
HETATM   11  C   UNL     1      43.586  -9.647  10.576  1.00  0.00     0.028 A 
HETATM   12  C   UNL     1      43.319  -8.281  10.767  1.00  0.00     0.017 A 
HETATM   13  C   UNL     1      42.891  -7.801  12.010  1.00  0.00     0.001 A 
HETATM   14  C   UNL     1      42.721  -8.677  13.079  1.00  0.00     0.003 A 
HETATM   15  C   UNL     1      42.990 -10.034  12.913  1.00  0.00     0.037 A 
HETATM   16  C   UNL     1      43.423 -10.509  11.676  1.00  0.00     0.078 A 
BRANCH  16  17
HETATM   17  O   UNL     1      43.670 -11.857  11.603  1.00  0.00    -0.360 OA
HETATM   18  H   UNL     1      42.985 -12.290  12.162  1.00  0.00     0.217 HD
ENDBRANCH  16  17
ENDBRANCH   9  11
ENDBRANCH   1   5
BRANCH   2  19
HETATM   19  C   UNL     1      42.095 -12.336   4.326  1.00  0.00     0.064 A 
HETATM   20  C   UNL     1      41.048 -11.832   3.349  1.00  0.00     0.039 A 
HETATM   21  C   UNL     1      42.471 -11.951   2.910  1.00  0.00     0.039 A 
BRANCH  19  22
HETATM   22  C   UNL     1      42.073 -13.806   4.718  1.00  0.00     0.011 A 
HETATM   23  C   UNL     1      41.192 -14.296   5.698  1.00  0.00     0.125 A 
HETATM   24  F   UNL     1      40.322 -13.457   6.282  1.00  0.00    -0.205 F 
HETATM   25  C   UNL     1      41.208 -15.627   6.117  1.00  0.00     0.046 A 
HETATM   26  C   UNL     1      42.127 -16.510   5.559  1.00  0.00     0.045 A 
HETATM   27  C   UNL     1      43.013 -16.048   4.594  1.00  0.00     0.117 A 
HETATM   28  F   UNL     1      43.910 -16.892   4.068  1.00  0.00    -0.206 F 
HETATM   29  C   UNL     1      42.993 -14.720   4.175  1.00  0.00     0.055 A 
ENDBRANCH  19  22
ENDBRANCH   2  19
TORSDOF 5
ENDMDL
MODEL 7
REMARK VINA RESULT:      -8.2      7.560     10.278
REMARK  5 active torsions:
REMARK  status: ('A' for Active; 'I' for Inactive)
REMARK    1  A    between atoms: C_3  and  C_4 
REMARK    2  A    between atoms: C_8  and  C_9 
REMARK       I    between atoms: C_9  and  N_10 
REMARK    3  A    between atoms: N_10  and  C_11 
REMARK    4  A    between atoms: C_11  and  C_12 
REMARK    5  A    between atoms: C_24  and  O_25 
ROOT
HETATM    1  C   UNL     1      43.946 -10.842   8.281  1.00  0.00     0.270 C 
HETATM    2  N   UNL     1      43.207 -10.860   7.115  1.00  0.00    -0.342 N 
HETATM    3  O   UNL     1      45.088 -11.283   8.363  1.00  0.00    -0.266 OA
HETATM    4  H   UNL     1      42.254 -10.526   7.145  1.00  0.00     0.164 HD
ENDROOT
BRANCH   1   5
HETATM    5  C   UNL     1      43.259 -10.315   9.431  1.00  0.00     0.120 A 
HETATM    6  N   UNL     1      41.958  -9.906   9.354  1.00  0.00    -0.272 N 
HETATM    7  N   UNL     1      41.496  -9.324  10.473  1.00  0.00    -0.174 NA
HETATM    8  H   UNL     1      41.353  -9.964   8.539  1.00  0.00     0.189 HD
HETATM    9  C   UNL     1      42.529  -9.384  11.335  1.00  0.00     0.092 A 
HETATM   10  C   UNL     1      43.642 -10.028  10.726  1.00  0.00     0.071 A 
BRANCH   9  11
HETATM   11  C   UNL     1      42.442  -8.779  12.672  1.00  0.00     0.028 A 
HETATM   12  C   UNL     1      43.326  -7.756  13.050  1.00  0.00     0.017 A 
HETATM   13  C   UNL     1      43.216  -7.138  14.301  1.00  0.00     0.001 A 
HETATM   14  C   UNL     1      42.221  -7.532  15.192  1.00  0.00     0.003 A 
HETATM   15  C   UNL     1      41.341  -8.553  14.840  1.00  0.00     0.037 A 
HETATM   16  C   UNL     1      41.457  -9.172  13.597  1.00  0.00     0.078 A 
BRANCH  16  17
HETATM   17  O   UNL     1      40.552 -10.171  13.336  1.00  0.00    -0.360 OA
HETATM   18  H   UNL     1      40.689 -10.851  14.035  1.00  0.00     0.217 HD
ENDBRANCH  16  17
ENDBRANCH   9  11
ENDBRANCH   1   5
BRANCH   2  19
HETATM   19  C   UNL     1      43.520 -11.752   6.028  1.00  0.00     0.064 A 
HETATM   20  C   UNL     1      43.458 -11.201   4.614  1.00  0.00     0.039 A 
HETATM   21  C   UNL     1      44.781 -11.553   5.212  1.00  0.00     0.039 A 
BRANCH  19  22
HETATM   22  C   UNL     1      43.010 -13.162   6.280  1.00  0.00     0.011 A 
HETATM   23  C   UNL     1      41.640 -13.473   6.226  1.00  0.00     0.125 A 
HETATM   24  F   UNL     1      40.757 -12.511   5.911  1.00  0.00    -0.205 F 
HETATM   25  C   UNL     1      41.150 -14.747   6.521  1.00  0.00     0.046 A 
HETATM   26  C   UNL     1      42.038 -15.752   6.891  1.00  0.00     0.045 A 
HETATM   27  C   UNL     1      43.396 -15.468   6.959  1.00  0.00     0.117 A 
HETATM   28  F   UNL     1      44.250 -16.430   7.331  1.00  0.00    -0.206 F 
HETATM   29  C   UNL     1      43.882 -14.197   6.660  1.00  0.00     0.055 A 
ENDBRANCH  19  22
ENDBRANCH   2  19
TORSDOF 5
ENDMDL
MODEL 8
REMARK VINA RESULT:      -8.2      3.264      8.423
REMARK  5 active torsions:
REMARK  status: ('A' for Active; 'I' for Inactive)
REMARK    1  A    between atoms: C_3  and  C_4 
REMARK    2  A    between atoms: C_8  and  C_9 
REMARK       I    between atoms: C_9  and  N_10 
REMARK    3  A    between atoms: N_10  and  C_11 
REMARK    4  A    between atoms: C_11  and  C_12 
REMARK    5  A    between atoms: C_24  and  O_25 
ROOT
HETATM    1  C   UNL     1      40.636 -14.386   0.019  1.00  0.00     0.270 C 
HETATM    2  N   UNL     1      41.154 -13.234  -0.538  1.00  0.00    -0.342 N 
HETATM    3  O   UNL     1      39.501 -14.792  -0.208  1.00  0.00    -0.266 OA
HETATM    4  H   UNL     1      42.079 -12.938  -0.258  1.00  0.00     0.164 HD
ENDROOT
BRANCH   1   5
HETATM    5  C   UNL     1      41.505 -15.061   0.946  1.00  0.00     0.120 A 
HETATM    6  N   UNL     1      42.739 -14.560   1.254  1.00  0.00    -0.272 N 
HETATM    7  N   UNL     1      43.481 -15.365   2.034  1.00  0.00    -0.174 NA
HETATM    8  H   UNL     1      43.139 -13.688   0.918  1.00  0.00     0.189 HD
HETATM    9  C   UNL     1      42.687 -16.425   2.276  1.00  0.00     0.092 A 
HETATM   10  C   UNL     1      41.428 -16.255   1.635  1.00  0.00     0.071 A 
BRANCH   9  11
HETATM   11  C   UNL     1      43.170 -17.578   3.049  1.00  0.00     0.028 A 
HETATM   12  C   UNL     1      43.263 -18.847   2.453  1.00  0.00     0.017 A 
HETATM   13  C   UNL     1      43.772 -19.939   3.166  1.00  0.00     0.001 A 
HETATM   14  C   UNL     1      44.197 -19.779   4.483  1.00  0.00     0.003 A 
HETATM   15  C   UNL     1      44.104 -18.531   5.095  1.00  0.00     0.037 A 
HETATM   16  C   UNL     1      43.590 -17.447   4.385  1.00  0.00     0.078 A 
BRANCH  16  17
HETATM   17  O   UNL     1      43.528 -16.257   5.067  1.00  0.00    -0.360 OA
HETATM   18  H   UNL     1      43.356 -15.563   4.389  1.00  0.00     0.217 HD
ENDBRANCH  16  17
ENDBRANCH   9  11
ENDBRANCH   1   5
BRANCH   2  19
HETATM   19  C   UNL     1      40.308 -12.201  -1.078  1.00  0.00     0.064 A 
HETATM   20  C   UNL     1      40.829 -11.399  -2.258  1.00  0.00     0.039 A 
HETATM   21  C   UNL     1      39.697 -12.353  -2.456  1.00  0.00     0.039 A 
BRANCH  19  22
HETATM   22  C   UNL     1      39.530 -11.472   0.006  1.00  0.00     0.011 A 
HETATM   23  C   UNL     1      40.178 -10.733   1.012  1.00  0.00     0.125 A 
HETATM   24  F   UNL     1      41.517 -10.637   1.000  1.00  0.00    -0.205 F 
HETATM   25  C   UNL     1      39.482 -10.117   2.052  1.00  0.00     0.046 A 
HETATM   26  C   UNL     1      38.097 -10.234   2.114  1.00  0.00     0.045 A 
HETATM   27  C   UNL     1      37.433 -10.965   1.136  1.00  0.00     0.117 A 
HETATM   28  F   UNL     1      36.102 -11.094   1.202  1.00  0.00    -0.206 F 
HETATM   29  C   UNL     1      38.131 -11.576   0.097  1.00  0.00     0.055 A 
ENDBRANCH  19  22
ENDBRANCH   2  19
TORSDOF 5
ENDMDL
MODEL 9
REMARK VINA RESULT:      -8.1      3.542      4.959
REMARK  5 active torsions:
REMARK  status: ('A' for Active; 'I' for Inactive)
REMARK    1  A    between atoms: C_3  and  C_4 
REMARK    2  A    between atoms: C_8  and  C_9 
REMARK       I    between atoms: C_9  and  N_10 
REMARK    3  A    between atoms: N_10  and  C_11 
REMARK    4  A    between atoms: C_11  and  C_12 
REMARK    5  A    between atoms: C_24  and  O_25 
ROOT
HETATM    1  C   UNL     1      41.571 -15.196   3.095  1.00  0.00     0.270 C 
HETATM    2  N   UNL     1      40.663 -15.072   4.128  1.00  0.00    -0.342 N 
HETATM    3  O   UNL     1      42.698 -15.659   3.240  1.00  0.00    -0.266 OA
HETATM    4  H   UNL     1      39.775 -14.631   3.936  1.00  0.00     0.164 HD
ENDROOT
BRANCH   1   5
HETATM    5  C   UNL     1      41.126 -14.685   1.826  1.00  0.00     0.120 A 
HETATM    6  N   UNL     1      41.598 -13.501   1.332  1.00  0.00    -0.272 N 
HETATM    7  N   UNL     1      40.997 -13.097   0.201  1.00  0.00    -0.174 NA
HETATM    8  H   UNL     1      42.304 -12.907   1.759  1.00  0.00     0.189 HD
HETATM    9  C   UNL     1      40.114 -14.074  -0.080  1.00  0.00     0.092 A 
HETATM   10  C   UNL     1      40.188 -15.102   0.902  1.00  0.00     0.071 A 
BRANCH   9  11
HETATM   11  C   UNL     1      39.198 -13.968  -1.224  1.00  0.00     0.028 A 
HETATM   12  C   UNL     1      39.281 -14.877  -2.291  1.00  0.00     0.017 A 
HETATM   13  C   UNL     1      38.378 -14.815  -3.359  1.00  0.00     0.001 A 
HETATM   14  C   UNL     1      37.378 -13.846  -3.375  1.00  0.00     0.003 A 
HETATM   15  C   UNL     1      37.284 -12.929  -2.331  1.00  0.00     0.037 A 
HETATM   16  C   UNL     1      38.189 -12.988  -1.272  1.00  0.00     0.078 A 
BRANCH  16  17
HETATM   17  O   UNL     1      38.027 -12.043  -0.291  1.00  0.00    -0.360 OA
HETATM   18  H   UNL     1      38.892 -11.985   0.177  1.00  0.00     0.217 HD
ENDBRANCH  16  17
ENDBRANCH   9  11
ENDBRANCH   1   5
BRANCH   2  19
HETATM   19  C   UNL     1      41.074 -15.070   5.508  1.00  0.00     0.064 A 
HETATM   20  C   UNL     1      40.158 -15.729   6.525  1.00  0.00     0.039 A 
HETATM   21  C   UNL     1      41.470 -16.362   6.192  1.00  0.00     0.039 A 
BRANCH  19  22
HETATM   22  C   UNL     1      41.775 -13.776   5.895  1.00  0.00     0.011 A 
HETATM   23  C   UNL     1      41.108 -12.538   5.870  1.00  0.00     0.125 A 
HETATM   24  F   UNL     1      39.810 -12.496   5.529  1.00  0.00    -0.205 F 
HETATM   25  C   UNL     1      41.756 -11.336   6.155  1.00  0.00     0.046 A 
HETATM   26  C   UNL     1      43.111 -11.346   6.470  1.00  0.00     0.045 A 
HETATM   27  C   UNL     1      43.794 -12.555   6.495  1.00  0.00     0.117 A 
HETATM   28  F   UNL     1      45.102 -12.566   6.781  1.00  0.00    -0.206 F 
HETATM   29  C   UNL     1      43.144 -13.755   6.213  1.00  0.00     0.055 A 
ENDBRANCH  19  22
ENDBRANCH   2  19
TORSDOF 5
ENDMDL
MODEL 10
REMARK VINA RESULT:      -8.0      6.248      8.605
REMARK  5 active torsions:
REMARK  status: ('A' for Active; 'I' for Inactive)
REMARK    1  A    between atoms: C_3  and  C_4 
REMARK    2  A    between atoms: C_8  and  C_9 
REMARK       I    between atoms: C_9  and  N_10 
REMARK    3  A    between atoms: N_10  and  C_11 
REMARK    4  A    between atoms: C_11  and  C_12 
REMARK    5  A    between atoms: C_24  and  O_25 
ROOT
HETATM    1  C   UNL     1      43.632 -11.216   6.978  1.00  0.00     0.270 C 
HETATM    2  N   UNL     1      44.629 -11.066   7.921  1.00  0.00    -0.342 N 
HETATM    3  O   UNL     1      42.967 -10.280   6.546  1.00  0.00    -0.266 OA
HETATM    4  H   UNL     1      45.095 -11.895   8.264  1.00  0.00     0.164 HD
ENDROOT
BRANCH   1   5
HETATM    5  C   UNL     1      43.378 -12.572   6.568  1.00  0.00     0.120 A 
HETATM    6  N   UNL     1      43.175 -13.564   7.485  1.00  0.00    -0.272 N 
HETATM    7  N   UNL     1      43.076 -14.794   6.953  1.00  0.00    -0.174 NA
HETATM    8  H   UNL     1      43.141 -13.456   8.495  1.00  0.00     0.189 HD
HETATM    9  C   UNL     1      43.184 -14.597   5.625  1.00  0.00     0.092 A 
HETATM   10  C   UNL     1      43.344 -13.211   5.344  1.00  0.00     0.071 A 
BRANCH   9  11
HETATM   11  C   UNL     1      43.194 -15.727   4.685  1.00  0.00     0.028 A 
HETATM   12  C   UNL     1      42.652 -15.588   3.397  1.00  0.00     0.017 A 
HETATM   13  C   UNL     1      42.705 -16.642   2.478  1.00  0.00     0.001 A 
HETATM   14  C   UNL     1      43.302 -17.850   2.832  1.00  0.00     0.003 A 
HETATM   15  C   UNL     1      43.836 -18.011   4.108  1.00  0.00     0.037 A 
HETATM   16  C   UNL     1      43.776 -16.963   5.024  1.00  0.00     0.078 A 
BRANCH  16  17
HETATM   17  O   UNL     1      44.321 -17.211   6.259  1.00  0.00    -0.360 OA
HETATM   18  H   UNL     1      43.823 -16.647   6.895  1.00  0.00     0.217 HD
ENDBRANCH  16  17
ENDBRANCH   9  11
ENDBRANCH   1   5
BRANCH   2  19
HETATM   19  C   UNL     1      44.699  -9.914   8.781  1.00  0.00     0.064 A 
HETATM   20  C   UNL     1      46.067  -9.315   9.060  1.00  0.00     0.039 A 
HETATM   21  C   UNL     1      45.089  -8.561   8.220  1.00  0.00     0.039 A 
BRANCH  19  22
HETATM   22  C   UNL     1      43.693  -9.987   9.919  1.00  0.00     0.011 A 
HETATM   23  C   UNL     1      42.506  -9.233   9.906  1.00  0.00     0.125 A 
HETATM   24  F   UNL     1      42.232  -8.454   8.848  1.00  0.00    -0.205 F 
HETATM   25  C   UNL     1      41.607  -9.237  10.974  1.00  0.00     0.046 A 
HETATM   26  C   UNL     1      41.886 -10.003  12.101  1.00  0.00     0.045 A 
HETATM   27  C   UNL     1      43.056 -10.751  12.141  1.00  0.00     0.117 A 
HETATM   28  F   UNL     1      43.335 -11.476  13.232  1.00  0.00    -0.206 F 
HETATM   29  C   UNL     1      43.950 -10.748  11.072  1.00  0.00     0.055 A 
ENDBRANCH  19  22
ENDBRANCH   2  19
TORSDOF 5
ENDMDL
