MODEL 1
REMARK VINA RESULT:      -9.1      0.000      0.000
REMARK  6 active torsions:
REMARK  status: ('A' for Active; 'I' for Inactive)
REMARK    1  A    between atoms: C_4  and  C_5 
REMARK    2  A    between atoms: C_5  and  O_6 
REMARK    3  A    between atoms: O_6  and  C_7 
REMARK    4  A    between atoms: C_10  and  C_11 
REMARK    5  A    between atoms: C_17  and  C_18 
REMARK    6  A    between atoms: C_27  and  N_28 
ROOT
HETATM    1  C   UNL     1      40.189 -13.734  -0.802  1.00  0.00     0.072 A 
HETATM    2  N   UNL     1      40.721 -14.059  -2.031  1.00  0.00    -0.274 N 
HETATM    3  H   UNL     1      41.432 -14.755  -2.232  1.00  0.00     0.189 HD
HETATM    4  N   UNL     1      40.212 -13.347  -3.058  1.00  0.00    -0.148 NA
HETATM    5  C   UNL     1      39.332 -12.562  -2.450  1.00  0.00     0.199 A 
HETATM    6  C   UNL     1      39.268 -12.734  -1.066  1.00  0.00     0.040 A 
HETATM    7  C   UNL     1      38.350 -11.904  -0.240  1.00  0.00     0.106 A 
HETATM    8  C   UNL     1      37.537 -10.955  -1.113  1.00  0.00     0.081 A 
HETATM    9  C   UNL     1      36.551 -10.167  -0.448  1.00  0.00     0.100 C 
HETATM   10  N   UNL     1      35.753  -9.530   0.102  1.00  0.00    -0.191 NA
HETATM   11  C   UNL     1      37.687 -10.881  -2.461  1.00  0.00     0.140 A 
HETATM   12  O   UNL     1      38.611 -11.674  -3.157  1.00  0.00    -0.277 OA
ENDROOT
BRANCH   7  13
HETATM   13  C   UNL     1      39.219 -11.183   0.781  1.00  0.00    -0.041 A 
HETATM   14  C   UNL     1      40.213 -10.263   0.417  1.00  0.00     0.027 A 
HETATM   15  C   UNL     1      40.956  -9.649   1.414  1.00  0.00     0.116 A 
HETATM   16  N   UNL     1      40.775  -9.870   2.732  1.00  0.00    -0.273 NA
HETATM   17  C   UNL     1      39.808 -10.747   3.070  1.00  0.00     0.116 A 
HETATM   18  C   UNL     1      39.014 -11.413   2.149  1.00  0.00     0.027 A 
ENDBRANCH   7  13
BRANCH  11  19
HETATM   19  N   UNL     1      36.972 -10.047  -3.294  1.00  0.00    -0.282 NA
HETATM   20  H   UNL     1      37.369  -9.892  -4.217  1.00  0.00     0.126 HD
HETATM   21  H   UNL     1      35.983 -10.289  -3.318  1.00  0.00     0.126 HD
ENDBRANCH  11  19
BRANCH   1  22
HETATM   22  C   UNL     1      40.632 -14.332   0.448  1.00  0.00    -0.007 A 
HETATM   23  C   UNL     1      40.005 -15.483   0.939  1.00  0.00     0.016 A 
HETATM   24  C   UNL     1      40.496 -16.118   2.081  1.00  0.00     0.037 A 
HETATM   25  C   UNL     1      41.624 -15.619   2.726  1.00  0.00     0.069 A 
HETATM   26  C   UNL     1      42.221 -14.440   2.283  1.00  0.00     0.037 A 
HETATM   27  C   UNL     1      41.728 -13.801   1.141  1.00  0.00     0.016 A 
BRANCH  25  28
HETATM   28  O   UNL     1      42.072 -16.330   3.803  1.00  0.00    -0.347 OA
BRANCH  28  29
HETATM   29  C   UNL     1      43.464 -16.663   3.728  1.00  0.00     0.214 C 
BRANCH  29  30
HETATM   30  C   UNL     1      43.621 -18.163   3.636  1.00  0.00    -0.034 A 
HETATM   31  C   UNL     1      44.023 -18.902   4.758  1.00  0.00     0.009 A 
HETATM   32  C   UNL     1      44.155 -20.290   4.684  1.00  0.00     0.001 A 
HETATM   33  C   UNL     1      43.882 -20.955   3.490  1.00  0.00     0.000 A 
HETATM   34  C   UNL     1      43.473 -20.233   2.371  1.00  0.00     0.001 A 
HETATM   35  C   UNL     1      43.338 -18.845   2.443  1.00  0.00     0.009 A 
ENDBRANCH  29  30
ENDBRANCH  28  29
ENDBRANCH  25  28
ENDBRANCH   1  22
TORSDOF 6
ENDMDL
MODEL 2
REMARK VINA RESULT:      -9.0      3.164      5.098
REMARK  6 active torsions:
REMARK  status: ('A' for Active; 'I' for Inactive)
REMARK    1  A    between atoms: C_4  and  C_5 
REMARK    2  A    between atoms: C_5  and  O_6 
REMARK    3  A    between atoms: O_6  and  C_7 
REMARK    4  A    between atoms: C_10  and  C_11 
REMARK    5  A    between atoms: C_17  and  C_18 
REMARK    6  A    between atoms: C_27  and  N_28 
ROOT
HETATM    1  C   UNL     1      40.585 -12.710   5.782  1.00  0.00     0.072 A 
HETATM    2  N   UNL     1      39.585 -12.294   6.636  1.00  0.00    -0.274 N 
HETATM    3  H   UNL     1      39.337 -12.692   7.536  1.00  0.00     0.189 HD
HETATM    4  N   UNL     1      38.880 -11.236   6.184  1.00  0.00    -0.148 NA
HETATM    5  C   UNL     1      39.463 -10.982   5.021  1.00  0.00     0.199 A 
HETATM    6  C   UNL     1      40.510 -11.848   4.700  1.00  0.00     0.040 A 
HETATM    7  C   UNL     1      41.244 -11.709   3.413  1.00  0.00     0.106 A 
HETATM    8  C   UNL     1      40.717 -10.526   2.610  1.00  0.00     0.081 A 
HETATM    9  C   UNL     1      41.401 -10.228   1.394  1.00  0.00     0.100 C 
HETATM   10  N   UNL     1      41.962  -9.997   0.405  1.00  0.00    -0.191 NA
HETATM   11  C   UNL     1      39.686  -9.747   3.031  1.00  0.00     0.140 A 
HETATM   12  O   UNL     1      39.022  -9.977   4.244  1.00  0.00    -0.277 OA
ENDROOT
BRANCH   7  13
HETATM   13  C   UNL     1      41.099 -13.039   2.686  1.00  0.00    -0.041 A 
HETATM   14  C   UNL     1      42.197 -13.845   2.354  1.00  0.00     0.027 A 
HETATM   15  C   UNL     1      41.973 -15.044   1.694  1.00  0.00     0.116 A 
HETATM   16  N   UNL     1      40.749 -15.501   1.357  1.00  0.00    -0.273 NA
HETATM   17  C   UNL     1      39.701 -14.723   1.694  1.00  0.00     0.116 A 
HETATM   18  C   UNL     1      39.821 -13.508   2.351  1.00  0.00     0.027 A 
ENDBRANCH   7  13
BRANCH  11  19
HETATM   19  N   UNL     1      39.180  -8.663   2.347  1.00  0.00    -0.282 NA
HETATM   20  H   UNL     1      39.761  -7.828   2.342  1.00  0.00     0.126 HD
HETATM   21  H   UNL     1      38.839  -8.920   1.423  1.00  0.00     0.126 HD
ENDBRANCH  11  19
BRANCH   1  22
HETATM   22  C   UNL     1      41.429 -13.866   6.038  1.00  0.00    -0.007 A 
HETATM   23  C   UNL     1      40.938 -15.160   5.825  1.00  0.00     0.016 A 
HETATM   24  C   UNL     1      41.778 -16.264   5.970  1.00  0.00     0.037 A 
HETATM   25  C   UNL     1      43.117 -16.082   6.308  1.00  0.00     0.069 A 
HETATM   26  C   UNL     1      43.603 -14.805   6.581  1.00  0.00     0.037 A 
HETATM   27  C   UNL     1      42.761 -13.698   6.440  1.00  0.00     0.016 A 
BRANCH  25  28
HETATM   28  O   UNL     1      43.884 -17.210   6.375  1.00  0.00    -0.347 OA
BRANCH  28  29
HETATM   29  C   UNL     1      44.793 -17.348   5.275  1.00  0.00     0.214 C 
BRANCH  29  30
HETATM   30  C   UNL     1      44.291 -18.419   4.335  1.00  0.00    -0.034 A 
HETATM   31  C   UNL     1      44.341 -19.770   4.711  1.00  0.00     0.009 A 
HETATM   32  C   UNL     1      43.866 -20.763   3.853  1.00  0.00     0.001 A 
HETATM   33  C   UNL     1      43.329 -20.418   2.614  1.00  0.00     0.000 A 
HETATM   34  C   UNL     1      43.265 -19.079   2.233  1.00  0.00     0.001 A 
HETATM   35  C   UNL     1      43.739 -18.084   3.091  1.00  0.00     0.009 A 
ENDBRANCH  29  30
ENDBRANCH  28  29
ENDBRANCH  25  28
ENDBRANCH   1  22
TORSDOF 6
ENDMDL
MODEL 3
REMARK VINA RESULT:      -9.0      5.406      8.547
REMARK  6 active torsions:
REMARK  status: ('A' for Active; 'I' for Inactive)
REMARK    1  A    between atoms: C_4  and  C_5 
REMARK    2  A    between atoms: C_5  and  O_6 
REMARK    3  A    between atoms: O_6  and  C_7 
REMARK    4  A    between atoms: C_10  and  C_11 
REMARK    5  A    between atoms: C_17  and  C_18 
REMARK    6  A    between atoms: C_27  and  N_28 
ROOT
HETATM    1  C   UNL     1      41.895 -12.333   4.215  1.00  0.00     0.072 A 
HETATM    2  N   UNL     1      40.829 -11.531   3.869  1.00  0.00    -0.274 N 
HETATM    3  H   UNL     1      40.658 -10.573   4.157  1.00  0.00     0.189 HD
HETATM    4  N   UNL     1      39.933 -12.126   3.054  1.00  0.00    -0.148 NA
HETATM    5  C   UNL     1      40.462 -13.330   2.882  1.00  0.00     0.199 A 
HETATM    6  C   UNL     1      41.660 -13.536   3.570  1.00  0.00     0.040 A 
HETATM    7  C   UNL     1      42.359 -14.847   3.500  1.00  0.00     0.106 A 
HETATM    8  C   UNL     1      41.615 -15.815   2.587  1.00  0.00     0.081 A 
HETATM    9  C   UNL     1      42.235 -17.080   2.362  1.00  0.00     0.100 C 
HETATM   10  N   UNL     1      42.746 -18.107   2.188  1.00  0.00    -0.191 NA
HETATM   11  C   UNL     1      40.450 -15.496   1.965  1.00  0.00     0.140 A 
HETATM   12  O   UNL     1      39.836 -14.245   2.120  1.00  0.00    -0.277 OA
ENDROOT
BRANCH   7  13
HETATM   13  C   UNL     1      42.481 -15.349   4.932  1.00  0.00    -0.041 A 
HETATM   14  C   UNL     1      41.368 -15.570   5.756  1.00  0.00     0.027 A 
HETATM   15  C   UNL     1      41.572 -16.032   7.048  1.00  0.00     0.116 A 
HETATM   16  N   UNL     1      42.787 -16.300   7.569  1.00  0.00    -0.273 NA
HETATM   17  C   UNL     1      43.848 -16.096   6.763  1.00  0.00     0.116 A 
HETATM   18  C   UNL     1      43.749 -15.634   5.459  1.00  0.00     0.027 A 
ENDBRANCH   7  13
BRANCH  11  19
HETATM   19  N   UNL     1      39.745 -16.331   1.124  1.00  0.00    -0.282 NA
HETATM   20  H   UNL     1      39.970 -16.260   0.135  1.00  0.00     0.126 HD
HETATM   21  H   UNL     1      39.730 -17.290   1.464  1.00  0.00     0.126 HD
ENDBRANCH  11  19
BRANCH   1  22
HETATM   22  C   UNL     1      42.948 -11.919   5.128  1.00  0.00    -0.007 A 
HETATM   23  C   UNL     1      42.759 -12.015   6.512  1.00  0.00     0.016 A 
HETATM   24  C   UNL     1      43.805 -11.717   7.388  1.00  0.00     0.037 A 
HETATM   25  C   UNL     1      45.048 -11.341   6.886  1.00  0.00     0.069 A 
HETATM   26  C   UNL     1      45.231 -11.182   5.513  1.00  0.00     0.037 A 
HETATM   27  C   UNL     1      44.183 -11.477   4.636  1.00  0.00     0.016 A 
BRANCH  25  28
HETATM   28  O   UNL     1      46.032 -11.120   7.807  1.00  0.00    -0.347 OA
BRANCH  28  29
HETATM   29  C   UNL     1      46.300  -9.731   8.034  1.00  0.00     0.214 C 
BRANCH  29  30
HETATM   30  C   UNL     1      45.273  -9.168   8.989  1.00  0.00    -0.034 A 
HETATM   31  C   UNL     1      45.124  -9.718  10.271  1.00  0.00     0.009 A 
HETATM   32  C   UNL     1      44.188  -9.194  11.164  1.00  0.00     0.001 A 
HETATM   33  C   UNL     1      43.395  -8.111  10.788  1.00  0.00     0.000 A 
HETATM   34  C   UNL     1      43.539  -7.550   9.522  1.00  0.00     0.001 A 
HETATM   35  C   UNL     1      44.477  -8.072   8.628  1.00  0.00     0.009 A 
ENDBRANCH  29  30
ENDBRANCH  28  29
ENDBRANCH  25  28
ENDBRANCH   1  22
TORSDOF 6
ENDMDL
MODEL 4
REMARK VINA RESULT:      -9.0      5.827      8.555
REMARK  6 active torsions:
REMARK  status: ('A' for Active; 'I' for Inactive)
REMARK    1  A    between atoms: C_4  and  C_5 
REMARK    2  A    between atoms: C_5  and  O_6 
REMARK    3  A    between atoms: O_6  and  C_7 
REMARK    4  A    between atoms: C_10  and  C_11 
REMARK    5  A    between atoms: C_17  and  C_18 
REMARK    6  A    between atoms: C_27  and  N_28 
ROOT
HETATM    1  C   UNL     1      42.876 -11.280   4.211  1.00  0.00     0.072 A 
HETATM    2  N   UNL     1      42.287 -10.192   3.602  1.00  0.00    -0.274 N 
HETATM    3  H   UNL     1      42.261  -9.235   3.938  1.00  0.00     0.189 HD
HETATM    4  N   UNL     1      41.689 -10.475   2.426  1.00  0.00    -0.148 NA
HETATM    5  C   UNL     1      41.919 -11.775   2.297  1.00  0.00     0.199 A 
HETATM    6  C   UNL     1      42.632 -12.341   3.356  1.00  0.00     0.040 A 
HETATM    7  C   UNL     1      42.942 -13.796   3.370  1.00  0.00     0.106 A 
HETATM    8  C   UNL     1      42.423 -14.478   2.109  1.00  0.00     0.081 A 
HETATM    9  C   UNL     1      42.739 -15.861   1.958  1.00  0.00     0.100 C 
HETATM   10  N   UNL     1      42.999 -16.986   1.846  1.00  0.00    -0.191 NA
HETATM   11  C   UNL     1      41.741 -13.815   1.139  1.00  0.00     0.140 A 
HETATM   12  O   UNL     1      41.455 -12.445   1.227  1.00  0.00    -0.277 OA
ENDROOT
BRANCH   7  13
HETATM   13  C   UNL     1      42.331 -14.357   4.647  1.00  0.00    -0.041 A 
HETATM   14  C   UNL     1      43.105 -14.909   5.678  1.00  0.00     0.027 A 
HETATM   15  C   UNL     1      42.465 -15.393   6.810  1.00  0.00     0.116 A 
HETATM   16  N   UNL     1      41.129 -15.356   6.994  1.00  0.00    -0.273 NA
HETATM   17  C   UNL     1      40.398 -14.811   6.001  1.00  0.00     0.116 A 
HETATM   18  C   UNL     1      40.942 -14.302   4.832  1.00  0.00     0.027 A 
ENDBRANCH   7  13
BRANCH  11  19
HETATM   19  N   UNL     1      41.260 -14.383  -0.022  1.00  0.00    -0.282 NA
HETATM   20  H   UNL     1      41.892 -15.017  -0.503  1.00  0.00     0.126 HD
HETATM   21  H   UNL     1      40.323 -14.764   0.099  1.00  0.00     0.126 HD
ENDBRANCH  11  19
BRANCH   1  22
HETATM   22  C   UNL     1      43.525 -11.217   5.511  1.00  0.00    -0.007 A 
HETATM   23  C   UNL     1      44.877 -11.557   5.640  1.00  0.00     0.016 A 
HETATM   24  C   UNL     1      45.529 -11.398   6.864  1.00  0.00     0.037 A 
HETATM   25  C   UNL     1      44.840 -10.881   7.958  1.00  0.00     0.069 A 
HETATM   26  C   UNL     1      43.479 -10.596   7.858  1.00  0.00     0.037 A 
HETATM   27  C   UNL     1      42.825 -10.758   6.634  1.00  0.00     0.016 A 
BRANCH  25  28
HETATM   28  O   UNL     1      45.564 -10.704   9.103  1.00  0.00    -0.347 OA
BRANCH  28  29
HETATM   29  C   UNL     1      45.376  -9.417   9.704  1.00  0.00     0.214 C 
BRANCH  29  30
HETATM   30  C   UNL     1      44.364  -9.524  10.822  1.00  0.00    -0.034 A 
HETATM   31  C   UNL     1      44.099 -10.766  11.419  1.00  0.00     0.009 A 
HETATM   32  C   UNL     1      43.177 -10.869  12.462  1.00  0.00     0.001 A 
HETATM   33  C   UNL     1      42.515  -9.734  12.923  1.00  0.00     0.000 A 
HETATM   34  C   UNL     1      42.776  -8.494  12.345  1.00  0.00     0.001 A 
HETATM   35  C   UNL     1      43.699  -8.387  11.303  1.00  0.00     0.009 A 
ENDBRANCH  29  30
ENDBRANCH  28  29
ENDBRANCH  25  28
ENDBRANCH   1  22
TORSDOF 6
ENDMDL
MODEL 5
REMARK VINA RESULT:      -8.9      2.861      4.635
REMARK  6 active torsions:
REMARK  status: ('A' for Active; 'I' for Inactive)
REMARK    1  A    between atoms: C_4  and  C_5 
REMARK    2  A    between atoms: C_5  and  O_6 
REMARK    3  A    between atoms: O_6  and  C_7 
REMARK    4  A    between atoms: C_10  and  C_11 
REMARK    5  A    between atoms: C_17  and  C_18 
REMARK    6  A    between atoms: C_27  and  N_28 
ROOT
HETATM    1  C   UNL     1      39.842 -12.379   2.032  1.00  0.00     0.072 A 
HETATM    2  N   UNL     1      39.486 -11.604   0.948  1.00  0.00    -0.274 N 
HETATM    3  H   UNL     1      39.622 -11.817  -0.034  1.00  0.00     0.189 HD
HETATM    4  N   UNL     1      38.893 -10.438   1.276  1.00  0.00    -0.148 NA
HETATM    5  C   UNL     1      38.872 -10.493   2.602  1.00  0.00     0.199 A 
HETATM    6  C   UNL     1      39.445 -11.648   3.139  1.00  0.00     0.040 A 
HETATM    7  C   UNL     1      39.524 -11.841   4.611  1.00  0.00     0.106 A 
HETATM    8  C   UNL     1      38.881 -10.673   5.351  1.00  0.00     0.081 A 
HETATM    9  C   UNL     1      38.810 -10.782   6.771  1.00  0.00     0.100 C 
HETATM   10  N   UNL     1      38.759 -10.880   7.926  1.00  0.00    -0.191 NA
HETATM   11  C   UNL     1      38.349  -9.598   4.713  1.00  0.00     0.140 A 
HETATM   12  O   UNL     1      38.356  -9.477   3.316  1.00  0.00    -0.277 OA
ENDROOT
BRANCH   7  13
HETATM   13  C   UNL     1      40.998 -12.024   4.946  1.00  0.00    -0.041 A 
HETATM   14  C   UNL     1      41.507 -13.201   5.511  1.00  0.00     0.027 A 
HETATM   15  C   UNL     1      42.866 -13.283   5.780  1.00  0.00     0.116 A 
HETATM   16  N   UNL     1      43.745 -12.295   5.518  1.00  0.00    -0.273 NA
HETATM   17  C   UNL     1      43.245 -11.172   4.963  1.00  0.00     0.116 A 
HETATM   18  C   UNL     1      41.905 -10.993   4.659  1.00  0.00     0.027 A 
ENDBRANCH   7  13
BRANCH  11  19
HETATM   19  N   UNL     1      37.751  -8.523   5.335  1.00  0.00    -0.282 NA
HETATM   20  H   UNL     1      38.212  -7.625   5.214  1.00  0.00     0.126 HD
HETATM   21  H   UNL     1      36.749  -8.487   5.155  1.00  0.00     0.126 HD
ENDBRANCH  11  19
BRANCH   1  22
HETATM   22  C   UNL     1      40.545 -13.647   1.915  1.00  0.00    -0.007 A 
HETATM   23  C   UNL     1      41.940 -13.672   1.802  1.00  0.00     0.016 A 
HETATM   24  C   UNL     1      42.625 -14.888   1.795  1.00  0.00     0.037 A 
HETATM   25  C   UNL     1      41.922 -16.083   1.921  1.00  0.00     0.069 A 
HETATM   26  C   UNL     1      40.529 -16.076   1.973  1.00  0.00     0.037 A 
HETATM   27  C   UNL     1      39.843 -14.857   1.976  1.00  0.00     0.016 A 
BRANCH  25  28
HETATM   28  O   UNL     1      42.670 -17.226   1.962  1.00  0.00    -0.347 OA
BRANCH  28  29
HETATM   29  C   UNL     1      43.710 -17.191   2.947  1.00  0.00     0.214 C 
BRANCH  29  30
HETATM   30  C   UNL     1      43.771 -18.520   3.664  1.00  0.00    -0.034 A 
HETATM   31  C   UNL     1      43.788 -19.718   2.933  1.00  0.00     0.009 A 
HETATM   32  C   UNL     1      43.859 -20.948   3.588  1.00  0.00     0.001 A 
HETATM   33  C   UNL     1      43.920 -20.996   4.979  1.00  0.00     0.000 A 
HETATM   34  C   UNL     1      43.913 -19.814   5.716  1.00  0.00     0.001 A 
HETATM   35  C   UNL     1      43.844 -18.581   5.063  1.00  0.00     0.009 A 
ENDBRANCH  29  30
ENDBRANCH  28  29
ENDBRANCH  25  28
ENDBRANCH   1  22
TORSDOF 6
ENDMDL
MODEL 6
REMARK VINA RESULT:      -8.8      2.870      4.707
REMARK  6 active torsions:
REMARK  status: ('A' for Active; 'I' for Inactive)
REMARK    1  A    between atoms: C_4  and  C_5 
REMARK    2  A    between atoms: C_5  and  O_6 
REMARK    3  A    between atoms: O_6  and  C_7 
REMARK    4  A    between atoms: C_10  and  C_11 
REMARK    5  A    between atoms: C_17  and  C_18 
REMARK    6  A    between atoms: C_27  and  N_28 
ROOT
HETATM    1  C   UNL     1      40.245 -12.814   1.894  1.00  0.00     0.072 A 
HETATM    2  N   UNL     1      39.854 -12.195   0.726  1.00  0.00    -0.274 N 
HETATM    3  H   UNL     1      40.058 -12.485  -0.225  1.00  0.00     0.189 HD
HETATM    4  N   UNL     1      39.119 -11.079   0.913  1.00  0.00    -0.148 NA
HETATM    5  C   UNL     1      39.044 -11.007   2.235  1.00  0.00     0.199 A 
HETATM    6  C   UNL     1      39.718 -12.030   2.906  1.00  0.00     0.040 A 
HETATM    7  C   UNL     1      39.751 -12.069   4.393  1.00  0.00     0.106 A 
HETATM    8  C   UNL     1      38.947 -10.918   4.988  1.00  0.00     0.081 A 
HETATM    9  C   UNL     1      38.823 -10.896   6.408  1.00  0.00     0.100 C 
HETATM   10  N   UNL     1      38.731 -10.887   7.565  1.00  0.00    -0.191 NA
HETATM   11  C   UNL     1      38.327  -9.979   4.226  1.00  0.00     0.140 A 
HETATM   12  O   UNL     1      38.384  -9.995   2.825  1.00  0.00    -0.277 OA
ENDROOT
BRANCH   7  13
HETATM   13  C   UNL     1      41.219 -12.044   4.795  1.00  0.00    -0.041 A 
HETATM   14  C   UNL     1      41.839 -13.107   5.467  1.00  0.00     0.027 A 
HETATM   15  C   UNL     1      43.184 -13.002   5.791  1.00  0.00     0.116 A 
HETATM   16  N   UNL     1      43.950 -11.934   5.487  1.00  0.00    -0.273 NA
HETATM   17  C   UNL     1      43.345 -10.924   4.829  1.00  0.00     0.116 A 
HETATM   18  C   UNL     1      42.008 -10.933   4.463  1.00  0.00     0.027 A 
ENDBRANCH   7  13
BRANCH  11  19
HETATM   19  N   UNL     1      37.583  -8.926   4.714  1.00  0.00    -0.282 NA
HETATM   20  H   UNL     1      38.096  -8.226   5.243  1.00  0.00     0.126 HD
HETATM   21  H   UNL     1      36.975  -8.526   4.002  1.00  0.00     0.126 HD
ENDBRANCH  11  19
BRANCH   1  22
HETATM   22  C   UNL     1      41.092 -13.996   1.931  1.00  0.00    -0.007 A 
HETATM   23  C   UNL     1      42.485 -13.867   1.897  1.00  0.00     0.016 A 
HETATM   24  C   UNL     1      43.300 -14.991   2.038  1.00  0.00     0.037 A 
HETATM   25  C   UNL     1      42.728 -16.246   2.233  1.00  0.00     0.069 A 
HETATM   26  C   UNL     1      41.343 -16.396   2.207  1.00  0.00     0.037 A 
HETATM   27  C   UNL     1      40.527 -15.271   2.063  1.00  0.00     0.016 A 
BRANCH  25  28
HETATM   28  O   UNL     1      43.595 -17.285   2.417  1.00  0.00    -0.347 OA
BRANCH  28  29
HETATM   29  C   UNL     1      43.198 -18.180   3.464  1.00  0.00     0.214 C 
BRANCH  29  30
HETATM   30  C   UNL     1      43.349 -17.492   4.801  1.00  0.00    -0.034 A 
HETATM   31  C   UNL     1      44.618 -17.111   5.261  1.00  0.00     0.009 A 
HETATM   32  C   UNL     1      44.763 -16.462   6.488  1.00  0.00     0.001 A 
HETATM   33  C   UNL     1      43.642 -16.182   7.266  1.00  0.00     0.000 A 
HETATM   34  C   UNL     1      42.375 -16.547   6.817  1.00  0.00     0.001 A 
HETATM   35  C   UNL     1      42.228 -17.195   5.588  1.00  0.00     0.009 A 
ENDBRANCH  29  30
ENDBRANCH  28  29
ENDBRANCH  25  28
ENDBRANCH   1  22
TORSDOF 6
ENDMDL
MODEL 7
REMARK VINA RESULT:      -8.7      3.488      4.982
REMARK  6 active torsions:
REMARK  status: ('A' for Active; 'I' for Inactive)
REMARK    1  A    between atoms: C_4  and  C_5 
REMARK    2  A    between atoms: C_5  and  O_6 
REMARK    3  A    between atoms: O_6  and  C_7 
REMARK    4  A    between atoms: C_10  and  C_11 
REMARK    5  A    between atoms: C_17  and  C_18 
REMARK    6  A    between atoms: C_27  and  N_28 
ROOT
HETATM    1  C   UNL     1      41.456 -12.596   2.385  1.00  0.00     0.072 A 
HETATM    2  N   UNL     1      41.701 -11.725   1.343  1.00  0.00    -0.274 N 
HETATM    3  H   UNL     1      42.131 -11.938   0.449  1.00  0.00     0.189 HD
HETATM    4  N   UNL     1      41.310 -10.457   1.583  1.00  0.00    -0.148 NA
HETATM    5  C   UNL     1      40.800 -10.542   2.804  1.00  0.00     0.199 A 
HETATM    6  C   UNL     1      40.863 -11.819   3.366  1.00  0.00     0.040 A 
HETATM    7  C   UNL     1      40.358 -12.068   4.743  1.00  0.00     0.106 A 
HETATM    8  C   UNL     1      39.774 -10.797   5.348  1.00  0.00     0.081 A 
HETATM    9  C   UNL     1      39.171 -10.925   6.635  1.00  0.00     0.100 C 
HETATM   10  N   UNL     1      38.686 -11.039   7.683  1.00  0.00    -0.191 NA
HETATM   11  C   UNL     1      39.766  -9.604   4.698  1.00  0.00     0.140 A 
HETATM   12  O   UNL     1      40.304  -9.450   3.412  1.00  0.00    -0.277 OA
ENDROOT
BRANCH   7  13
HETATM   13  C   UNL     1      41.530 -12.627   5.539  1.00  0.00    -0.041 A 
HETATM   14  C   UNL     1      42.703 -11.897   5.775  1.00  0.00     0.027 A 
HETATM   15  C   UNL     1      43.720 -12.484   6.514  1.00  0.00     0.116 A 
HETATM   16  N   UNL     1      43.649 -13.723   7.040  1.00  0.00    -0.273 NA
HETATM   17  C   UNL     1      42.510 -14.410   6.817  1.00  0.00     0.116 A 
HETATM   18  C   UNL     1      41.440 -13.913   6.090  1.00  0.00     0.027 A 
ENDBRANCH   7  13
BRANCH  11  19
HETATM   19  N   UNL     1      39.243  -8.431   5.198  1.00  0.00    -0.282 NA
HETATM   20  H   UNL     1      39.268  -8.328   6.209  1.00  0.00     0.126 HD
HETATM   21  H   UNL     1      39.595  -7.614   4.702  1.00  0.00     0.126 HD
ENDBRANCH  11  19
BRANCH   1  22
HETATM   22  C   UNL     1      41.848 -13.996   2.368  1.00  0.00    -0.007 A 
HETATM   23  C   UNL     1      40.909 -14.994   2.655  1.00  0.00     0.016 A 
HETATM   24  C   UNL     1      41.255 -16.341   2.538  1.00  0.00     0.037 A 
HETATM   25  C   UNL     1      42.533 -16.697   2.115  1.00  0.00     0.069 A 
HETATM   26  C   UNL     1      43.495 -15.715   1.886  1.00  0.00     0.037 A 
HETATM   27  C   UNL     1      43.149 -14.366   2.007  1.00  0.00     0.016 A 
BRANCH  25  28
HETATM   28  O   UNL     1      42.774 -18.035   1.974  1.00  0.00    -0.347 OA
BRANCH  28  29
HETATM   29  C   UNL     1      44.033 -18.448   2.519  1.00  0.00     0.214 C 
BRANCH  29  30
HETATM   30  C   UNL     1      43.847 -18.867   3.959  1.00  0.00    -0.034 A 
HETATM   31  C   UNL     1      43.946 -20.220   4.320  1.00  0.00     0.009 A 
HETATM   32  C   UNL     1      43.789 -20.612   5.650  1.00  0.00     0.001 A 
HETATM   33  C   UNL     1      43.539 -19.659   6.635  1.00  0.00     0.000 A 
HETATM   34  C   UNL     1      43.447 -18.312   6.291  1.00  0.00     0.001 A 
HETATM   35  C   UNL     1      43.606 -17.917   4.960  1.00  0.00     0.009 A 
ENDBRANCH  29  30
ENDBRANCH  28  29
ENDBRANCH  25  28
ENDBRANCH   1  22
TORSDOF 6
ENDMDL
MODEL 8
REMARK VINA RESULT:      -8.2      1.921      3.613
REMARK  6 active torsions:
REMARK  status: ('A' for Active; 'I' for Inactive)
REMARK    1  A    between atoms: C_4  and  C_5 
REMARK    2  A    between atoms: C_5  and  O_6 
REMARK    3  A    between atoms: O_6  and  C_7 
REMARK    4  A    between atoms: C_10  and  C_11 
REMARK    5  A    between atoms: C_17  and  C_18 
REMARK    6  A    between atoms: C_27  and  N_28 
ROOT
HETATM    1  C   UNL     1      39.646 -11.655   1.641  1.00  0.00     0.072 A 
HETATM    2  N   UNL     1      38.882 -11.033   2.606  1.00  0.00    -0.274 N 
HETATM    3  H   UNL     1      38.681 -11.365   3.544  1.00  0.00     0.189 HD
HETATM    4  N   UNL     1      38.359  -9.851   2.218  1.00  0.00    -0.148 NA
HETATM    5  C   UNL     1      38.818  -9.731   0.979  1.00  0.00     0.199 A 
HETATM    6  C   UNL     1      39.606 -10.801   0.551  1.00  0.00     0.040 A 
HETATM    7  C   UNL     1      40.169 -10.826  -0.826  1.00  0.00     0.106 A 
HETATM    8  C   UNL     1      39.797  -9.562  -1.591  1.00  0.00     0.081 A 
HETATM    9  C   UNL     1      40.355  -9.421  -2.896  1.00  0.00     0.100 C 
HETATM   10  N   UNL     1      40.812  -9.318  -3.958  1.00  0.00    -0.191 NA
HETATM   11  C   UNL     1      39.020  -8.580  -1.062  1.00  0.00     0.140 A 
HETATM   12  O   UNL     1      38.495  -8.658   0.235  1.00  0.00    -0.277 OA
ENDROOT
BRANCH   7  13
HETATM   13  C   UNL     1      39.650 -12.098  -1.482  1.00  0.00    -0.041 A 
HETATM   14  C   UNL     1      40.501 -13.101  -1.969  1.00  0.00     0.027 A 
HETATM   15  C   UNL     1      39.942 -14.230  -2.550  1.00  0.00     0.116 A 
HETATM   16  N   UNL     1      38.614 -14.437  -2.668  1.00  0.00    -0.273 NA
HETATM   17  C   UNL     1      37.807 -13.471  -2.185  1.00  0.00     0.116 A 
HETATM   18  C   UNL     1      38.268 -12.307  -1.590  1.00  0.00     0.027 A 
ENDBRANCH   7  13
BRANCH  11  19
HETATM   19  N   UNL     1      38.664  -7.416  -1.709  1.00  0.00    -0.282 NA
HETATM   20  H   UNL     1      39.377  -6.692  -1.749  1.00  0.00     0.126 HD
HETATM   21  H   UNL     1      38.225  -7.599  -2.610  1.00  0.00     0.126 HD
ENDBRANCH  11  19
BRANCH   1  22
HETATM   22  C   UNL     1      40.256 -12.962   1.821  1.00  0.00    -0.007 A 
HETATM   23  C   UNL     1      39.471 -14.063   2.186  1.00  0.00     0.016 A 
HETATM   24  C   UNL     1      40.035 -15.337   2.257  1.00  0.00     0.037 A 
HETATM   25  C   UNL     1      41.380 -15.522   1.945  1.00  0.00     0.069 A 
HETATM   26  C   UNL     1      42.186 -14.426   1.640  1.00  0.00     0.037 A 
HETATM   27  C   UNL     1      41.622 -13.149   1.572  1.00  0.00     0.016 A 
BRANCH  25  28
HETATM   28  O   UNL     1      41.841 -16.808   1.985  1.00  0.00    -0.347 OA
BRANCH  28  29
HETATM   29  C   UNL     1      43.238 -16.903   2.289  1.00  0.00     0.214 C 
BRANCH  29  30
HETATM   30  C   UNL     1      43.523 -18.237   2.940  1.00  0.00    -0.034 A 
HETATM   31  C   UNL     1      43.915 -18.298   4.286  1.00  0.00     0.009 A 
HETATM   32  C   UNL     1      44.165 -19.527   4.898  1.00  0.00     0.001 A 
HETATM   33  C   UNL     1      44.021 -20.709   4.174  1.00  0.00     0.000 A 
HETATM   34  C   UNL     1      43.624 -20.663   2.840  1.00  0.00     0.001 A 
HETATM   35  C   UNL     1      43.371 -19.434   2.226  1.00  0.00     0.009 A 
ENDBRANCH  29  30
ENDBRANCH  28  29
ENDBRANCH  25  28
ENDBRANCH   1  22
TORSDOF 6
ENDMDL
MODEL 9
REMARK VINA RESULT:      -8.2      2.189      4.147
REMARK  6 active torsions:
REMARK  status: ('A' for Active; 'I' for Inactive)
REMARK    1  A    between atoms: C_4  and  C_5 
REMARK    2  A    between atoms: C_5  and  O_6 
REMARK    3  A    between atoms: O_6  and  C_7 
REMARK    4  A    between atoms: C_10  and  C_11 
REMARK    5  A    between atoms: C_17  and  C_18 
REMARK    6  A    between atoms: C_27  and  N_28 
ROOT
HETATM    1  C   UNL     1      39.991 -12.039   3.557  1.00  0.00     0.072 A 
HETATM    2  N   UNL     1      39.258 -11.685   4.670  1.00  0.00    -0.274 N 
HETATM    3  H   UNL     1      38.975 -12.283   5.439  1.00  0.00     0.189 HD
HETATM    4  N   UNL     1      38.897 -10.385   4.701  1.00  0.00    -0.148 NA
HETATM    5  C   UNL     1      39.427  -9.916   3.580  1.00  0.00     0.199 A 
HETATM    6  C   UNL     1      40.105 -10.872   2.820  1.00  0.00     0.040 A 
HETATM    7  C   UNL     1      40.728 -10.506   1.520  1.00  0.00     0.106 A 
HETATM    8  C   UNL     1      40.544  -9.021   1.225  1.00  0.00     0.081 A 
HETATM    9  C   UNL     1      41.178  -8.523   0.048  1.00  0.00     0.100 C 
HETATM   10  N   UNL     1      41.696  -8.129  -0.913  1.00  0.00    -0.191 NA
HETATM   11  C   UNL     1      39.863  -8.183   2.050  1.00  0.00     0.140 A 
HETATM   12  O   UNL     1      39.268  -8.624   3.240  1.00  0.00    -0.277 OA
ENDROOT
BRANCH   7  13
HETATM   13  C   UNL     1      40.097 -11.408   0.468  1.00  0.00    -0.041 A 
HETATM   14  C   UNL     1      38.733 -11.360   0.147  1.00  0.00     0.027 A 
HETATM   15  C   UNL     1      38.243 -12.217  -0.828  1.00  0.00     0.116 A 
HETATM   16  N   UNL     1      39.006 -13.097  -1.508  1.00  0.00    -0.273 NA
HETATM   17  C   UNL     1      40.318 -13.124  -1.200  1.00  0.00     0.116 A 
HETATM   18  C   UNL     1      40.902 -12.311  -0.241  1.00  0.00     0.027 A 
ENDBRANCH   7  13
BRANCH  11  19
HETATM   19  N   UNL     1      39.677  -6.835   1.833  1.00  0.00    -0.282 NA
HETATM   20  H   UNL     1      39.126  -6.343   2.532  1.00  0.00     0.126 HD
HETATM   21  H   UNL     1      40.548  -6.361   1.602  1.00  0.00     0.126 HD
ENDBRANCH  11  19
BRANCH   1  22
HETATM   22  C   UNL     1      40.435 -13.397   3.288  1.00  0.00    -0.007 A 
HETATM   23  C   UNL     1      39.626 -14.270   2.550  1.00  0.00     0.016 A 
HETATM   24  C   UNL     1      40.094 -15.538   2.202  1.00  0.00     0.037 A 
HETATM   25  C   UNL     1      41.378 -15.933   2.570  1.00  0.00     0.069 A 
HETATM   26  C   UNL     1      42.169 -15.097   3.356  1.00  0.00     0.037 A 
HETATM   27  C   UNL     1      41.700 -13.828   3.708  1.00  0.00     0.016 A 
BRANCH  25  28
HETATM   28  O   UNL     1      41.779 -17.166   2.143  1.00  0.00    -0.347 OA
BRANCH  28  29
HETATM   29  C   UNL     1      43.200 -17.349   2.183  1.00  0.00     0.214 C 
BRANCH  29  30
HETATM   30  C   UNL     1      43.532 -18.537   3.056  1.00  0.00    -0.034 A 
HETATM   31  C   UNL     1      43.791 -18.359   4.423  1.00  0.00     0.009 A 
HETATM   32  C   UNL     1      44.084 -19.454   5.238  1.00  0.00     0.001 A 
HETATM   33  C   UNL     1      44.116 -20.738   4.698  1.00  0.00     0.000 A 
HETATM   34  C   UNL     1      43.852 -20.929   3.344  1.00  0.00     0.001 A 
HETATM   35  C   UNL     1      43.557 -19.835   2.527  1.00  0.00     0.009 A 
ENDBRANCH  29  30
ENDBRANCH  28  29
ENDBRANCH  25  28
ENDBRANCH   1  22
TORSDOF 6
ENDMDL
MODEL 10
REMARK VINA RESULT:      -8.0     11.889     15.122
REMARK  6 active torsions:
REMARK  status: ('A' for Active; 'I' for Inactive)
REMARK    1  A    between atoms: C_4  and  C_5 
REMARK    2  A    between atoms: C_5  and  O_6 
REMARK    3  A    between atoms: O_6  and  C_7 
REMARK    4  A    between atoms: C_10  and  C_11 
REMARK    5  A    between atoms: C_17  and  C_18 
REMARK    6  A    between atoms: C_27  and  N_28 
ROOT
HETATM    1  C   UNL     1      41.259  -7.561  15.656  1.00  0.00     0.072 A 
HETATM    2  N   UNL     1      41.168  -8.181  16.884  1.00  0.00    -0.274 N 
HETATM    3  H   UNL     1      41.522  -9.096  17.142  1.00  0.00     0.189 HD
HETATM    4  N   UNL     1      40.528  -7.453  17.822  1.00  0.00    -0.148 NA
HETATM    5  C   UNL     1      40.219  -6.345  17.161  1.00  0.00     0.199 A 
HETATM    6  C   UNL     1      40.626  -6.341  15.825  1.00  0.00     0.040 A 
HETATM    7  C   UNL     1      40.325  -5.181  14.944  1.00  0.00     0.106 A 
HETATM    8  C   UNL     1      39.600  -4.083  15.715  1.00  0.00     0.081 A 
HETATM    9  C   UNL     1      39.337  -2.875  15.004  1.00  0.00     0.100 C 
HETATM   10  N   UNL     1      39.125  -1.898  14.415  1.00  0.00    -0.191 NA
HETATM   11  C   UNL     1      39.259  -4.202  17.024  1.00  0.00     0.140 A 
HETATM   12  O   UNL     1      39.545  -5.355  17.771  1.00  0.00    -0.277 OA
ENDROOT
BRANCH   7  13
HETATM   13  C   UNL     1      39.518  -5.724  13.773  1.00  0.00    -0.041 A 
HETATM   14  C   UNL     1      38.233  -6.263  13.923  1.00  0.00     0.027 A 
HETATM   15  C   UNL     1      37.567  -6.732  12.800  1.00  0.00     0.116 A 
HETATM   16  N   UNL     1      38.076  -6.691  11.551  1.00  0.00    -0.273 NA
HETATM   17  C   UNL     1      39.308  -6.158  11.419  1.00  0.00     0.116 A 
HETATM   18  C   UNL     1      40.054  -5.666  12.478  1.00  0.00     0.027 A 
ENDBRANCH   7  13
BRANCH  11  19
HETATM   19  N   UNL     1      38.612  -3.238  17.766  1.00  0.00    -0.282 NA
HETATM   20  H   UNL     1      38.277  -2.428  17.250  1.00  0.00     0.126 HD
HETATM   21  H   UNL     1      37.908  -3.639  18.384  1.00  0.00     0.126 HD
ENDBRANCH  11  19
BRANCH   1  22
HETATM   22  C   UNL     1      41.855  -8.184  14.485  1.00  0.00    -0.007 A 
HETATM   23  C   UNL     1      41.273  -9.325  13.920  1.00  0.00     0.016 A 
HETATM   24  C   UNL     1      41.782  -9.863  12.737  1.00  0.00     0.037 A 
HETATM   25  C   UNL     1      42.861  -9.254  12.102  1.00  0.00     0.069 A 
HETATM   26  C   UNL     1      43.488  -8.154  12.686  1.00  0.00     0.037 A 
HETATM   27  C   UNL     1      42.980  -7.617  13.873  1.00  0.00     0.016 A 
BRANCH  25  28
HETATM   28  O   UNL     1      43.263  -9.809  10.921  1.00  0.00    -0.347 OA
BRANCH  28  29
HETATM   29  C   UNL     1      44.024  -8.915  10.099  1.00  0.00     0.214 C 
BRANCH  29  30
HETATM   30  C   UNL     1      44.713  -9.697   9.006  1.00  0.00    -0.034 A 
HETATM   31  C   UNL     1      44.093 -10.821   8.441  1.00  0.00     0.009 A 
HETATM   32  C   UNL     1      44.718 -11.539   7.420  1.00  0.00     0.001 A 
HETATM   33  C   UNL     1      45.966 -11.139   6.948  1.00  0.00     0.000 A 
HETATM   34  C   UNL     1      46.589 -10.019   7.494  1.00  0.00     0.001 A 
HETATM   35  C   UNL     1      45.965  -9.298   8.514  1.00  0.00     0.009 A 
ENDBRANCH  29  30
ENDBRANCH  28  29
ENDBRANCH  25  28
ENDBRANCH   1  22
TORSDOF 6
ENDMDL
