MODEL 1
REMARK VINA RESULT:      -7.8      0.000      0.000
REMARK  7 active torsions:
REMARK  status: ('A' for Active; 'I' for Inactive)
REMARK    1  A    between atoms: C_10  and  C_11 
REMARK       I    between atoms: C_11  and  N_12 
REMARK    2  A    between atoms: N_12  and  C_13 
REMARK    3  A    between atoms: C_13  and  C_14 
REMARK    4  A    between atoms: C_14  and  O_15 
REMARK    5  A    between atoms: C_14  and  C_16 
REMARK    6  A    between atoms: C_16  and  O_17 
REMARK    7  A    between atoms: O_17  and  C_18 
ROOT
HETATM    1  C   UNL     1      40.037 -13.660   5.414  1.00  0.00     0.257 C 
HETATM    2  N   UNL     1      40.639 -14.893   5.384  1.00  0.00    -0.354 N 
HETATM    3  O   UNL     1      39.635 -13.142   6.452  1.00  0.00    -0.267 OA
HETATM    4  H   UNL     1      40.826 -15.304   4.471  1.00  0.00     0.162 HD
ENDROOT
BRANCH   2   5
HETATM    5  C   UNL     1      40.826 -15.725   6.556  1.00  0.00     0.156 C 
BRANCH   5   6
HETATM    6  C   UNL     1      42.169 -15.503   7.263  1.00  0.00     0.160 C 
BRANCH   6   7
HETATM    7  O   UNL     1      42.505 -14.106   7.230  1.00  0.00    -0.392 OA
HETATM    8  H   UNL     1      42.351 -13.818   6.310  1.00  0.00     0.210 HD
ENDBRANCH   6   7
BRANCH   6   9
HETATM    9  C   UNL     1      43.312 -16.336   6.670  1.00  0.00     0.209 C 
BRANCH   9  10
HETATM   10  O   UNL     1      43.461 -15.934   5.299  1.00  0.00    -0.349 OA
BRANCH  10  11
HETATM   11  C   UNL     1      43.480 -16.934   4.364  1.00  0.00     0.069 A 
HETATM   12  C   UNL     1      44.015 -18.144   4.814  1.00  0.00     0.038 A 
HETATM   13  C   UNL     1      44.088 -19.250   3.966  1.00  0.00     0.026 A 
HETATM   14  C   UNL     1      43.614 -19.147   2.661  1.00  0.00     0.034 A 
HETATM   15 CL   UNL     1      43.695 -20.508   1.610  1.00  0.00    -0.084 Cl
HETATM   16  C   UNL     1      43.072 -17.948   2.202  1.00  0.00     0.026 A 
HETATM   17  C   UNL     1      43.007 -16.839   3.054  1.00  0.00     0.038 A 
ENDBRANCH  10  11
ENDBRANCH   9  10
ENDBRANCH   6   9
ENDBRANCH   5   6
ENDBRANCH   2   5
BRANCH   1  18
HETATM   18  C   UNL     1      39.883 -13.020   4.123  1.00  0.00     0.098 A 
HETATM   19  C   UNL     1      39.888 -13.596   2.865  1.00  0.00     0.167 A 
HETATM   20  N   UNL     1      39.710 -12.550   1.953  1.00  0.00    -0.226 N 
HETATM   21  N   UNL     1      40.029 -14.899   2.453  1.00  0.00    -0.240 NA
HETATM   22  C   UNL     1      39.678 -12.799   0.585  1.00  0.00     0.128 A 
HETATM   23  N   UNL     1      39.586 -11.354   2.575  1.00  0.00    -0.178 NA
HETATM   24  C   UNL     1      39.816 -14.049   0.114  1.00  0.00    -0.027 A 
HETATM   25  C   UNL     1      39.807 -14.461  -1.314  1.00  0.00     0.051 C 
HETATM   26  C   UNL     1      39.993 -15.095   1.168  1.00  0.00     0.127 A 
HETATM   27  C   UNL     1      39.693 -11.646   3.873  1.00  0.00     0.160 A 
ENDBRANCH   1  18
TORSDOF 7
ENDMDL
MODEL 2
REMARK VINA RESULT:      -7.7      4.790      6.851
REMARK  7 active torsions:
REMARK  status: ('A' for Active; 'I' for Inactive)
REMARK    1  A    between atoms: C_10  and  C_11 
REMARK       I    between atoms: C_11  and  N_12 
REMARK    2  A    between atoms: N_12  and  C_13 
REMARK    3  A    between atoms: C_13  and  C_14 
REMARK    4  A    between atoms: C_14  and  O_15 
REMARK    5  A    between atoms: C_14  and  C_16 
REMARK    6  A    between atoms: C_16  and  O_17 
REMARK    7  A    between atoms: O_17  and  C_18 
ROOT
HETATM    1  C   UNL     1      44.150 -11.806   7.404  1.00  0.00     0.257 C 
HETATM    2  N   UNL     1      43.249 -12.841   7.390  1.00  0.00    -0.354 N 
HETATM    3  O   UNL     1      45.302 -11.922   6.993  1.00  0.00    -0.267 OA
HETATM    4  H   UNL     1      42.359 -12.697   7.865  1.00  0.00     0.162 HD
ENDROOT
BRANCH   2   5
HETATM    5  C   UNL     1      43.569 -14.179   6.934  1.00  0.00     0.156 C 
BRANCH   5   6
HETATM    6  C   UNL     1      42.706 -15.273   7.577  1.00  0.00     0.160 C 
BRANCH   6   7
HETATM    7  O   UNL     1      43.327 -15.724   8.791  1.00  0.00    -0.392 OA
HETATM    8  H   UNL     1      43.452 -14.925   9.338  1.00  0.00     0.210 HD
ENDBRANCH   6   7
BRANCH   6   9
HETATM    9  C   UNL     1      42.439 -16.461   6.644  1.00  0.00     0.209 C 
BRANCH   9  10
HETATM   10  O   UNL     1      43.178 -16.224   5.435  1.00  0.00    -0.349 OA
BRANCH  10  11
HETATM   11  C   UNL     1      43.353 -17.295   4.602  1.00  0.00     0.069 A 
HETATM   12  C   UNL     1      42.824 -17.129   3.319  1.00  0.00     0.038 A 
HETATM   13  C   UNL     1      42.939 -18.142   2.364  1.00  0.00     0.026 A 
HETATM   14  C   UNL     1      43.595 -19.324   2.693  1.00  0.00     0.034 A 
HETATM   15 CL   UNL     1      43.746 -20.575   1.521  1.00  0.00    -0.084 Cl
HETATM   16  C   UNL     1      44.133 -19.499   3.967  1.00  0.00     0.026 A 
HETATM   17  C   UNL     1      44.010 -18.485   4.924  1.00  0.00     0.038 A 
ENDBRANCH  10  11
ENDBRANCH   9  10
ENDBRANCH   6   9
ENDBRANCH   5   6
ENDBRANCH   2   5
BRANCH   1  18
HETATM   18  C   UNL     1      43.653 -10.565   7.963  1.00  0.00     0.098 A 
HETATM   19  C   UNL     1      43.625 -10.163   9.288  1.00  0.00     0.167 A 
HETATM   20  N   UNL     1      43.042  -8.890   9.299  1.00  0.00    -0.226 N 
HETATM   21  N   UNL     1      44.041 -10.778  10.443  1.00  0.00    -0.240 NA
HETATM   22  C   UNL     1      42.858  -8.205  10.495  1.00  0.00     0.128 A 
HETATM   23  N   UNL     1      42.714  -8.475   8.053  1.00  0.00    -0.178 NA
HETATM   24  C   UNL     1      43.238  -8.752  11.662  1.00  0.00    -0.027 A 
HETATM   25  C   UNL     1      43.099  -8.142  13.010  1.00  0.00     0.051 C 
HETATM   26  C   UNL     1      43.855 -10.108  11.542  1.00  0.00     0.127 A 
HETATM   27  C   UNL     1      43.082  -9.484   7.262  1.00  0.00     0.160 A 
ENDBRANCH   1  18
TORSDOF 7
ENDMDL
MODEL 3
REMARK VINA RESULT:      -7.7      4.533      6.590
REMARK  7 active torsions:
REMARK  status: ('A' for Active; 'I' for Inactive)
REMARK    1  A    between atoms: C_10  and  C_11 
REMARK       I    between atoms: C_11  and  N_12 
REMARK    2  A    between atoms: N_12  and  C_13 
REMARK    3  A    between atoms: C_13  and  C_14 
REMARK    4  A    between atoms: C_14  and  O_15 
REMARK    5  A    between atoms: C_14  and  C_16 
REMARK    6  A    between atoms: C_16  and  O_17 
REMARK    7  A    between atoms: O_17  and  C_18 
ROOT
HETATM    1  C   UNL     1      43.095 -11.343   6.095  1.00  0.00     0.257 C 
HETATM    2  N   UNL     1      41.944 -12.015   6.426  1.00  0.00    -0.354 N 
HETATM    3  O   UNL     1      43.398 -11.075   4.936  1.00  0.00    -0.267 OA
HETATM    4  H   UNL     1      41.832 -12.308   7.395  1.00  0.00     0.162 HD
ENDROOT
BRANCH   2   5
HETATM    5  C   UNL     1      40.995 -12.512   5.450  1.00  0.00     0.156 C 
BRANCH   5   6
HETATM    6  C   UNL     1      40.681 -14.006   5.600  1.00  0.00     0.160 C 
BRANCH   6   7
HETATM    7  O   UNL     1      39.562 -14.176   6.485  1.00  0.00    -0.392 OA
HETATM    8  H   UNL     1      39.778 -13.665   7.287  1.00  0.00     0.210 HD
ENDBRANCH   6   7
BRANCH   6   9
HETATM    9  C   UNL     1      41.877 -14.830   6.094  1.00  0.00     0.209 C 
BRANCH   9  10
HETATM   10  O   UNL     1      42.884 -14.768   5.072  1.00  0.00    -0.349 OA
BRANCH  10  11
HETATM   11  C   UNL     1      43.046 -15.886   4.300  1.00  0.00     0.069 A 
HETATM   12  C   UNL     1      43.619 -16.975   4.963  1.00  0.00     0.038 A 
HETATM   13  C   UNL     1      43.835 -18.183   4.296  1.00  0.00     0.026 A 
HETATM   14  C   UNL     1      43.466 -18.304   2.959  1.00  0.00     0.034 A 
HETATM   15 CL   UNL     1      43.722 -19.790   2.131  1.00  0.00    -0.084 Cl
HETATM   16  C   UNL     1      42.888 -17.228   2.289  1.00  0.00     0.026 A 
HETATM   17  C   UNL     1      42.679 -16.017   2.959  1.00  0.00     0.038 A 
ENDBRANCH  10  11
ENDBRANCH   9  10
ENDBRANCH   6   9
ENDBRANCH   5   6
ENDBRANCH   2   5
BRANCH   1  18
HETATM   18  C   UNL     1      43.945 -10.992   7.215  1.00  0.00     0.098 A 
HETATM   19  C   UNL     1      43.608 -10.331   8.383  1.00  0.00     0.167 A 
HETATM   20  N   UNL     1      44.786 -10.235   9.133  1.00  0.00    -0.226 N 
HETATM   21  N   UNL     1      42.417  -9.821   8.839  1.00  0.00    -0.240 NA
HETATM   22  C   UNL     1      44.788  -9.606  10.374  1.00  0.00     0.128 A 
HETATM   23  N   UNL     1      45.836 -10.808   8.499  1.00  0.00    -0.178 NA
HETATM   24  C   UNL     1      43.659  -9.081  10.876  1.00  0.00    -0.027 A 
HETATM   25  C   UNL     1      43.513  -8.379  12.178  1.00  0.00     0.051 C 
HETATM   26  C   UNL     1      42.456  -9.241  10.002  1.00  0.00     0.127 A 
HETATM   27  C   UNL     1      45.323 -11.256   7.352  1.00  0.00     0.160 A 
ENDBRANCH   1  18
TORSDOF 7
ENDMDL
MODEL 4
REMARK VINA RESULT:      -7.5      3.094      6.707
REMARK  7 active torsions:
REMARK  status: ('A' for Active; 'I' for Inactive)
REMARK    1  A    between atoms: C_10  and  C_11 
REMARK       I    between atoms: C_11  and  N_12 
REMARK    2  A    between atoms: N_12  and  C_13 
REMARK    3  A    between atoms: C_13  and  C_14 
REMARK    4  A    between atoms: C_14  and  O_15 
REMARK    5  A    between atoms: C_14  and  C_16 
REMARK    6  A    between atoms: C_16  and  O_17 
REMARK    7  A    between atoms: O_17  and  C_18 
ROOT
HETATM    1  C   UNL     1      42.466 -14.330   4.774  1.00  0.00     0.257 C 
HETATM    2  N   UNL     1      41.142 -14.388   4.416  1.00  0.00    -0.354 N 
HETATM    3  O   UNL     1      43.056 -13.270   4.967  1.00  0.00    -0.267 OA
HETATM    4  H   UNL     1      40.766 -15.297   4.152  1.00  0.00     0.162 HD
ENDROOT
BRANCH   2   5
HETATM    5  C   UNL     1      40.318 -13.217   4.189  1.00  0.00     0.156 C 
BRANCH   5   6
HETATM    6  C   UNL     1      39.509 -13.276   2.888  1.00  0.00     0.160 C 
BRANCH   6   7
HETATM    7  O   UNL     1      39.008 -14.608   2.691  1.00  0.00    -0.392 OA
HETATM    8  H   UNL     1      39.589 -15.189   3.219  1.00  0.00     0.210 HD
ENDBRANCH   6   7
BRANCH   6   9
HETATM    9  C   UNL     1      40.305 -12.822   1.657  1.00  0.00     0.209 C 
BRANCH   9  10
HETATM   10  O   UNL     1      39.410 -12.057   0.834  1.00  0.00    -0.349 OA
BRANCH  10  11
HETATM   11  C   UNL     1      39.007 -12.636  -0.339  1.00  0.00     0.069 A 
HETATM   12  C   UNL     1      39.732 -13.772  -0.707  1.00  0.00     0.038 A 
HETATM   13  C   UNL     1      39.422 -14.467  -1.878  1.00  0.00     0.026 A 
HETATM   14  C   UNL     1      38.373 -14.026  -2.681  1.00  0.00     0.034 A 
HETATM   15 CL   UNL     1      37.979 -14.879  -4.122  1.00  0.00    -0.084 Cl
HETATM   16  C   UNL     1      37.638 -12.898  -2.320  1.00  0.00     0.026 A 
HETATM   17  C   UNL     1      37.957 -12.200  -1.149  1.00  0.00     0.038 A 
ENDBRANCH  10  11
ENDBRANCH   9  10
ENDBRANCH   6   9
ENDBRANCH   5   6
ENDBRANCH   2   5
BRANCH   1  18
HETATM   18  C   UNL     1      43.131 -15.613   4.884  1.00  0.00     0.098 A 
HETATM   19  C   UNL     1      43.124 -16.670   3.990  1.00  0.00     0.167 A 
HETATM   20  N   UNL     1      43.912 -17.674   4.565  1.00  0.00    -0.226 N 
HETATM   21  N   UNL     1      42.518 -16.835   2.769  1.00  0.00    -0.240 NA
HETATM   22  C   UNL     1      44.100 -18.888   3.912  1.00  0.00     0.128 A 
HETATM   23  N   UNL     1      44.414 -17.297   5.764  1.00  0.00    -0.178 NA
HETATM   24  C   UNL     1      43.531 -19.118   2.718  1.00  0.00    -0.027 A 
HETATM   25  C   UNL     1      43.640 -20.362   1.911  1.00  0.00     0.051 C 
HETATM   26  C   UNL     1      42.717 -17.981   2.187  1.00  0.00     0.127 A 
HETATM   27  C   UNL     1      43.940 -16.063   5.946  1.00  0.00     0.160 A 
ENDBRANCH   1  18
TORSDOF 7
ENDMDL
MODEL 5
REMARK VINA RESULT:      -7.5      2.683      6.050
REMARK  7 active torsions:
REMARK  status: ('A' for Active; 'I' for Inactive)
REMARK    1  A    between atoms: C_10  and  C_11 
REMARK       I    between atoms: C_11  and  N_12 
REMARK    2  A    between atoms: N_12  and  C_13 
REMARK    3  A    between atoms: C_13  and  C_14 
REMARK    4  A    between atoms: C_14  and  O_15 
REMARK    5  A    between atoms: C_14  and  C_16 
REMARK    6  A    between atoms: C_16  and  O_17 
REMARK    7  A    between atoms: O_17  and  C_18 
ROOT
HETATM    1  C   UNL     1      42.899 -14.142   3.829  1.00  0.00     0.257 C 
HETATM    2  N   UNL     1      42.175 -14.101   4.995  1.00  0.00    -0.354 N 
HETATM    3  O   UNL     1      43.280 -13.130   3.248  1.00  0.00    -0.267 OA
HETATM    4  H   UNL     1      41.791 -14.979   5.341  1.00  0.00     0.162 HD
ENDROOT
BRANCH   2   5
HETATM    5  C   UNL     1      41.751 -12.872   5.635  1.00  0.00     0.156 C 
BRANCH   5   6
HETATM    6  C   UNL     1      40.233 -12.651   5.600  1.00  0.00     0.160 C 
BRANCH   6   7
HETATM    7  O   UNL     1      39.571 -13.753   6.242  1.00  0.00    -0.392 OA
HETATM    8  H   UNL     1      39.440 -13.478   7.170  1.00  0.00     0.210 HD
ENDBRANCH   6   7
BRANCH   6   9
HETATM    9  C   UNL     1      39.681 -12.455   4.182  1.00  0.00     0.209 C 
BRANCH   9  10
HETATM   10  O   UNL     1      39.460 -13.763   3.630  1.00  0.00    -0.349 OA
BRANCH  10  11
HETATM   11  C   UNL     1      39.642 -13.899   2.281  1.00  0.00     0.069 A 
HETATM   12  C   UNL     1      39.674 -12.695   1.572  1.00  0.00     0.038 A 
HETATM   13  C   UNL     1      39.861 -12.688   0.188  1.00  0.00     0.026 A 
HETATM   14  C   UNL     1      40.026 -13.893  -0.489  1.00  0.00     0.034 A 
HETATM   15 CL   UNL     1      40.263 -13.893  -2.193  1.00  0.00    -0.084 Cl
HETATM   16  C   UNL     1      40.003 -15.100   0.208  1.00  0.00     0.026 A 
HETATM   17  C   UNL     1      39.809 -15.104   1.594  1.00  0.00     0.038 A 
ENDBRANCH  10  11
ENDBRANCH   9  10
ENDBRANCH   6   9
ENDBRANCH   5   6
ENDBRANCH   2   5
BRANCH   1  18
HETATM   18  C   UNL     1      43.163 -15.471   3.315  1.00  0.00     0.098 A 
HETATM   19  C   UNL     1      43.409 -16.638   4.019  1.00  0.00     0.167 A 
HETATM   20  N   UNL     1      43.607 -17.639   3.061  1.00  0.00    -0.226 N 
HETATM   21  N   UNL     1      43.476 -16.901   5.365  1.00  0.00    -0.240 NA
HETATM   22  C   UNL     1      43.889 -18.945   3.448  1.00  0.00     0.128 A 
HETATM   23  N   UNL     1      43.490 -17.161   1.799  1.00  0.00    -0.178 NA
HETATM   24  C   UNL     1      43.975 -19.269   4.748  1.00  0.00    -0.027 A 
HETATM   25  C   UNL     1      44.273 -20.615   5.305  1.00  0.00     0.051 C 
HETATM   26  C   UNL     1      43.740 -18.132   5.690  1.00  0.00     0.127 A 
HETATM   27  C   UNL     1      43.226 -15.863   1.963  1.00  0.00     0.160 A 
ENDBRANCH   1  18
TORSDOF 7
ENDMDL
MODEL 6
REMARK VINA RESULT:      -7.3      1.764      2.677
REMARK  7 active torsions:
REMARK  status: ('A' for Active; 'I' for Inactive)
REMARK    1  A    between atoms: C_10  and  C_11 
REMARK       I    between atoms: C_11  and  N_12 
REMARK    2  A    between atoms: N_12  and  C_13 
REMARK    3  A    between atoms: C_13  and  C_14 
REMARK    4  A    between atoms: C_14  and  O_15 
REMARK    5  A    between atoms: C_14  and  C_16 
REMARK    6  A    between atoms: C_16  and  O_17 
REMARK    7  A    between atoms: O_17  and  C_18 
ROOT
HETATM    1  C   UNL     1      41.773 -12.580   2.506  1.00  0.00     0.257 C 
HETATM    2  N   UNL     1      40.792 -12.786   3.444  1.00  0.00    -0.354 N 
HETATM    3  O   UNL     1      42.969 -12.618   2.778  1.00  0.00    -0.267 OA
HETATM    4  H   UNL     1      39.828 -12.611   3.164  1.00  0.00     0.162 HD
ENDROOT
BRANCH   2   5
HETATM    5  C   UNL     1      41.060 -13.025   4.849  1.00  0.00     0.156 C 
BRANCH   5   6
HETATM    6  C   UNL     1      40.703 -14.444   5.311  1.00  0.00     0.160 C 
BRANCH   6   7
HETATM    7  O   UNL     1      39.710 -14.376   6.347  1.00  0.00    -0.392 OA
HETATM    8  H   UNL     1      39.026 -15.029   6.101  1.00  0.00     0.210 HD
ENDBRANCH   6   7
BRANCH   6   9
HETATM    9  C   UNL     1      41.917 -15.248   5.794  1.00  0.00     0.209 C 
BRANCH   9  10
HETATM   10  O   UNL     1      42.874 -15.252   4.722  1.00  0.00    -0.349 OA
BRANCH  10  11
HETATM   11  C   UNL     1      43.154 -16.465   4.154  1.00  0.00     0.069 A 
HETATM   12  C   UNL     1      42.549 -16.681   2.913  1.00  0.00     0.038 A 
HETATM   13  C   UNL     1      42.756 -17.874   2.217  1.00  0.00     0.026 A 
HETATM   14  C   UNL     1      43.581 -18.853   2.764  1.00  0.00     0.034 A 
HETATM   15 CL   UNL     1      43.847 -20.324   1.911  1.00  0.00    -0.084 Cl
HETATM   16  C   UNL     1      44.196 -18.646   3.997  1.00  0.00     0.026 A 
HETATM   17  C   UNL     1      43.981 -17.452   4.695  1.00  0.00     0.038 A 
ENDBRANCH  10  11
ENDBRANCH   9  10
ENDBRANCH   6   9
ENDBRANCH   5   6
ENDBRANCH   2   5
BRANCH   1  18
HETATM   18  C   UNL     1      41.294 -12.288   1.170  1.00  0.00     0.098 A 
HETATM   19  C   UNL     1      40.632 -13.122   0.286  1.00  0.00     0.167 A 
HETATM   20  N   UNL     1      40.396 -12.365  -0.866  1.00  0.00    -0.226 N 
HETATM   21  N   UNL     1      40.231 -14.432   0.386  1.00  0.00    -0.240 NA
HETATM   22  C   UNL     1      39.747 -12.924  -1.962  1.00  0.00     0.128 A 
HETATM   23  N   UNL     1      40.867 -11.101  -0.746  1.00  0.00    -0.178 NA
HETATM   24  C   UNL     1      39.335 -14.202  -1.934  1.00  0.00    -0.027 A 
HETATM   25  C   UNL     1      38.638 -14.931  -3.026  1.00  0.00     0.051 C 
HETATM   26  C   UNL     1      39.628 -14.922  -0.656  1.00  0.00     0.127 A 
HETATM   27  C   UNL     1      41.404 -11.066   0.476  1.00  0.00     0.160 A 
ENDBRANCH   1  18
TORSDOF 7
ENDMDL
MODEL 7
REMARK VINA RESULT:      -7.2      4.300      6.772
REMARK  7 active torsions:
REMARK  status: ('A' for Active; 'I' for Inactive)
REMARK    1  A    between atoms: C_10  and  C_11 
REMARK       I    between atoms: C_11  and  N_12 
REMARK    2  A    between atoms: N_12  and  C_13 
REMARK    3  A    between atoms: C_13  and  C_14 
REMARK    4  A    between atoms: C_14  and  O_15 
REMARK    5  A    between atoms: C_14  and  C_16 
REMARK    6  A    between atoms: C_16  and  O_17 
REMARK    7  A    between atoms: O_17  and  C_18 
ROOT
HETATM    1  C   UNL     1      42.078 -14.529   5.304  1.00  0.00     0.257 C 
HETATM    2  N   UNL     1      41.776 -13.940   4.102  1.00  0.00    -0.354 N 
HETATM    3  O   UNL     1      41.669 -14.096   6.378  1.00  0.00    -0.267 OA
HETATM    4  H   UNL     1      42.258 -14.285   3.274  1.00  0.00     0.162 HD
ENDROOT
BRANCH   2   5
HETATM    5  C   UNL     1      40.984 -12.732   3.974  1.00  0.00     0.156 C 
BRANCH   5   6
HETATM    6  C   UNL     1      41.630 -11.662   3.086  1.00  0.00     0.160 C 
BRANCH   6   7
HETATM    7  O   UNL     1      42.385 -12.296   2.040  1.00  0.00    -0.392 OA
HETATM    8  H   UNL     1      43.321 -12.093   2.229  1.00  0.00     0.210 HD
ENDBRANCH   6   7
BRANCH   6   9
HETATM    9  C   UNL     1      42.520 -10.684   3.863  1.00  0.00     0.209 C 
BRANCH   9  10
HETATM   10  O   UNL     1      43.561 -11.458   4.480  1.00  0.00    -0.349 OA
BRANCH  10  11
HETATM   11  C   UNL     1      43.882 -11.139   5.771  1.00  0.00     0.069 A 
HETATM   12  C   UNL     1      45.226 -11.332   6.103  1.00  0.00     0.038 A 
HETATM   13  C   UNL     1      45.692 -11.039   7.386  1.00  0.00     0.026 A 
HETATM   14  C   UNL     1      44.810 -10.539   8.340  1.00  0.00     0.034 A 
HETATM   15 CL   UNL     1      45.377 -10.169   9.921  1.00  0.00    -0.084 Cl
HETATM   16  C   UNL     1      43.469 -10.335   8.018  1.00  0.00     0.026 A 
HETATM   17  C   UNL     1      43.004 -10.637   6.733  1.00  0.00     0.038 A 
ENDBRANCH  10  11
ENDBRANCH   9  10
ENDBRANCH   6   9
ENDBRANCH   5   6
ENDBRANCH   2   5
BRANCH   1  18
HETATM   18  C   UNL     1      42.941 -15.690   5.220  1.00  0.00     0.098 A 
HETATM   19  C   UNL     1      42.958 -16.688   4.262  1.00  0.00     0.167 A 
HETATM   20  N   UNL     1      43.970 -17.578   4.639  1.00  0.00    -0.226 N 
HETATM   21  N   UNL     1      42.201 -16.890   3.134  1.00  0.00    -0.240 NA
HETATM   22  C   UNL     1      44.239 -18.710   3.878  1.00  0.00     0.128 A 
HETATM   23  N   UNL     1      44.591 -17.183   5.776  1.00  0.00    -0.178 NA
HETATM   24  C   UNL     1      43.533 -18.971   2.766  1.00  0.00    -0.027 A 
HETATM   25  C   UNL     1      43.704 -20.139   1.863  1.00  0.00     0.051 C 
HETATM   26  C   UNL     1      42.480 -17.958   2.446  1.00  0.00     0.127 A 
HETATM   27  C   UNL     1      43.966 -16.054   6.116  1.00  0.00     0.160 A 
ENDBRANCH   1  18
TORSDOF 7
ENDMDL
MODEL 8
REMARK VINA RESULT:      -7.2      1.404      2.082
REMARK  7 active torsions:
REMARK  status: ('A' for Active; 'I' for Inactive)
REMARK    1  A    between atoms: C_10  and  C_11 
REMARK       I    between atoms: C_11  and  N_12 
REMARK    2  A    between atoms: N_12  and  C_13 
REMARK    3  A    between atoms: C_13  and  C_14 
REMARK    4  A    between atoms: C_14  and  O_15 
REMARK    5  A    between atoms: C_14  and  C_16 
REMARK    6  A    between atoms: C_16  and  O_17 
REMARK    7  A    between atoms: O_17  and  C_18 
ROOT
HETATM    1  C   UNL     1      41.008 -14.279   5.343  1.00  0.00     0.257 C 
HETATM    2  N   UNL     1      42.344 -14.233   5.657  1.00  0.00    -0.354 N 
HETATM    3  O   UNL     1      40.129 -14.362   6.196  1.00  0.00    -0.267 OA
HETATM    4  H   UNL     1      43.010 -14.293   4.888  1.00  0.00     0.162 HD
ENDROOT
BRANCH   2   5
HETATM    5  C   UNL     1      42.856 -14.318   7.010  1.00  0.00     0.156 C 
BRANCH   5   6
HETATM    6  C   UNL     1      42.970 -15.754   7.537  1.00  0.00     0.160 C 
BRANCH   6   7
HETATM    7  O   UNL     1      43.230 -15.729   8.950  1.00  0.00    -0.392 OA
HETATM    8  H   UNL     1      43.707 -16.557   9.146  1.00  0.00     0.210 HD
ENDBRANCH   6   7
BRANCH   6   9
HETATM    9  C   UNL     1      44.042 -16.582   6.816  1.00  0.00     0.209 C 
BRANCH   9  10
HETATM   10  O   UNL     1      44.076 -16.133   5.452  1.00  0.00    -0.349 OA
BRANCH  10  11
HETATM   11  C   UNL     1      43.889 -17.085   4.487  1.00  0.00     0.069 A 
HETATM   12  C   UNL     1      44.298 -18.371   4.850  1.00  0.00     0.038 A 
HETATM   13  C   UNL     1      44.158 -19.441   3.962  1.00  0.00     0.026 A 
HETATM   14  C   UNL     1      43.596 -19.223   2.707  1.00  0.00     0.034 A 
HETATM   15 CL   UNL     1      43.414 -20.535   1.610  1.00  0.00    -0.084 Cl
HETATM   16  C   UNL     1      43.178 -17.946   2.337  1.00  0.00     0.026 A 
HETATM   17  C   UNL     1      43.326 -16.875   3.226  1.00  0.00     0.038 A 
ENDBRANCH  10  11
ENDBRANCH   9  10
ENDBRANCH   6   9
ENDBRANCH   5   6
ENDBRANCH   2   5
BRANCH   1  18
HETATM   18  C   UNL     1      40.708 -14.249   3.926  1.00  0.00     0.098 A 
HETATM   19  C   UNL     1      40.953 -13.240   3.011  1.00  0.00     0.167 A 
HETATM   20  N   UNL     1      40.469 -13.701   1.781  1.00  0.00    -0.226 N 
HETATM   21  N   UNL     1      41.534 -12.004   3.142  1.00  0.00    -0.240 NA
HETATM   22  C   UNL     1      40.557 -12.907   0.642  1.00  0.00     0.128 A 
HETATM   23  N   UNL     1      39.943 -14.945   1.879  1.00  0.00    -0.178 NA
HETATM   24  C   UNL     1      41.109 -11.684   0.702  1.00  0.00    -0.027 A 
HETATM   25  C   UNL     1      41.264 -10.728  -0.426  1.00  0.00     0.051 C 
HETATM   26  C   UNL     1      41.601 -11.289   2.057  1.00  0.00     0.127 A 
HETATM   27  C   UNL     1      40.089 -15.263   3.167  1.00  0.00     0.160 A 
ENDBRANCH   1  18
TORSDOF 7
ENDMDL
MODEL 9
REMARK VINA RESULT:      -6.9      3.580      5.541
REMARK  7 active torsions:
REMARK  status: ('A' for Active; 'I' for Inactive)
REMARK    1  A    between atoms: C_10  and  C_11 
REMARK       I    between atoms: C_11  and  N_12 
REMARK    2  A    between atoms: N_12  and  C_13 
REMARK    3  A    between atoms: C_13  and  C_14 
REMARK    4  A    between atoms: C_14  and  O_15 
REMARK    5  A    between atoms: C_14  and  C_16 
REMARK    6  A    between atoms: C_16  and  O_17 
REMARK    7  A    between atoms: O_17  and  C_18 
ROOT
HETATM    1  C   UNL     1      41.427 -13.054   5.471  1.00  0.00     0.257 C 
HETATM    2  N   UNL     1      41.498 -12.937   4.105  1.00  0.00    -0.354 N 
HETATM    3  O   UNL     1      40.457 -13.539   6.047  1.00  0.00    -0.267 OA
HETATM    4  H   UNL     1      42.279 -12.410   3.717  1.00  0.00     0.162 HD
ENDROOT
BRANCH   2   5
HETATM    5  C   UNL     1      40.429 -13.329   3.208  1.00  0.00     0.156 C 
BRANCH   5   6
HETATM    6  C   UNL     1      40.503 -14.796   2.764  1.00  0.00     0.160 C 
BRANCH   6   7
HETATM    7  O   UNL     1      40.131 -15.649   3.859  1.00  0.00    -0.392 OA
HETATM    8  H   UNL     1      39.351 -15.230   4.268  1.00  0.00     0.210 HD
ENDBRANCH   6   7
BRANCH   6   9
HETATM    9  C   UNL     1      41.881 -15.198   2.224  1.00  0.00     0.209 C 
BRANCH   9  10
HETATM   10  O   UNL     1      42.756 -15.332   3.356  1.00  0.00    -0.349 OA
BRANCH  10  11
HETATM   11  C   UNL     1      43.188 -16.596   3.651  1.00  0.00     0.069 A 
HETATM   12  C   UNL     1      43.433 -16.827   5.008  1.00  0.00     0.038 A 
HETATM   13  C   UNL     1      43.872 -18.077   5.450  1.00  0.00     0.026 A 
HETATM   14  C   UNL     1      44.058 -19.105   4.530  1.00  0.00     0.034 A 
HETATM   15 CL   UNL     1      44.592 -20.650   5.067  1.00  0.00    -0.084 Cl
HETATM   16  C   UNL     1      43.810 -18.889   3.176  1.00  0.00     0.026 A 
HETATM   17  C   UNL     1      43.377 -17.633   2.735  1.00  0.00     0.038 A 
ENDBRANCH  10  11
ENDBRANCH   9  10
ENDBRANCH   6   9
ENDBRANCH   5   6
ENDBRANCH   2   5
BRANCH   1  18
HETATM   18  C   UNL     1      42.574 -12.540   6.192  1.00  0.00     0.098 A 
HETATM   19  C   UNL     1      42.741 -11.298   6.780  1.00  0.00     0.167 A 
HETATM   20  N   UNL     1      44.023 -11.298   7.341  1.00  0.00    -0.226 N 
HETATM   21  N   UNL     1      41.913 -10.206   6.868  1.00  0.00    -0.240 NA
HETATM   22  C   UNL     1      44.506 -10.177   8.006  1.00  0.00     0.128 A 
HETATM   23  N   UNL     1      44.661 -12.476   7.142  1.00  0.00    -0.178 NA
HETATM   24  C   UNL     1      43.751  -9.072   8.123  1.00  0.00    -0.027 A 
HETATM   25  C   UNL     1      44.136  -7.805   8.798  1.00  0.00     0.051 C 
HETATM   26  C   UNL     1      42.397  -9.176   7.497  1.00  0.00     0.127 A 
HETATM   27  C   UNL     1      43.786 -13.211   6.452  1.00  0.00     0.160 A 
ENDBRANCH   1  18
TORSDOF 7
ENDMDL
MODEL 10
REMARK VINA RESULT:      -6.8      5.446      7.645
REMARK  7 active torsions:
REMARK  status: ('A' for Active; 'I' for Inactive)
REMARK    1  A    between atoms: C_10  and  C_11 
REMARK       I    between atoms: C_11  and  N_12 
REMARK    2  A    between atoms: N_12  and  C_13 
REMARK    3  A    between atoms: C_13  and  C_14 
REMARK    4  A    between atoms: C_14  and  O_15 
REMARK    5  A    between atoms: C_14  and  C_16 
REMARK    6  A    between atoms: C_16  and  O_17 
REMARK    7  A    between atoms: O_17  and  C_18 
ROOT
HETATM    1  C   UNL     1      42.261 -13.699   4.741  1.00  0.00     0.257 C 
HETATM    2  N   UNL     1      43.349 -12.866   4.652  1.00  0.00    -0.354 N 
HETATM    3  O   UNL     1      41.427 -13.608   5.637  1.00  0.00    -0.267 OA
HETATM    4  H   UNL     1      44.057 -13.090   3.955  1.00  0.00     0.162 HD
ENDROOT
BRANCH   2   5
HETATM    5  C   UNL     1      43.648 -11.828   5.619  1.00  0.00     0.156 C 
BRANCH   5   6
HETATM    6  C   UNL     1      44.469 -12.320   6.818  1.00  0.00     0.160 C 
BRANCH   6   7
HETATM    7  O   UNL     1      43.595 -12.937   7.778  1.00  0.00    -0.392 OA
HETATM    8  H   UNL     1      42.852 -12.315   7.897  1.00  0.00     0.210 HD
ENDBRANCH   6   7
BRANCH   6   9
HETATM    9  C   UNL     1      45.292 -11.212   7.485  1.00  0.00     0.209 C 
BRANCH   9  10
HETATM   10  O   UNL     1      44.484 -10.024   7.481  1.00  0.00    -0.349 OA
BRANCH  10  11
HETATM   11  C   UNL     1      44.140  -9.510   8.701  1.00  0.00     0.069 A 
HETATM   12  C   UNL     1      44.885 -10.007   9.774  1.00  0.00     0.038 A 
HETATM   13  C   UNL     1      44.644  -9.562  11.076  1.00  0.00     0.026 A 
HETATM   14  C   UNL     1      43.657  -8.607  11.303  1.00  0.00     0.034 A 
HETATM   15 CL   UNL     1      43.357  -8.048  12.903  1.00  0.00    -0.084 Cl
HETATM   16  C   UNL     1      42.912  -8.098  10.240  1.00  0.00     0.026 A 
HETATM   17  C   UNL     1      43.152  -8.551   8.938  1.00  0.00     0.038 A 
ENDBRANCH  10  11
ENDBRANCH   9  10
ENDBRANCH   6   9
ENDBRANCH   5   6
ENDBRANCH   2   5
BRANCH   1  18
HETATM   18  C   UNL     1      42.180 -14.716   3.712  1.00  0.00     0.098 A 
HETATM   19  C   UNL     1      42.699 -15.999   3.720  1.00  0.00     0.167 A 
HETATM   20  N   UNL     1      42.351 -16.571   2.491  1.00  0.00    -0.226 N 
HETATM   21  N   UNL     1      43.422 -16.690   4.661  1.00  0.00    -0.240 NA
HETATM   22  C   UNL     1      42.738 -17.870   2.179  1.00  0.00     0.128 A 
HETATM   23  N   UNL     1      41.637 -15.717   1.721  1.00  0.00    -0.178 NA
HETATM   24  C   UNL     1      43.451 -18.600   3.052  1.00  0.00    -0.027 A 
HETATM   25  C   UNL     1      43.935 -19.991   2.853  1.00  0.00     0.051 C 
HETATM   26  C   UNL     1      43.765 -17.902   4.336  1.00  0.00     0.127 A 
HETATM   27  C   UNL     1      41.541 -14.609   2.460  1.00  0.00     0.160 A 
ENDBRANCH   1  18
TORSDOF 7
ENDMDL
