MODEL 1
REMARK VINA RESULT:      -7.8      0.000      0.000
REMARK  2 active torsions:
REMARK  status: ('A' for Active; 'I' for Inactive)
REMARK    1  A    between atoms: C_2  and  C_3 
REMARK    2  A    between atoms: C_6  and  C_7 
ROOT
HETATM    1  C   UNL     1      42.265 -13.268   3.099  1.00  0.00     0.119 C 
HETATM    2  S   UNL     1      42.783 -12.531   4.673  1.00  0.00    -0.141 SA
HETATM    3  C   UNL     1      41.274 -11.695   5.236  1.00  0.00     0.136 C 
HETATM    4  C   UNL     1      41.639 -10.753   6.383  1.00  0.00     0.031 C 
HETATM    5  C   UNL     1      40.254 -12.719   5.701  1.00  0.00     0.236 C 
HETATM    6  O   UNL     1      39.967 -12.967   6.861  1.00  0.00    -0.272 OA
HETATM    7  N   UNL     1      39.457 -13.406   4.735  1.00  0.00    -0.311 N 
HETATM    8  C   UNL     1      39.648 -13.322   3.375  1.00  0.00     0.134 C 
HETATM    9  C   UNL     1      40.830 -13.187   2.670  1.00  0.00     0.032 C 
HETATM   10  N   UNL     1      38.648 -13.420   2.447  1.00  0.00    -0.262 N 
HETATM   11  H   UNL     1      37.658 -13.576   2.600  1.00  0.00     0.191 HD
HETATM   12  N   UNL     1      39.055 -13.175   1.200  1.00  0.00    -0.178 NA
HETATM   13  C   UNL     1      40.383 -13.064   1.307  1.00  0.00     0.062 C 
HETATM   14  C   UNL     1      41.196 -12.883   0.073  1.00  0.00     0.073 C 
HETATM   15  H   UNL     1      38.652 -13.890   5.116  1.00  0.00     0.170 HD
ENDROOT
BRANCH   1  16
HETATM   16  C   UNL     1      42.604 -14.753   3.021  1.00  0.00    -0.040 A 
HETATM   17  C   UNL     1      43.048 -15.367   1.836  1.00  0.00     0.009 A 
HETATM   18  C   UNL     1      43.428 -16.712   1.821  1.00  0.00     0.007 A 
HETATM   19  C   UNL     1      43.368 -17.481   2.987  1.00  0.00    -0.059 A 
HETATM   20  C   UNL     1      42.900 -16.889   4.164  1.00  0.00     0.007 A 
HETATM   21  C   UNL     1      42.517 -15.545   4.180  1.00  0.00     0.009 A 
BRANCH  19  22
HETATM   22  C   UNL     1      43.844 -18.911   2.985  1.00  0.00     0.034 C 
HETATM   23  C   UNL     1      43.074 -19.750   1.976  1.00  0.00     0.010 C 
ENDBRANCH  19  22
ENDBRANCH   1  16
TORSDOF 2
ENDMDL
MODEL 2
REMARK VINA RESULT:      -7.6      2.660      3.933
REMARK  2 active torsions:
REMARK  status: ('A' for Active; 'I' for Inactive)
REMARK    1  A    between atoms: C_2  and  C_3 
REMARK    2  A    between atoms: C_6  and  C_7 
ROOT
HETATM    1  C   UNL     1      41.423 -14.244   4.227  1.00  0.00     0.119 C 
HETATM    2  S   UNL     1      39.882 -14.100   3.281  1.00  0.00    -0.141 SA
HETATM    3  C   UNL     1      39.975 -12.410   2.625  1.00  0.00     0.136 C 
HETATM    4  C   UNL     1      38.600 -12.025   2.081  1.00  0.00     0.031 C 
HETATM    5  C   UNL     1      41.016 -12.336   1.523  1.00  0.00     0.236 C 
HETATM    6  O   UNL     1      40.788 -12.269   0.325  1.00  0.00    -0.272 OA
HETATM    7  N   UNL     1      42.398 -12.228   1.868  1.00  0.00    -0.311 N 
HETATM    8  C   UNL     1      42.886 -12.339   3.150  1.00  0.00     0.134 C 
HETATM    9  C   UNL     1      42.434 -13.136   4.186  1.00  0.00     0.032 C 
HETATM   10  N   UNL     1      43.993 -11.683   3.614  1.00  0.00    -0.262 N 
HETATM   11  H   UNL     1      44.610 -11.054   3.114  1.00  0.00     0.191 HD
HETATM   12  N   UNL     1      44.193 -11.843   4.924  1.00  0.00    -0.178 NA
HETATM   13  C   UNL     1      43.278 -12.749   5.285  1.00  0.00     0.062 C 
HETATM   14  C   UNL     1      43.272 -13.251   6.686  1.00  0.00     0.073 C 
HETATM   15  H   UNL     1      43.005 -11.951   1.105  1.00  0.00     0.170 HD
ENDROOT
BRANCH   1  16
HETATM   16  C   UNL     1      42.211 -15.495   3.855  1.00  0.00    -0.040 A 
HETATM   17  C   UNL     1      42.798 -16.335   4.820  1.00  0.00     0.009 A 
HETATM   18  C   UNL     1      43.443 -17.517   4.446  1.00  0.00     0.007 A 
HETATM   19  C   UNL     1      43.526 -17.888   3.102  1.00  0.00    -0.059 A 
HETATM   20  C   UNL     1      42.973 -17.046   2.132  1.00  0.00     0.007 A 
HETATM   21  C   UNL     1      42.330 -15.862   2.503  1.00  0.00     0.009 A 
BRANCH  19  22
HETATM   22  C   UNL     1      44.160 -19.198   2.708  1.00  0.00     0.034 C 
HETATM   23  C   UNL     1      43.158 -20.113   2.018  1.00  0.00     0.010 C 
ENDBRANCH  19  22
ENDBRANCH   1  16
TORSDOF 2
ENDMDL
MODEL 3
REMARK VINA RESULT:      -7.6      1.756      2.505
REMARK  2 active torsions:
REMARK  status: ('A' for Active; 'I' for Inactive)
REMARK    1  A    between atoms: C_2  and  C_3 
REMARK    2  A    between atoms: C_6  and  C_7 
ROOT
HETATM    1  C   UNL     1      42.946 -14.445   4.304  1.00  0.00     0.119 C 
HETATM    2  S   UNL     1      43.018 -13.108   5.527  1.00  0.00    -0.141 SA
HETATM    3  C   UNL     1      41.486 -12.190   5.204  1.00  0.00     0.136 C 
HETATM    4  C   UNL     1      41.562 -10.848   5.930  1.00  0.00     0.031 C 
HETATM    5  C   UNL     1      40.289 -12.986   5.693  1.00  0.00     0.236 C 
HETATM    6  O   UNL     1      39.640 -12.756   6.701  1.00  0.00    -0.272 OA
HETATM    7  N   UNL     1      39.771 -14.044   4.885  1.00  0.00    -0.311 N 
HETATM    8  C   UNL     1      40.376 -14.510   3.740  1.00  0.00     0.134 C 
HETATM    9  C   UNL     1      41.724 -14.615   3.450  1.00  0.00     0.032 C 
HETATM   10  N   UNL     1      39.703 -15.025   2.666  1.00  0.00    -0.262 N 
HETATM   11  H   UNL     1      38.705 -15.154   2.549  1.00  0.00     0.191 HD
HETATM   12  N   UNL     1      40.493 -15.286   1.622  1.00  0.00    -0.178 NA
HETATM   13  C   UNL     1      41.728 -15.077   2.087  1.00  0.00     0.062 C 
HETATM   14  C   UNL     1      42.892 -15.373   1.208  1.00  0.00     0.073 C 
HETATM   15  H   UNL     1      38.850 -14.370   5.154  1.00  0.00     0.170 HD
ENDROOT
BRANCH   1  16
HETATM   16  C   UNL     1      43.164 -15.815   4.936  1.00  0.00    -0.040 A 
HETATM   17  C   UNL     1      42.677 -16.146   6.214  1.00  0.00     0.009 A 
HETATM   18  C   UNL     1      42.825 -17.437   6.729  1.00  0.00     0.007 A 
HETATM   19  C   UNL     1      43.470 -18.429   5.986  1.00  0.00    -0.059 A 
HETATM   20  C   UNL     1      43.984 -18.105   4.727  1.00  0.00     0.007 A 
HETATM   21  C   UNL     1      43.840 -16.813   4.212  1.00  0.00     0.009 A 
BRANCH  19  22
HETATM   22  C   UNL     1      43.566 -19.838   6.513  1.00  0.00     0.034 C 
HETATM   23  C   UNL     1      43.917 -20.821   5.406  1.00  0.00     0.010 C 
ENDBRANCH  19  22
ENDBRANCH   1  16
TORSDOF 2
ENDMDL
MODEL 4
REMARK VINA RESULT:      -7.4      7.923     11.107
REMARK  2 active torsions:
REMARK  status: ('A' for Active; 'I' for Inactive)
REMARK    1  A    between atoms: C_2  and  C_3 
REMARK    2  A    between atoms: C_6  and  C_7 
ROOT
HETATM    1  C   UNL     1      42.490  -9.921  10.986  1.00  0.00     0.119 C 
HETATM    2  S   UNL     1      44.142 -10.459  10.463  1.00  0.00    -0.141 SA
HETATM    3  C   UNL     1      44.224  -9.878   8.746  1.00  0.00     0.136 C 
HETATM    4  C   UNL     1      45.421 -10.541   8.066  1.00  0.00     0.031 C 
HETATM    5  C   UNL     1      44.372  -8.367   8.714  1.00  0.00     0.236 C 
HETATM    6  O   UNL     1      45.395  -7.753   8.459  1.00  0.00    -0.272 OA
HETATM    7  N   UNL     1      43.217  -7.545   8.888  1.00  0.00    -0.311 N 
HETATM    8  C   UNL     1      41.975  -8.020   9.241  1.00  0.00     0.134 C 
HETATM    9  C   UNL     1      41.652  -9.077  10.072  1.00  0.00     0.032 C 
HETATM   10  N   UNL     1      40.792  -7.457   8.848  1.00  0.00    -0.262 N 
HETATM   11  H   UNL     1      40.644  -6.633   8.276  1.00  0.00     0.191 HD
HETATM   12  N   UNL     1      39.721  -8.170   9.203  1.00  0.00    -0.178 NA
HETATM   13  C   UNL     1      40.218  -9.141   9.976  1.00  0.00     0.062 C 
HETATM   14  C   UNL     1      39.281 -10.086  10.641  1.00  0.00     0.073 C 
HETATM   15  H   UNL     1      43.344  -6.574   8.626  1.00  0.00     0.170 HD
ENDROOT
BRANCH   1  16
HETATM   16  C   UNL     1      42.528  -9.144  12.297  1.00  0.00    -0.040 A 
HETATM   17  C   UNL     1      43.384  -8.047  12.503  1.00  0.00     0.009 A 
HETATM   18  C   UNL     1      43.334  -7.307  13.688  1.00  0.00     0.007 A 
HETATM   19  C   UNL     1      42.433  -7.647  14.701  1.00  0.00    -0.059 A 
HETATM   20  C   UNL     1      41.596  -8.753  14.520  1.00  0.00     0.007 A 
HETATM   21  C   UNL     1      41.648  -9.496  13.337  1.00  0.00     0.009 A 
BRANCH  19  22
HETATM   22  C   UNL     1      42.331  -6.805  15.947  1.00  0.00     0.034 C 
HETATM   23  C   UNL     1      41.420  -7.453  16.980  1.00  0.00     0.010 C 
ENDBRANCH  19  22
ENDBRANCH   1  16
TORSDOF 2
ENDMDL
MODEL 5
REMARK VINA RESULT:      -6.9      2.777      6.152
REMARK  2 active torsions:
REMARK  status: ('A' for Active; 'I' for Inactive)
REMARK    1  A    between atoms: C_2  and  C_3 
REMARK    2  A    between atoms: C_6  and  C_7 
ROOT
HETATM    1  C   UNL     1      42.985 -13.755   4.865  1.00  0.00     0.119 C 
HETATM    2  S   UNL     1      42.833 -13.201   3.145  1.00  0.00    -0.141 SA
HETATM    3  C   UNL     1      41.258 -13.939   2.627  1.00  0.00     0.136 C 
HETATM    4  C   UNL     1      41.152 -13.838   1.106  1.00  0.00     0.031 C 
HETATM    5  C   UNL     1      40.100 -13.210   3.284  1.00  0.00     0.236 C 
HETATM    6  O   UNL     1      39.350 -12.417   2.738  1.00  0.00    -0.272 OA
HETATM    7  N   UNL     1      39.749 -13.522   4.633  1.00  0.00    -0.311 N 
HETATM    8  C   UNL     1      40.488 -14.342   5.455  1.00  0.00     0.134 C 
HETATM    9  C   UNL     1      41.860 -14.507   5.512  1.00  0.00     0.032 C 
HETATM   10  N   UNL     1      39.958 -15.128   6.441  1.00  0.00    -0.262 N 
HETATM   11  H   UNL     1      38.988 -15.220   6.722  1.00  0.00     0.191 HD
HETATM   12  N   UNL     1      40.853 -15.935   7.015  1.00  0.00    -0.178 NA
HETATM   13  C   UNL     1      42.021 -15.551   6.490  1.00  0.00     0.062 C 
HETATM   14  C   UNL     1      43.277 -16.179   6.983  1.00  0.00     0.073 C 
HETATM   15  H   UNL     1      38.841 -13.178   4.926  1.00  0.00     0.170 HD
ENDROOT
BRANCH   1  16
HETATM   16  C   UNL     1      43.271 -12.599   5.818  1.00  0.00    -0.040 A 
HETATM   17  C   UNL     1      44.359 -12.604   6.709  1.00  0.00     0.009 A 
HETATM   18  C   UNL     1      44.638 -11.493   7.510  1.00  0.00     0.007 A 
HETATM   19  C   UNL     1      43.835 -10.352   7.448  1.00  0.00    -0.059 A 
HETATM   20  C   UNL     1      42.732 -10.346   6.587  1.00  0.00     0.007 A 
HETATM   21  C   UNL     1      42.450 -11.458   5.788  1.00  0.00     0.009 A 
BRANCH  19  22
HETATM   22  C   UNL     1      44.179  -9.130   8.260  1.00  0.00     0.034 C 
HETATM   23  C   UNL     1      45.685  -8.964   8.400  1.00  0.00     0.010 C 
ENDBRANCH  19  22
ENDBRANCH   1  16
TORSDOF 2
ENDMDL
MODEL 6
REMARK VINA RESULT:      -6.8      2.841      4.003
REMARK  2 active torsions:
REMARK  status: ('A' for Active; 'I' for Inactive)
REMARK    1  A    between atoms: C_2  and  C_3 
REMARK    2  A    between atoms: C_6  and  C_7 
ROOT
HETATM    1  C   UNL     1      40.106 -13.006   2.916  1.00  0.00     0.119 C 
HETATM    2  S   UNL     1      39.513 -12.245   1.380  1.00  0.00    -0.141 SA
HETATM    3  C   UNL     1      40.036 -10.517   1.564  1.00  0.00     0.136 C 
HETATM    4  C   UNL     1      39.323  -9.679   0.504  1.00  0.00     0.031 C 
HETATM    5  C   UNL     1      41.541 -10.408   1.396  1.00  0.00     0.236 C 
HETATM    6  O   UNL     1      42.122  -9.971   0.416  1.00  0.00    -0.272 OA
HETATM    7  N   UNL     1      42.396 -10.735   2.493  1.00  0.00    -0.311 N 
HETATM    8  C   UNL     1      41.961 -11.298   3.671  1.00  0.00     0.134 C 
HETATM    9  C   UNL     1      40.940 -12.207   3.875  1.00  0.00     0.032 C 
HETATM   10  N   UNL     1      42.540 -11.078   4.891  1.00  0.00    -0.262 N 
HETATM   11  H   UNL     1      43.347 -10.508   5.114  1.00  0.00     0.191 HD
HETATM   12  N   UNL     1      41.863 -11.625   5.904  1.00  0.00    -0.178 NA
HETATM   13  C   UNL     1      40.907 -12.343   5.307  1.00  0.00     0.062 C 
HETATM   14  C   UNL     1      40.006 -13.184   6.142  1.00  0.00     0.073 C 
HETATM   15  H   UNL     1      43.354 -10.421   2.391  1.00  0.00     0.170 HD
ENDROOT
BRANCH   1  16
HETATM   16  C   UNL     1      40.925 -14.265   2.655  1.00  0.00    -0.040 A 
HETATM   17  C   UNL     1      42.054 -14.274   1.817  1.00  0.00     0.009 A 
HETATM   18  C   UNL     1      42.828 -15.428   1.665  1.00  0.00     0.007 A 
HETATM   19  C   UNL     1      42.492 -16.604   2.340  1.00  0.00    -0.059 A 
HETATM   20  C   UNL     1      41.355 -16.616   3.153  1.00  0.00     0.007 A 
HETATM   21  C   UNL     1      40.578 -15.464   3.304  1.00  0.00     0.009 A 
BRANCH  19  22
HETATM   22  C   UNL     1      43.368 -17.826   2.230  1.00  0.00     0.034 C 
HETATM   23  C   UNL     1      43.939 -18.221   3.584  1.00  0.00     0.010 C 
ENDBRANCH  19  22
ENDBRANCH   1  16
TORSDOF 2
ENDMDL
MODEL 7
REMARK VINA RESULT:      -6.8      7.933      9.928
REMARK  2 active torsions:
REMARK  status: ('A' for Active; 'I' for Inactive)
REMARK    1  A    between atoms: C_2  and  C_3 
REMARK    2  A    between atoms: C_6  and  C_7 
ROOT
HETATM    1  C   UNL     1      41.357  -7.406  10.921  1.00  0.00     0.119 C 
HETATM    2  S   UNL     1      41.601  -6.441  12.437  1.00  0.00    -0.141 SA
HETATM    3  C   UNL     1      40.388  -7.171  13.573  1.00  0.00     0.136 C 
HETATM    4  C   UNL     1      40.242  -6.251  14.784  1.00  0.00     0.031 C 
HETATM    5  C   UNL     1      40.849  -8.549  14.012  1.00  0.00     0.236 C 
HETATM    6  O   UNL     1      41.317  -8.834  15.103  1.00  0.00    -0.272 OA
HETATM    7  N   UNL     1      40.643  -9.667  13.147  1.00  0.00    -0.311 N 
HETATM    8  C   UNL     1      40.184  -9.570  11.854  1.00  0.00     0.134 C 
HETATM    9  C   UNL     1      40.418  -8.577  10.921  1.00  0.00     0.032 C 
HETATM   10  N   UNL     1      39.427 -10.523  11.229  1.00  0.00    -0.262 N 
HETATM   11  H   UNL     1      39.108 -11.414  11.592  1.00  0.00     0.191 HD
HETATM   12  N   UNL     1      38.990 -10.147  10.025  1.00  0.00    -0.178 NA
HETATM   13  C   UNL     1      39.608  -8.983   9.803  1.00  0.00     0.062 C 
HETATM   14  C   UNL     1      39.430  -8.309   8.488  1.00  0.00     0.073 C 
HETATM   15  H   UNL     1      40.757 -10.572  13.590  1.00  0.00     0.170 HD
ENDROOT
BRANCH   1  16
HETATM   16  C   UNL     1      42.667  -7.966  10.379  1.00  0.00    -0.040 A 
HETATM   17  C   UNL     1      43.501  -8.810  11.136  1.00  0.00     0.009 A 
HETATM   18  C   UNL     1      44.654  -9.370  10.579  1.00  0.00     0.007 A 
HETATM   19  C   UNL     1      45.008  -9.098   9.255  1.00  0.00    -0.059 A 
HETATM   20  C   UNL     1      44.203  -8.238   8.502  1.00  0.00     0.007 A 
HETATM   21  C   UNL     1      43.052  -7.674   9.059  1.00  0.00     0.009 A 
BRANCH  19  22
HETATM   22  C   UNL     1      46.212  -9.759   8.635  1.00  0.00     0.034 C 
HETATM   23  C   UNL     1      45.825 -10.585   7.416  1.00  0.00     0.010 C 
ENDBRANCH  19  22
ENDBRANCH   1  16
TORSDOF 2
ENDMDL
MODEL 8
REMARK VINA RESULT:      -6.5      6.732      9.725
REMARK  2 active torsions:
REMARK  status: ('A' for Active; 'I' for Inactive)
REMARK    1  A    between atoms: C_2  and  C_3 
REMARK    2  A    between atoms: C_6  and  C_7 
ROOT
HETATM    1  C   UNL     1      43.382  -7.868   8.327  1.00  0.00     0.119 C 
HETATM    2  S   UNL     1      42.059  -6.992   7.447  1.00  0.00    -0.141 SA
HETATM    3  C   UNL     1      41.525  -8.213   6.216  1.00  0.00     0.136 C 
HETATM    4  C   UNL     1      40.643  -7.509   5.185  1.00  0.00     0.031 C 
HETATM    5  C   UNL     1      40.751  -9.330   6.893  1.00  0.00     0.236 C 
HETATM    6  O   UNL     1      39.541  -9.486   6.860  1.00  0.00    -0.272 OA
HETATM    7  N   UNL     1      41.464 -10.377   7.554  1.00  0.00    -0.311 N 
HETATM    8  C   UNL     1      42.824 -10.377   7.760  1.00  0.00     0.134 C 
HETATM    9  C   UNL     1      43.664  -9.308   8.015  1.00  0.00     0.032 C 
HETATM   10  N   UNL     1      43.599 -11.503   7.805  1.00  0.00    -0.262 N 
HETATM   11  H   UNL     1      43.313 -12.471   7.713  1.00  0.00     0.191 HD
HETATM   12  N   UNL     1      44.906 -11.244   7.883  1.00  0.00    -0.178 NA
HETATM   13  C   UNL     1      44.967  -9.918   8.045  1.00  0.00     0.062 C 
HETATM   14  C   UNL     1      46.291  -9.276   8.271  1.00  0.00     0.073 C 
HETATM   15  H   UNL     1      40.907 -11.195   7.775  1.00  0.00     0.170 HD
ENDROOT
BRANCH   1  16
HETATM   16  C   UNL     1      43.187  -7.835   9.839  1.00  0.00    -0.040 A 
HETATM   17  C   UNL     1      43.711  -8.823  10.692  1.00  0.00     0.009 A 
HETATM   18  C   UNL     1      43.582  -8.717  12.079  1.00  0.00     0.007 A 
HETATM   19  C   UNL     1      42.921  -7.627  12.651  1.00  0.00    -0.059 A 
HETATM   20  C   UNL     1      42.369  -6.654  11.812  1.00  0.00     0.007 A 
HETATM   21  C   UNL     1      42.495  -6.760  10.424  1.00  0.00     0.009 A 
BRANCH  19  22
HETATM   22  C   UNL     1      42.845  -7.480  14.149  1.00  0.00     0.034 C 
HETATM   23  C   UNL     1      41.826  -8.438  14.750  1.00  0.00     0.010 C 
ENDBRANCH  19  22
ENDBRANCH   1  16
TORSDOF 2
ENDMDL
MODEL 9
REMARK VINA RESULT:      -6.4     15.625     17.514
REMARK  2 active torsions:
REMARK  status: ('A' for Active; 'I' for Inactive)
REMARK    1  A    between atoms: C_2  and  C_3 
REMARK    2  A    between atoms: C_6  and  C_7 
ROOT
HETATM    1  C   UNL     1      44.937 -31.353  -0.899  1.00  0.00     0.119 C 
HETATM    2  S   UNL     1      43.544 -31.969   0.087  1.00  0.00    -0.141 SA
HETATM    3  C   UNL     1      43.465 -30.777   1.453  1.00  0.00     0.136 C 
HETATM    4  C   UNL     1      42.556 -31.346   2.541  1.00  0.00     0.031 C 
HETATM    5  C   UNL     1      42.921 -29.450   0.955  1.00  0.00     0.236 C 
HETATM    6  O   UNL     1      41.798 -29.016   1.154  1.00  0.00    -0.272 OA
HETATM    7  N   UNL     1      43.793 -28.544   0.276  1.00  0.00    -0.311 N 
HETATM    8  C   UNL     1      45.080 -28.848  -0.104  1.00  0.00     0.134 C 
HETATM    9  C   UNL     1      45.597 -30.056  -0.534  1.00  0.00     0.032 C 
HETATM   10  N   UNL     1      46.099 -27.938  -0.176  1.00  0.00    -0.262 N 
HETATM   11  H   UNL     1      46.072 -26.943   0.015  1.00  0.00     0.191 HD
HETATM   12  N   UNL     1      47.285 -28.491  -0.439  1.00  0.00    -0.178 NA
HETATM   13  C   UNL     1      46.999 -29.771  -0.693  1.00  0.00     0.062 C 
HETATM   14  C   UNL     1      48.091 -30.684  -1.129  1.00  0.00     0.073 C 
HETATM   15  H   UNL     1      43.434 -27.601   0.182  1.00  0.00     0.170 HD
ENDROOT
BRANCH   1  16
HETATM   16  C   UNL     1      44.574 -31.196  -2.371  1.00  0.00    -0.040 A 
HETATM   17  C   UNL     1      44.250 -29.953  -2.943  1.00  0.00     0.009 A 
HETATM   18  C   UNL     1      44.003 -29.834  -4.314  1.00  0.00     0.007 A 
HETATM   19  C   UNL     1      44.065 -30.953  -5.147  1.00  0.00    -0.059 A 
HETATM   20  C   UNL     1      44.357 -32.200  -4.585  1.00  0.00     0.007 A 
HETATM   21  C   UNL     1      44.602 -32.321  -3.215  1.00  0.00     0.009 A 
BRANCH  19  22
HETATM   22  C   UNL     1      43.867 -30.811  -6.635  1.00  0.00     0.034 C 
HETATM   23  C   UNL     1      44.369 -32.039  -7.380  1.00  0.00     0.010 C 
ENDBRANCH  19  22
ENDBRANCH   1  16
TORSDOF 2
ENDMDL
MODEL 10
REMARK VINA RESULT:      -6.4     15.576     17.048
REMARK  2 active torsions:
REMARK  status: ('A' for Active; 'I' for Inactive)
REMARK    1  A    between atoms: C_2  and  C_3 
REMARK    2  A    between atoms: C_6  and  C_7 
ROOT
HETATM    1  C   UNL     1      45.249 -31.225  -0.307  1.00  0.00     0.119 C 
HETATM    2  S   UNL     1      46.567 -31.249   0.938  1.00  0.00    -0.141 SA
HETATM    3  C   UNL     1      47.518 -29.755   0.541  1.00  0.00     0.136 C 
HETATM    4  C   UNL     1      48.848 -29.812   1.290  1.00  0.00     0.031 C 
HETATM    5  C   UNL     1      46.737 -28.518   0.948  1.00  0.00     0.236 C 
HETATM    6  O   UNL     1      46.965 -27.816   1.920  1.00  0.00    -0.272 OA
HETATM    7  N   UNL     1      45.701 -28.029   0.095  1.00  0.00    -0.311 N 
HETATM    8  C   UNL     1      45.240 -28.691  -1.020  1.00  0.00     0.134 C 
HETATM    9  C   UNL     1      45.114 -30.052  -1.233  1.00  0.00     0.032 C 
HETATM   10  N   UNL     1      44.753 -28.073  -2.138  1.00  0.00    -0.262 N 
HETATM   11  H   UNL     1      44.644 -27.081  -2.315  1.00  0.00     0.191 HD
HETATM   12  N   UNL     1      44.491 -28.917  -3.139  1.00  0.00    -0.178 NA
HETATM   13  C   UNL     1      44.671 -30.127  -2.600  1.00  0.00     0.062 C 
HETATM   14  C   UNL     1      44.367 -31.335  -3.415  1.00  0.00     0.073 C 
HETATM   15  H   UNL     1      45.388 -27.088   0.305  1.00  0.00     0.170 HD
ENDROOT
BRANCH   1  16
HETATM   16  C   UNL     1      43.867 -31.382   0.316  1.00  0.00    -0.040 A 
HETATM   17  C   UNL     1      43.034 -32.483   0.044  1.00  0.00     0.009 A 
HETATM   18  C   UNL     1      41.807 -32.636   0.696  1.00  0.00     0.007 A 
HETATM   19  C   UNL     1      41.376 -31.691   1.630  1.00  0.00    -0.059 A 
HETATM   20  C   UNL     1      42.182 -30.577   1.888  1.00  0.00     0.007 A 
HETATM   21  C   UNL     1      43.407 -30.421   1.234  1.00  0.00     0.009 A 
BRANCH  19  22
HETATM   22  C   UNL     1      40.087 -31.894   2.384  1.00  0.00     0.034 C 
HETATM   23  C   UNL     1      40.298 -31.776   3.886  1.00  0.00     0.010 C 
ENDBRANCH  19  22
ENDBRANCH   1  16
TORSDOF 2
ENDMDL
