MODEL 1
REMARK VINA RESULT:      -8.7      0.000      0.000
REMARK  7 active torsions:
REMARK  status: ('A' for Active; 'I' for Inactive)
REMARK    1  A    between atoms: O_2  and  C_3 
REMARK    2  A    between atoms: C_6  and  N_7 
REMARK    3  A    between atoms: N_7  and  C_8 
REMARK    4  A    between atoms: C_8  and  C_9 
REMARK       I    between atoms: C_9  and  N_10 
REMARK    5  A    between atoms: N_10  and  N_11 
REMARK       I    between atoms: N_11  and  C_12 
REMARK    6  A    between atoms: C_12  and  C_13 
REMARK    7  A    between atoms: N_15  and  C_16 
ROOT
HETATM    1  N   UNL     1      43.848 -12.876   6.967  1.00  0.00    -0.263 N 
HETATM    2  C   UNL     1      42.886 -12.980   5.979  1.00  0.00     0.273 C 
HETATM    3  O   UNL     1      42.001 -12.137   5.834  1.00  0.00    -0.266 OA
HETATM    4  H   UNL     1      44.311 -13.717   7.308  1.00  0.00     0.190 HD
ENDROOT
BRANCH   1   5
HETATM    5  N   UNL     1      43.683 -11.859   7.930  1.00  0.00    -0.266 N 
HETATM    6  C   UNL     1      44.768 -11.028   8.157  1.00  0.00     0.253 C 
HETATM    7  O   UNL     1      45.791 -11.074   7.470  1.00  0.00    -0.270 OA
HETATM    8  H   UNL     1      43.037 -12.077   8.687  1.00  0.00     0.190 HD
BRANCH   6   9
HETATM    9  C   UNL     1      44.568 -10.048   9.320  1.00  0.00     0.224 C 
BRANCH   9  10
HETATM   10  N   UNL     1      43.473 -10.512  10.169  1.00  0.00    -0.381 N 
HETATM   11  H   UNL     1      42.650 -10.778   9.628  1.00  0.00     0.160 HD
BRANCH  10  12
HETATM   12  C   UNL     1      43.190  -9.917  11.391  1.00  0.00     0.028 A 
HETATM   13  C   UNL     1      43.709  -8.641  11.649  1.00  0.00     0.032 A 
HETATM   14  C   UNL     1      43.372  -7.924  12.805  1.00  0.00     0.039 A 
HETATM   15  C   UNL     1      42.475  -8.465  13.722  1.00  0.00     0.068 A 
HETATM   16  C   UNL     1      41.944  -9.731  13.477  1.00  0.00     0.039 A 
HETATM   17  C   UNL     1      42.287 -10.442  12.320  1.00  0.00     0.032 A 
BRANCH  15  18
HETATM   18  O   UNL     1      42.039  -7.867  14.870  1.00  0.00    -0.356 OA
HETATM   19  C   UNL     1      40.887  -7.040  14.759  1.00  0.00     0.210 C 
ENDBRANCH  15  18
ENDBRANCH  10  12
ENDBRANCH   9  10
ENDBRANCH   6   9
ENDBRANCH   1   5
BRANCH   2  20
HETATM   20  C   UNL     1      42.999 -14.154   5.137  1.00  0.00     0.070 A 
HETATM   21  C   UNL     1      43.281 -15.436   5.567  1.00  0.00     0.137 A 
HETATM   22  N   UNL     1      43.268 -16.260   4.465  1.00  0.00    -0.244 N 
HETATM   23  N   UNL     1      42.974 -15.562   3.339  1.00  0.00    -0.179 NA
HETATM   24  C   UNL     1      42.821 -14.304   3.750  1.00  0.00     0.157 A 
BRANCH  22  25
HETATM   25  C   UNL     1      43.513 -17.660   4.412  1.00  0.00     0.059 A 
HETATM   26  C   UNL     1      43.539 -18.306   3.164  1.00  0.00     0.055 A 
HETATM   27  C   UNL     1      43.770 -19.679   3.098  1.00  0.00     0.036 A 
HETATM   28 CL   UNL     1      43.783 -20.471   1.570  1.00  0.00    -0.084 Cl
HETATM   29  C   UNL     1      43.986 -20.418   4.259  1.00  0.00     0.024 A 
HETATM   30  C   UNL     1      43.969 -19.781   5.499  1.00  0.00     0.004 A 
HETATM   31  C   UNL     1      43.729 -18.406   5.580  1.00  0.00     0.031 A 
ENDBRANCH  22  25
ENDBRANCH   2  20
TORSDOF 7
ENDMDL
MODEL 2
REMARK VINA RESULT:      -8.6      1.402      1.852
REMARK  7 active torsions:
REMARK  status: ('A' for Active; 'I' for Inactive)
REMARK    1  A    between atoms: O_2  and  C_3 
REMARK    2  A    between atoms: C_6  and  N_7 
REMARK    3  A    between atoms: N_7  and  C_8 
REMARK    4  A    between atoms: C_8  and  C_9 
REMARK       I    between atoms: C_9  and  N_10 
REMARK    5  A    between atoms: N_10  and  N_11 
REMARK       I    between atoms: N_11  and  C_12 
REMARK    6  A    between atoms: C_12  and  C_13 
REMARK    7  A    between atoms: N_15  and  C_16 
ROOT
HETATM    1  N   UNL     1      43.532 -12.786   7.287  1.00  0.00    -0.263 N 
HETATM    2  C   UNL     1      42.626 -12.813   6.242  1.00  0.00     0.273 C 
HETATM    3  O   UNL     1      42.143 -11.785   5.766  1.00  0.00    -0.266 OA
HETATM    4  H   UNL     1      43.624 -13.599   7.893  1.00  0.00     0.190 HD
ENDROOT
BRANCH   1   5
HETATM    5  N   UNL     1      43.757 -11.546   7.920  1.00  0.00    -0.266 N 
HETATM    6  C   UNL     1      44.976 -10.932   7.685  1.00  0.00     0.253 C 
HETATM    7  O   UNL     1      45.786 -11.366   6.863  1.00  0.00    -0.270 OA
HETATM    8  H   UNL     1      43.285 -11.424   8.816  1.00  0.00     0.190 HD
BRANCH   6   9
HETATM    9  C   UNL     1      45.209  -9.670   8.524  1.00  0.00     0.224 C 
BRANCH   9  10
HETATM   10  N   UNL     1      45.399 -10.040   9.924  1.00  0.00    -0.381 N 
HETATM   11  H   UNL     1      45.903 -10.921  10.026  1.00  0.00     0.160 HD
BRANCH  10  12
HETATM   12  C   UNL     1      44.413  -9.828  10.880  1.00  0.00     0.028 A 
HETATM   13  C   UNL     1      43.890  -8.535  11.022  1.00  0.00     0.032 A 
HETATM   14  C   UNL     1      42.812  -8.263  11.875  1.00  0.00     0.039 A 
HETATM   15  C   UNL     1      42.212  -9.297  12.589  1.00  0.00     0.068 A 
HETATM   16  C   UNL     1      42.716 -10.589  12.453  1.00  0.00     0.039 A 
HETATM   17  C   UNL     1      43.795 -10.854  11.599  1.00  0.00     0.032 A 
BRANCH  15  18
HETATM   18  O   UNL     1      41.142  -9.179  13.430  1.00  0.00    -0.356 OA
HETATM   19  C   UNL     1      40.122 -10.161  13.304  1.00  0.00     0.210 C 
ENDBRANCH  15  18
ENDBRANCH  10  12
ENDBRANCH   9  10
ENDBRANCH   6   9
ENDBRANCH   1   5
BRANCH   2  20
HETATM   20  C   UNL     1      42.291 -14.136   5.758  1.00  0.00     0.070 A 
HETATM   21  C   UNL     1      43.145 -15.000   5.099  1.00  0.00     0.137 A 
HETATM   22  N   UNL     1      42.450 -16.159   4.838  1.00  0.00    -0.244 N 
HETATM   23  N   UNL     1      41.182 -16.084   5.316  1.00  0.00    -0.179 NA
HETATM   24  C   UNL     1      41.094 -14.869   5.857  1.00  0.00     0.157 A 
BRANCH  22  25
HETATM   25  C   UNL     1      42.910 -17.328   4.172  1.00  0.00     0.059 A 
HETATM   26  C   UNL     1      43.498 -18.360   4.922  1.00  0.00     0.055 A 
HETATM   27  C   UNL     1      43.960 -19.508   4.281  1.00  0.00     0.036 A 
HETATM   28 CL   UNL     1      44.697 -20.763   5.200  1.00  0.00    -0.084 Cl
HETATM   29  C   UNL     1      43.834 -19.648   2.901  1.00  0.00     0.024 A 
HETATM   30  C   UNL     1      43.245 -18.630   2.152  1.00  0.00     0.004 A 
HETATM   31  C   UNL     1      42.786 -17.469   2.782  1.00  0.00     0.031 A 
ENDBRANCH  22  25
ENDBRANCH   2  20
TORSDOF 7
ENDMDL
MODEL 3
REMARK VINA RESULT:      -8.4      1.598      2.422
REMARK  7 active torsions:
REMARK  status: ('A' for Active; 'I' for Inactive)
REMARK    1  A    between atoms: O_2  and  C_3 
REMARK    2  A    between atoms: C_6  and  N_7 
REMARK    3  A    between atoms: N_7  and  C_8 
REMARK    4  A    between atoms: C_8  and  C_9 
REMARK       I    between atoms: C_9  and  N_10 
REMARK    5  A    between atoms: N_10  and  N_11 
REMARK       I    between atoms: N_11  and  C_12 
REMARK    6  A    between atoms: C_12  and  C_13 
REMARK    7  A    between atoms: N_15  and  C_16 
ROOT
HETATM    1  N   UNL     1      43.347 -11.684   7.615  1.00  0.00    -0.263 N 
HETATM    2  C   UNL     1      42.848 -11.174   6.431  1.00  0.00     0.273 C 
HETATM    3  O   UNL     1      42.591  -9.979   6.289  1.00  0.00    -0.266 OA
HETATM    4  H   UNL     1      43.200 -12.667   7.841  1.00  0.00     0.190 HD
ENDROOT
BRANCH   1   5
HETATM    5  N   UNL     1      43.389 -10.820   8.729  1.00  0.00    -0.266 N 
HETATM    6  C   UNL     1      44.637 -10.544   9.263  1.00  0.00     0.253 C 
HETATM    7  O   UNL     1      45.682 -10.918   8.727  1.00  0.00    -0.270 OA
HETATM    8  H   UNL     1      42.568 -10.849   9.333  1.00  0.00     0.190 HD
BRANCH   6   9
HETATM    9  C   UNL     1      44.592  -9.724  10.559  1.00  0.00     0.224 C 
BRANCH   9  10
HETATM   10  N   UNL     1      43.360 -10.025  11.285  1.00  0.00    -0.381 N 
HETATM   11  H   UNL     1      42.627 -10.381  10.672  1.00  0.00     0.160 HD
BRANCH  10  12
HETATM   12  C   UNL     1      42.904  -9.220  12.321  1.00  0.00     0.028 A 
HETATM   13  C   UNL     1      41.846  -9.688  13.113  1.00  0.00     0.032 A 
HETATM   14  C   UNL     1      41.409  -8.993  14.249  1.00  0.00     0.039 A 
HETATM   15  C   UNL     1      42.048  -7.818  14.635  1.00  0.00     0.068 A 
HETATM   16  C   UNL     1      43.107  -7.344  13.861  1.00  0.00     0.039 A 
HETATM   17  C   UNL     1      43.538  -8.043  12.726  1.00  0.00     0.032 A 
BRANCH  15  18
HETATM   18  O   UNL     1      41.746  -7.059  15.729  1.00  0.00    -0.356 OA
HETATM   19  C   UNL     1      41.010  -7.699  16.764  1.00  0.00     0.210 C 
ENDBRANCH  15  18
ENDBRANCH  10  12
ENDBRANCH   9  10
ENDBRANCH   6   9
ENDBRANCH   1   5
BRANCH   2  20
HETATM   20  C   UNL     1      42.648 -12.151   5.380  1.00  0.00     0.070 A 
HETATM   21  C   UNL     1      43.155 -13.436   5.361  1.00  0.00     0.137 A 
HETATM   22  N   UNL     1      42.711 -14.044   4.208  1.00  0.00    -0.244 N 
HETATM   23  N   UNL     1      41.924 -13.205   3.488  1.00  0.00    -0.179 NA
HETATM   24  C   UNL     1      41.897 -12.075   4.193  1.00  0.00     0.157 A 
BRANCH  22  25
HETATM   25  C   UNL     1      42.982 -15.363   3.751  1.00  0.00     0.059 A 
HETATM   26  C   UNL     1      43.302 -16.362   4.685  1.00  0.00     0.055 A 
HETATM   27  C   UNL     1      43.577 -17.657   4.249  1.00  0.00     0.036 A 
HETATM   28 CL   UNL     1      43.987 -18.875   5.394  1.00  0.00    -0.084 Cl
HETATM   29  C   UNL     1      43.527 -17.975   2.894  1.00  0.00     0.024 A 
HETATM   30  C   UNL     1      43.203 -16.988   1.963  1.00  0.00     0.004 A 
HETATM   31  C   UNL     1      42.934 -15.683   2.386  1.00  0.00     0.031 A 
ENDBRANCH  22  25
ENDBRANCH   2  20
TORSDOF 7
ENDMDL
MODEL 4
REMARK VINA RESULT:      -8.2      4.189     11.225
REMARK  7 active torsions:
REMARK  status: ('A' for Active; 'I' for Inactive)
REMARK    1  A    between atoms: O_2  and  C_3 
REMARK    2  A    between atoms: C_6  and  N_7 
REMARK    3  A    between atoms: N_7  and  C_8 
REMARK    4  A    between atoms: C_8  and  C_9 
REMARK       I    between atoms: C_9  and  N_10 
REMARK    5  A    between atoms: N_10  and  N_11 
REMARK       I    between atoms: N_11  and  C_12 
REMARK    6  A    between atoms: C_12  and  C_13 
REMARK    7  A    between atoms: N_15  and  C_16 
ROOT
HETATM    1  N   UNL     1      42.823 -12.076   7.173  1.00  0.00    -0.263 N 
HETATM    2  C   UNL     1      44.151 -11.749   7.383  1.00  0.00     0.273 C 
HETATM    3  O   UNL     1      45.063 -12.264   6.736  1.00  0.00    -0.266 OA
HETATM    4  H   UNL     1      42.149 -11.946   7.925  1.00  0.00     0.190 HD
ENDROOT
BRANCH   1   5
HETATM    5  N   UNL     1      42.549 -13.157   6.310  1.00  0.00    -0.266 N 
HETATM    6  C   UNL     1      41.424 -13.051   5.508  1.00  0.00     0.253 C 
HETATM    7  O   UNL     1      40.757 -12.017   5.440  1.00  0.00    -0.270 OA
HETATM    8  H   UNL     1      42.855 -14.070   6.647  1.00  0.00     0.190 HD
BRANCH   6   9
HETATM    9  C   UNL     1      41.105 -14.323   4.713  1.00  0.00     0.224 C 
BRANCH   9  10
HETATM   10  N   UNL     1      42.158 -14.562   3.728  1.00  0.00    -0.381 N 
HETATM   11  H   UNL     1      42.022 -14.016   2.877  1.00  0.00     0.160 HD
BRANCH  10  12
HETATM   12  C   UNL     1      42.696 -15.825   3.521  1.00  0.00     0.028 A 
HETATM   13  C   UNL     1      43.470 -16.396   4.542  1.00  0.00     0.032 A 
HETATM   14  C   UNL     1      43.946 -17.711   4.461  1.00  0.00     0.039 A 
HETATM   15  C   UNL     1      43.630 -18.500   3.359  1.00  0.00     0.068 A 
HETATM   16  C   UNL     1      42.857 -17.949   2.338  1.00  0.00     0.039 A 
HETATM   17  C   UNL     1      42.385 -16.633   2.425  1.00  0.00     0.032 A 
BRANCH  15  18
HETATM   18  O   UNL     1      44.003 -19.800   3.165  1.00  0.00    -0.356 OA
HETATM   19  C   UNL     1      43.638 -20.388   1.923  1.00  0.00     0.210 C 
ENDBRANCH  15  18
ENDBRANCH  10  12
ENDBRANCH   9  10
ENDBRANCH   6   9
ENDBRANCH   1   5
BRANCH   2  20
HETATM   20  C   UNL     1      44.381 -10.764   8.419  1.00  0.00     0.070 A 
HETATM   21  C   UNL     1      43.411 -10.014   9.056  1.00  0.00     0.137 A 
HETATM   22  N   UNL     1      44.039  -9.223   9.992  1.00  0.00    -0.244 N 
HETATM   23  N   UNL     1      45.378  -9.443   9.994  1.00  0.00    -0.179 NA
HETATM   24  C   UNL     1      45.574 -10.360   9.047  1.00  0.00     0.157 A 
BRANCH  22  25
HETATM   25  C   UNL     1      43.453  -8.280  10.880  1.00  0.00     0.059 A 
HETATM   26  C   UNL     1      42.847  -7.126  10.355  1.00  0.00     0.055 A 
HETATM   27  C   UNL     1      42.277  -6.189  11.215  1.00  0.00     0.036 A 
HETATM   28 CL   UNL     1      41.551  -4.767  10.571  1.00  0.00    -0.084 Cl
HETATM   29  C   UNL     1      42.291  -6.391  12.593  1.00  0.00     0.024 A 
HETATM   30  C   UNL     1      42.884  -7.539  13.119  1.00  0.00     0.004 A 
HETATM   31  C   UNL     1      43.469  -8.481  12.268  1.00  0.00     0.031 A 
ENDBRANCH  22  25
ENDBRANCH   2  20
TORSDOF 7
ENDMDL
MODEL 5
REMARK VINA RESULT:      -8.1      1.738      2.135
REMARK  7 active torsions:
REMARK  status: ('A' for Active; 'I' for Inactive)
REMARK    1  A    between atoms: O_2  and  C_3 
REMARK    2  A    between atoms: C_6  and  N_7 
REMARK    3  A    between atoms: N_7  and  C_8 
REMARK    4  A    between atoms: C_8  and  C_9 
REMARK       I    between atoms: C_9  and  N_10 
REMARK    5  A    between atoms: N_10  and  N_11 
REMARK       I    between atoms: N_11  and  C_12 
REMARK    6  A    between atoms: C_12  and  C_13 
REMARK    7  A    between atoms: N_15  and  C_16 
ROOT
HETATM    1  N   UNL     1      41.881 -12.601   5.882  1.00  0.00    -0.263 N 
HETATM    2  C   UNL     1      42.844 -13.573   6.082  1.00  0.00     0.273 C 
HETATM    3  O   UNL     1      43.540 -13.606   7.097  1.00  0.00    -0.266 OA
HETATM    4  H   UNL     1      41.597 -12.363   4.932  1.00  0.00     0.190 HD
ENDROOT
BRANCH   1   5
HETATM    5  N   UNL     1      41.837 -11.530   6.799  1.00  0.00    -0.266 N 
HETATM    6  C   UNL     1      42.383 -10.326   6.385  1.00  0.00     0.253 C 
HETATM    7  O   UNL     1      42.774 -10.140   5.231  1.00  0.00    -0.270 OA
HETATM    8  H   UNL     1      41.871 -11.798   7.782  1.00  0.00     0.190 HD
BRANCH   6   9
HETATM    9  C   UNL     1      42.436  -9.258   7.484  1.00  0.00     0.224 C 
BRANCH   9  10
HETATM   10  N   UNL     1      41.596  -9.668   8.607  1.00  0.00    -0.381 N 
HETATM   11  H   UNL     1      40.602  -9.587   8.395  1.00  0.00     0.160 HD
BRANCH  10  12
HETATM   12  C   UNL     1      41.930  -9.368   9.921  1.00  0.00     0.028 A 
HETATM   13  C   UNL     1      43.277  -9.133  10.230  1.00  0.00     0.032 A 
HETATM   14  C   UNL     1      43.681  -8.707  11.503  1.00  0.00     0.039 A 
HETATM   15  C   UNL     1      42.731  -8.479  12.494  1.00  0.00     0.068 A 
HETATM   16  C   UNL     1      41.386  -8.702  12.200  1.00  0.00     0.039 A 
HETATM   17  C   UNL     1      40.990  -9.129  10.926  1.00  0.00     0.032 A 
BRANCH  15  18
HETATM   18  O   UNL     1      42.981  -8.039  13.763  1.00  0.00    -0.356 OA
HETATM   19  C   UNL     1      42.056  -8.435  14.768  1.00  0.00     0.210 C 
ENDBRANCH  15  18
ENDBRANCH  10  12
ENDBRANCH   9  10
ENDBRANCH   6   9
ENDBRANCH   1   5
BRANCH   2  20
HETATM   20  C   UNL     1      42.971 -14.539   5.010  1.00  0.00     0.070 A 
HETATM   21  C   UNL     1      43.149 -15.901   5.163  1.00  0.00     0.137 A 
HETATM   22  N   UNL     1      43.191 -16.461   3.906  1.00  0.00    -0.244 N 
HETATM   23  N   UNL     1      43.033 -15.515   2.946  1.00  0.00    -0.179 NA
HETATM   24  C   UNL     1      42.908 -14.369   3.615  1.00  0.00     0.157 A 
BRANCH  22  25
HETATM   25  C   UNL     1      43.369 -17.828   3.559  1.00  0.00     0.059 A 
HETATM   26  C   UNL     1      43.868 -18.722   4.522  1.00  0.00     0.055 A 
HETATM   27  C   UNL     1      44.054 -20.064   4.192  1.00  0.00     0.036 A 
HETATM   28 CL   UNL     1      44.683 -21.153   5.368  1.00  0.00    -0.084 Cl
HETATM   29  C   UNL     1      43.739 -20.532   2.919  1.00  0.00     0.024 A 
HETATM   30  C   UNL     1      43.236 -19.650   1.962  1.00  0.00     0.004 A 
HETATM   31  C   UNL     1      43.054 -18.300   2.276  1.00  0.00     0.031 A 
ENDBRANCH  22  25
ENDBRANCH   2  20
TORSDOF 7
ENDMDL
MODEL 6
REMARK VINA RESULT:      -7.9      4.546     10.315
REMARK  7 active torsions:
REMARK  status: ('A' for Active; 'I' for Inactive)
REMARK    1  A    between atoms: O_2  and  C_3 
REMARK    2  A    between atoms: C_6  and  N_7 
REMARK    3  A    between atoms: N_7  and  C_8 
REMARK    4  A    between atoms: C_8  and  C_9 
REMARK       I    between atoms: C_9  and  N_10 
REMARK    5  A    between atoms: N_10  and  N_11 
REMARK       I    between atoms: N_11  and  C_12 
REMARK    6  A    between atoms: C_12  and  C_13 
REMARK    7  A    between atoms: N_15  and  C_16 
ROOT
HETATM    1  N   UNL     1      42.105 -11.774   4.617  1.00  0.00    -0.263 N 
HETATM    2  C   UNL     1      43.444 -11.460   4.762  1.00  0.00     0.273 C 
HETATM    3  O   UNL     1      44.210 -11.400   3.801  1.00  0.00    -0.266 OA
HETATM    4  H   UNL     1      41.596 -12.178   5.402  1.00  0.00     0.190 HD
ENDROOT
BRANCH   1   5
HETATM    5  N   UNL     1      41.671 -12.204   3.346  1.00  0.00    -0.266 N 
HETATM    6  C   UNL     1      40.327 -12.512   3.212  1.00  0.00     0.253 C 
HETATM    7  O   UNL     1      39.509 -12.304   4.110  1.00  0.00    -0.270 OA
HETATM    8  H   UNL     1      42.369 -12.701   2.794  1.00  0.00     0.190 HD
BRANCH   6   9
HETATM    9  C   UNL     1      39.961 -13.116   1.851  1.00  0.00     0.224 C 
BRANCH   9  10
HETATM   10  N   UNL     1      39.706 -14.547   2.001  1.00  0.00    -0.381 N 
HETATM   11  H   UNL     1      38.795 -14.735   2.420  1.00  0.00     0.160 HD
BRANCH  10  12
HETATM   12  C   UNL     1      40.705 -15.435   2.376  1.00  0.00     0.028 A 
HETATM   13  C   UNL     1      41.809 -15.594   1.527  1.00  0.00     0.032 A 
HETATM   14  C   UNL     1      42.914 -16.377   1.888  1.00  0.00     0.039 A 
HETATM   15  C   UNL     1      42.949 -16.998   3.133  1.00  0.00     0.068 A 
HETATM   16  C   UNL     1      41.861 -16.844   3.992  1.00  0.00     0.039 A 
HETATM   17  C   UNL     1      40.760 -16.061   3.624  1.00  0.00     0.032 A 
BRANCH  15  18
HETATM   18  O   UNL     1      43.969 -17.763   3.623  1.00  0.00    -0.356 OA
HETATM   19  C   UNL     1      44.070 -17.859   5.039  1.00  0.00     0.210 C 
ENDBRANCH  15  18
ENDBRANCH  10  12
ENDBRANCH   9  10
ENDBRANCH   6   9
ENDBRANCH   1   5
BRANCH   2  20
HETATM   20  C   UNL     1      43.870 -11.213   6.124  1.00  0.00     0.070 A 
HETATM   21  C   UNL     1      43.240 -10.385   7.034  1.00  0.00     0.137 A 
HETATM   22  N   UNL     1      43.942 -10.451   8.216  1.00  0.00    -0.244 N 
HETATM   23  N   UNL     1      44.995 -11.301   8.110  1.00  0.00    -0.179 NA
HETATM   24  C   UNL     1      44.948 -11.746   6.855  1.00  0.00     0.157 A 
BRANCH  22  25
HETATM   25  C   UNL     1      43.678  -9.766   9.434  1.00  0.00     0.059 A 
HETATM   26  C   UNL     1      43.360  -8.397   9.397  1.00  0.00     0.055 A 
HETATM   27  C   UNL     1      43.107  -7.712  10.584  1.00  0.00     0.036 A 
HETATM   28 CL   UNL     1      42.735  -6.032  10.538  1.00  0.00    -0.084 Cl
HETATM   29  C   UNL     1      43.155  -8.373  11.809  1.00  0.00     0.024 A 
HETATM   30  C   UNL     1      43.463  -9.732  11.850  1.00  0.00     0.004 A 
HETATM   31  C   UNL     1      43.729 -10.430  10.668  1.00  0.00     0.031 A 
ENDBRANCH  22  25
ENDBRANCH   2  20
TORSDOF 7
ENDMDL
MODEL 7
REMARK VINA RESULT:      -7.8      2.589      3.145
REMARK  7 active torsions:
REMARK  status: ('A' for Active; 'I' for Inactive)
REMARK    1  A    between atoms: O_2  and  C_3 
REMARK    2  A    between atoms: C_6  and  N_7 
REMARK    3  A    between atoms: N_7  and  C_8 
REMARK    4  A    between atoms: C_8  and  C_9 
REMARK       I    between atoms: C_9  and  N_10 
REMARK    5  A    between atoms: N_10  and  N_11 
REMARK       I    between atoms: N_11  and  C_12 
REMARK    6  A    between atoms: C_12  and  C_13 
REMARK    7  A    between atoms: N_15  and  C_16 
ROOT
HETATM    1  N   UNL     1      40.960 -11.533   6.781  1.00  0.00    -0.263 N 
HETATM    2  C   UNL     1      40.495 -12.734   6.277  1.00  0.00     0.273 C 
HETATM    3  O   UNL     1      39.297 -12.950   6.099  1.00  0.00    -0.266 OA
HETATM    4  H   UNL     1      41.859 -11.504   7.261  1.00  0.00     0.190 HD
ENDROOT
BRANCH   1   5
HETATM    5  N   UNL     1      40.003 -10.615   7.260  1.00  0.00    -0.266 N 
HETATM    6  C   UNL     1      40.462  -9.602   8.086  1.00  0.00     0.253 C 
HETATM    7  O   UNL     1      41.662  -9.417   8.299  1.00  0.00    -0.270 OA
HETATM    8  H   UNL     1      39.063 -10.991   7.383  1.00  0.00     0.190 HD
BRANCH   6   9
HETATM    9  C   UNL     1      39.348  -8.737   8.688  1.00  0.00     0.224 C 
BRANCH   9  10
HETATM   10  N   UNL     1      38.865  -9.351   9.923  1.00  0.00    -0.381 N 
HETATM   11  H   UNL     1      37.848  -9.330   9.993  1.00  0.00     0.160 HD
BRANCH  10  12
HETATM   12  C   UNL     1      39.528  -9.187  11.132  1.00  0.00     0.028 A 
HETATM   13  C   UNL     1      39.564 -10.267  12.025  1.00  0.00     0.032 A 
HETATM   14  C   UNL     1      40.313 -10.224  13.209  1.00  0.00     0.039 A 
HETATM   15  C   UNL     1      41.071  -9.096  13.512  1.00  0.00     0.068 A 
HETATM   16  C   UNL     1      41.050  -8.016  12.631  1.00  0.00     0.039 A 
HETATM   17  C   UNL     1      40.299  -8.066  11.450  1.00  0.00     0.032 A 
BRANCH  15  18
HETATM   18  O   UNL     1      41.864  -8.931  14.612  1.00  0.00    -0.356 OA
HETATM   19  C   UNL     1      42.024  -7.600  15.086  1.00  0.00     0.210 C 
ENDBRANCH  15  18
ENDBRANCH  10  12
ENDBRANCH   9  10
ENDBRANCH   6   9
ENDBRANCH   1   5
BRANCH   2  20
HETATM   20  C   UNL     1      41.522 -13.711   5.980  1.00  0.00     0.070 A 
HETATM   21  C   UNL     1      41.418 -14.747   5.072  1.00  0.00     0.137 A 
HETATM   22  N   UNL     1      42.617 -15.423   5.068  1.00  0.00    -0.244 N 
HETATM   23  N   UNL     1      43.499 -14.856   5.930  1.00  0.00    -0.179 NA
HETATM   24  C   UNL     1      42.833 -13.838   6.475  1.00  0.00     0.157 A 
BRANCH  22  25
HETATM   25  C   UNL     1      42.980 -16.565   4.301  1.00  0.00     0.059 A 
HETATM   26  C   UNL     1      43.502 -17.694   4.955  1.00  0.00     0.055 A 
HETATM   27  C   UNL     1      43.869 -18.816   4.214  1.00  0.00     0.036 A 
HETATM   28 CL   UNL     1      44.526 -20.191   5.015  1.00  0.00    -0.084 Cl
HETATM   29  C   UNL     1      43.712 -18.835   2.830  1.00  0.00     0.024 A 
HETATM   30  C   UNL     1      43.187 -17.720   2.178  1.00  0.00     0.004 A 
HETATM   31  C   UNL     1      42.825 -16.584   2.907  1.00  0.00     0.031 A 
ENDBRANCH  22  25
ENDBRANCH   2  20
TORSDOF 7
ENDMDL
MODEL 8
REMARK VINA RESULT:      -7.7      2.468      3.034
REMARK  7 active torsions:
REMARK  status: ('A' for Active; 'I' for Inactive)
REMARK    1  A    between atoms: O_2  and  C_3 
REMARK    2  A    between atoms: C_6  and  N_7 
REMARK    3  A    between atoms: N_7  and  C_8 
REMARK    4  A    between atoms: C_8  and  C_9 
REMARK       I    between atoms: C_9  and  N_10 
REMARK    5  A    between atoms: N_10  and  N_11 
REMARK       I    between atoms: N_11  and  C_12 
REMARK    6  A    between atoms: C_12  and  C_13 
REMARK    7  A    between atoms: N_15  and  C_16 
ROOT
HETATM    1  N   UNL     1      40.671 -10.978   6.708  1.00  0.00    -0.263 N 
HETATM    2  C   UNL     1      39.673 -11.801   6.215  1.00  0.00     0.273 C 
HETATM    3  O   UNL     1      38.526 -11.776   6.659  1.00  0.00    -0.266 OA
HETATM    4  H   UNL     1      41.646 -11.258   6.611  1.00  0.00     0.190 HD
ENDROOT
BRANCH   1   5
HETATM    5  N   UNL     1      40.382 -10.227   7.865  1.00  0.00    -0.266 N 
HETATM    6  C   UNL     1      41.457  -9.663   8.533  1.00  0.00     0.253 C 
HETATM    7  O   UNL     1      42.604  -9.694   8.083  1.00  0.00    -0.270 OA
HETATM    8  H   UNL     1      39.556 -10.526   8.383  1.00  0.00     0.190 HD
BRANCH   6   9
HETATM    9  C   UNL     1      41.082  -8.993   9.860  1.00  0.00     0.224 C 
BRANCH   9  10
HETATM   10  N   UNL     1      41.617  -9.775  10.972  1.00  0.00    -0.381 N 
HETATM   11  H   UNL     1      41.181 -10.695  11.043  1.00  0.00     0.160 HD
BRANCH  10  12
HETATM   12  C   UNL     1      41.935  -9.194  12.193  1.00  0.00     0.028 A 
HETATM   13  C   UNL     1      42.991  -8.273  12.238  1.00  0.00     0.032 A 
HETATM   14  C   UNL     1      43.295  -7.553  13.401  1.00  0.00     0.039 A 
HETATM   15  C   UNL     1      42.522  -7.722  14.547  1.00  0.00     0.068 A 
HETATM   16  C   UNL     1      41.465  -8.630  14.516  1.00  0.00     0.039 A 
HETATM   17  C   UNL     1      41.166  -9.346  13.350  1.00  0.00     0.032 A 
BRANCH  15  18
HETATM   18  O   UNL     1      42.689  -7.068  15.734  1.00  0.00    -0.356 OA
HETATM   19  C   UNL     1      41.661  -6.161  16.112  1.00  0.00     0.210 C 
ENDBRANCH  15  18
ENDBRANCH  10  12
ENDBRANCH   9  10
ENDBRANCH   6   9
ENDBRANCH   1   5
BRANCH   2  20
HETATM   20  C   UNL     1      40.085 -12.689   5.148  1.00  0.00     0.070 A 
HETATM   21  C   UNL     1      40.987 -13.729   5.261  1.00  0.00     0.137 A 
HETATM   22  N   UNL     1      41.077 -14.342   4.031  1.00  0.00    -0.244 N 
HETATM   23  N   UNL     1      40.256 -13.745   3.129  1.00  0.00    -0.179 NA
HETATM   24  C   UNL     1      39.672 -12.755   3.804  1.00  0.00     0.157 A 
BRANCH  22  25
HETATM   25  C   UNL     1      41.884 -15.451   3.659  1.00  0.00     0.059 A 
HETATM   26  C   UNL     1      42.420 -16.278   4.661  1.00  0.00     0.055 A 
HETATM   27  C   UNL     1      43.220 -17.364   4.310  1.00  0.00     0.036 A 
HETATM   28 CL   UNL     1      43.890 -18.364   5.541  1.00  0.00    -0.084 Cl
HETATM   29  C   UNL     1      43.485 -17.647   2.973  1.00  0.00     0.024 A 
HETATM   30  C   UNL     1      42.949 -16.834   1.974  1.00  0.00     0.004 A 
HETATM   31  C   UNL     1      42.153 -15.736   2.312  1.00  0.00     0.031 A 
ENDBRANCH  22  25
ENDBRANCH   2  20
TORSDOF 7
ENDMDL
MODEL 9
REMARK VINA RESULT:      -7.5      4.238     11.546
REMARK  7 active torsions:
REMARK  status: ('A' for Active; 'I' for Inactive)
REMARK    1  A    between atoms: O_2  and  C_3 
REMARK    2  A    between atoms: C_6  and  N_7 
REMARK    3  A    between atoms: N_7  and  C_8 
REMARK    4  A    between atoms: C_8  and  C_9 
REMARK       I    between atoms: C_9  and  N_10 
REMARK    5  A    between atoms: N_10  and  N_11 
REMARK       I    between atoms: N_11  and  C_12 
REMARK    6  A    between atoms: C_12  and  C_13 
REMARK    7  A    between atoms: N_15  and  C_16 
ROOT
HETATM    1  N   UNL     1      42.829 -11.289   7.173  1.00  0.00    -0.263 N 
HETATM    2  C   UNL     1      42.382  -9.997   7.379  1.00  0.00     0.273 C 
HETATM    3  O   UNL     1      41.690  -9.403   6.552  1.00  0.00    -0.266 OA
HETATM    4  H   UNL     1      43.668 -11.614   7.651  1.00  0.00     0.190 HD
ENDROOT
BRANCH   1   5
HETATM    5  N   UNL     1      42.617 -11.855   5.898  1.00  0.00    -0.266 N 
HETATM    6  C   UNL     1      43.025 -13.166   5.718  1.00  0.00     0.253 C 
HETATM    7  O   UNL     1      43.435 -13.865   6.647  1.00  0.00    -0.270 OA
HETATM    8  H   UNL     1      42.646 -11.197   5.120  1.00  0.00     0.190 HD
BRANCH   6   9
HETATM    9  C   UNL     1      42.904 -13.662   4.271  1.00  0.00     0.224 C 
BRANCH   9  10
HETATM   10  N   UNL     1      42.147 -14.911   4.243  1.00  0.00    -0.381 N 
HETATM   11  H   UNL     1      41.511 -14.995   5.035  1.00  0.00     0.160 HD
BRANCH  10  12
HETATM   12  C   UNL     1      42.722 -16.108   3.836  1.00  0.00     0.028 A 
HETATM   13  C   UNL     1      43.618 -16.747   4.704  1.00  0.00     0.032 A 
HETATM   14  C   UNL     1      44.146 -18.014   4.422  1.00  0.00     0.039 A 
HETATM   15  C   UNL     1      43.760 -18.686   3.265  1.00  0.00     0.068 A 
HETATM   16  C   UNL     1      42.865 -18.067   2.395  1.00  0.00     0.039 A 
HETATM   17  C   UNL     1      42.342 -16.800   2.683  1.00  0.00     0.032 A 
BRANCH  15  18
HETATM   18  O   UNL     1      44.173 -19.930   2.882  1.00  0.00    -0.356 OA
HETATM   19  C   UNL     1      43.548 -20.481   1.729  1.00  0.00     0.210 C 
ENDBRANCH  15  18
ENDBRANCH  10  12
ENDBRANCH   9  10
ENDBRANCH   6   9
ENDBRANCH   1   5
BRANCH   2  20
HETATM   20  C   UNL     1      42.794  -9.400   8.633  1.00  0.00     0.070 A 
HETATM   21  C   UNL     1      41.966  -9.087   9.693  1.00  0.00     0.137 A 
HETATM   22  N   UNL     1      42.750  -8.569  10.699  1.00  0.00    -0.244 N 
HETATM   23  N   UNL     1      44.057  -8.547  10.334  1.00  0.00    -0.179 NA
HETATM   24  C   UNL     1      44.073  -9.039   9.096  1.00  0.00     0.157 A 
BRANCH  22  25
HETATM   25  C   UNL     1      42.341  -8.098  11.977  1.00  0.00     0.059 A 
HETATM   26  C   UNL     1      40.991  -7.774  12.190  1.00  0.00     0.055 A 
HETATM   27  C   UNL     1      40.579  -7.303  13.436  1.00  0.00     0.036 A 
HETATM   28 CL   UNL     1      38.927  -6.889  13.690  1.00  0.00    -0.084 Cl
HETATM   29  C   UNL     1      41.492  -7.162  14.478  1.00  0.00     0.024 A 
HETATM   30  C   UNL     1      42.832  -7.489  14.274  1.00  0.00     0.004 A 
HETATM   31  C   UNL     1      43.261  -7.953  13.026  1.00  0.00     0.031 A 
ENDBRANCH  22  25
ENDBRANCH   2  20
TORSDOF 7
ENDMDL
MODEL 10
REMARK VINA RESULT:      -7.4     17.709     19.878
REMARK  7 active torsions:
REMARK  status: ('A' for Active; 'I' for Inactive)
REMARK    1  A    between atoms: O_2  and  C_3 
REMARK    2  A    between atoms: C_6  and  N_7 
REMARK    3  A    between atoms: N_7  and  C_8 
REMARK    4  A    between atoms: C_8  and  C_9 
REMARK       I    between atoms: C_9  and  N_10 
REMARK    5  A    between atoms: N_10  and  N_11 
REMARK       I    between atoms: N_11  and  C_12 
REMARK    6  A    between atoms: C_12  and  C_13 
REMARK    7  A    between atoms: N_15  and  C_16 
ROOT
HETATM    1  N   UNL     1      43.827 -29.738   2.987  1.00  0.00    -0.263 N 
HETATM    2  C   UNL     1      42.772 -29.902   2.108  1.00  0.00     0.273 C 
HETATM    3  O   UNL     1      42.757 -29.374   0.996  1.00  0.00    -0.266 OA
HETATM    4  H   UNL     1      43.670 -29.849   3.987  1.00  0.00     0.190 HD
ENDROOT
BRANCH   1   5
HETATM    5  N   UNL     1      44.820 -28.797   2.643  1.00  0.00    -0.266 N 
HETATM    6  C   UNL     1      46.075 -29.293   2.332  1.00  0.00     0.253 C 
HETATM    7  O   UNL     1      46.301 -30.501   2.228  1.00  0.00    -0.270 OA
HETATM    8  H   UNL     1      44.724 -27.883   3.085  1.00  0.00     0.190 HD
BRANCH   6   9
HETATM    9  C   UNL     1      47.137 -28.208   2.119  1.00  0.00     0.224 C 
BRANCH   9  10
HETATM   10  N   UNL     1      47.873 -28.477   0.886  1.00  0.00    -0.381 N 
HETATM   11  H   UNL     1      48.803 -28.058   0.891  1.00  0.00     0.160 HD
BRANCH  10  12
HETATM   12  C   UNL     1      47.249 -28.480  -0.355  1.00  0.00     0.028 A 
HETATM   13  C   UNL     1      47.752 -29.327  -1.352  1.00  0.00     0.032 A 
HETATM   14  C   UNL     1      47.108 -29.478  -2.588  1.00  0.00     0.039 A 
HETATM   15  C   UNL     1      45.920 -28.799  -2.841  1.00  0.00     0.068 A 
HETATM   16  C   UNL     1      45.404 -27.957  -1.857  1.00  0.00     0.039 A 
HETATM   17  C   UNL     1      46.053 -27.810  -0.624  1.00  0.00     0.032 A 
BRANCH  15  18
HETATM   18  O   UNL     1      45.177 -28.875  -3.985  1.00  0.00    -0.356 OA
HETATM   19  C   UNL     1      44.263 -29.959  -4.079  1.00  0.00     0.210 C 
ENDBRANCH  15  18
ENDBRANCH  10  12
ENDBRANCH   9  10
ENDBRANCH   6   9
ENDBRANCH   1   5
BRANCH   2  20
HETATM   20  C   UNL     1      41.691 -30.732   2.598  1.00  0.00     0.070 A 
HETATM   21  C   UNL     1      41.379 -30.957   3.925  1.00  0.00     0.137 A 
HETATM   22  N   UNL     1      40.272 -31.774   3.963  1.00  0.00    -0.244 N 
HETATM   23  N   UNL     1      39.846 -32.075   2.710  1.00  0.00    -0.179 NA
HETATM   24  C   UNL     1      40.704 -31.453   1.901  1.00  0.00     0.157 A 
BRANCH  22  25
HETATM   25  C   UNL     1      39.594 -32.283   5.105  1.00  0.00     0.059 A 
HETATM   26  C   UNL     1      38.438 -33.062   4.927  1.00  0.00     0.055 A 
HETATM   27  C   UNL     1      37.759 -33.560   6.037  1.00  0.00     0.036 A 
HETATM   28 CL   UNL     1      36.333 -34.499   5.817  1.00  0.00    -0.084 Cl
HETATM   29  C   UNL     1      38.221 -33.302   7.325  1.00  0.00     0.024 A 
HETATM   30  C   UNL     1      39.372 -32.535   7.507  1.00  0.00     0.004 A 
HETATM   31  C   UNL     1      40.057 -32.021   6.402  1.00  0.00     0.031 A 
ENDBRANCH  22  25
ENDBRANCH   2  20
TORSDOF 7
ENDMDL
