MODEL 1
REMARK VINA RESULT:     -10.5      0.000      0.000
REMARK  7 active torsions:
REMARK  status: ('A' for Active; 'I' for Inactive)
REMARK    1  A    between atoms: C_2  and  O_3 
REMARK    2  A    between atoms: O_3  and  C_4 
REMARK    3  A    between atoms: C_5  and  C_6 
REMARK    4  A    between atoms: C_9  and  C_10 
REMARK       I    between atoms: C_10  and  N_11 
REMARK    5  A    between atoms: N_11  and  C_12 
REMARK    6  A    between atoms: C_25  and  C_26 
REMARK       I    between atoms: C_26  and  N_27 
REMARK    7  A    between atoms: N_27  and  C_28 
ROOT
HETATM    1  C   UNL     1      43.085 -13.789   4.658  1.00  0.00     0.188 A 
HETATM    2  N   UNL     1      43.427 -12.607   5.473  1.00  0.00    -0.239 N 
HETATM    3  C   UNL     1      43.569 -12.619   6.845  1.00  0.00     0.142 A 
HETATM    4  C   UNL     1      43.881 -11.322   7.203  1.00  0.00     0.097 A 
HETATM    5  C   UNL     1      43.883 -10.615   5.974  1.00  0.00     0.160 A 
HETATM    6  N   UNL     1      43.667 -11.398   4.916  1.00  0.00    -0.181 NA
HETATM    7  N   UNL     1      43.365 -13.780   7.519  1.00  0.00    -0.343 N 
HETATM    8  C   UNL     1      43.003 -14.969   6.880  1.00  0.00     0.021 A 
HETATM    9  C   UNL     1      42.801 -16.188   7.743  1.00  0.00     0.069 C 
HETATM   10  C   UNL     1      42.858 -15.003   5.535  1.00  0.00     0.061 A 
HETATM   11  H   UNL     1      43.297 -13.799   8.536  1.00  0.00     0.167 HD
ENDROOT
BRANCH   4  12
HETATM   12  C   UNL     1      44.152 -10.736   8.502  1.00  0.00     0.261 C 
HETATM   13  N   UNL     1      43.066 -10.081   9.054  1.00  0.00    -0.323 N 
HETATM   14  H   UNL     1      42.204 -10.133   8.524  1.00  0.00     0.169 HD
HETATM   15  O   UNL     1      45.241 -10.904   9.035  1.00  0.00    -0.267 OA
BRANCH  13  16
HETATM   16  C   UNL     1      42.978  -9.521  10.347  1.00  0.00     0.035 A 
HETATM   17  C   UNL     1      43.066  -8.150  10.612  1.00  0.00     0.032 A 
HETATM   18  C   UNL     1      43.009  -7.674  11.927  1.00  0.00     0.044 A 
HETATM   19  C   UNL     1      42.858  -8.570  12.976  1.00  0.00     0.116 A 
HETATM   20  F   UNL     1      42.812  -8.114  14.234  1.00  0.00    -0.206 F 
HETATM   21  C   UNL     1      42.757  -9.933  12.735  1.00  0.00     0.044 A 
HETATM   22  C   UNL     1      42.816 -10.409  11.421  1.00  0.00     0.032 A 
ENDBRANCH  13  16
ENDBRANCH   4  12
BRANCH   1  23
HETATM   23  C   UNL     1      41.942 -13.448   3.701  1.00  0.00     0.005 A 
HETATM   24  C   UNL     1      40.655 -13.082   4.133  1.00  0.00     0.077 A 
HETATM   25  C   UNL     1      39.650 -12.780   3.209  1.00  0.00     0.037 A 
HETATM   26  C   UNL     1      39.928 -12.789   1.843  1.00  0.00     0.003 A 
HETATM   27  C   UNL     1      41.203 -13.120   1.397  1.00  0.00     0.001 A 
HETATM   28  C   UNL     1      42.201 -13.448   2.316  1.00  0.00     0.012 A 
BRANCH  24  29
HETATM   29  O   UNL     1      40.360 -13.173   5.471  1.00  0.00    -0.351 OA
BRANCH  29  30
HETATM   30  C   UNL     1      39.424 -12.175   5.898  1.00  0.00     0.171 C 
HETATM   31  C   UNL     1      40.220 -10.991   6.416  1.00  0.00     0.034 C 
ENDBRANCH  29  30
ENDBRANCH  24  29
ENDBRANCH   1  23
BRANCH  10  32
HETATM   32  C   UNL     1      42.505 -16.251   4.820  1.00  0.00     0.256 C 
HETATM   33  N   UNL     1      43.628 -16.938   4.415  1.00  0.00    -0.323 N 
HETATM   34  H   UNL     1      44.520 -16.521   4.667  1.00  0.00     0.169 HD
HETATM   35  O   UNL     1      41.329 -16.562   4.692  1.00  0.00    -0.267 OA
BRANCH  33  36
HETATM   36  C   UNL     1      43.694 -18.245   3.897  1.00  0.00     0.035 A 
HETATM   37  C   UNL     1      43.379 -18.577   2.580  1.00  0.00     0.029 A 
HETATM   38  C   UNL     1      43.432 -19.910   2.157  1.00  0.00     0.002 A 
HETATM   39  C   UNL     1      43.796 -20.918   3.048  1.00  0.00     0.000 A 
HETATM   40  C   UNL     1      44.118 -20.593   4.363  1.00  0.00     0.002 A 
HETATM   41  C   UNL     1      44.072 -19.262   4.783  1.00  0.00     0.029 A 
ENDBRANCH  33  36
ENDBRANCH  10  32
TORSDOF 7
ENDMDL
MODEL 2
REMARK VINA RESULT:     -10.3      0.946      2.073
REMARK  7 active torsions:
REMARK  status: ('A' for Active; 'I' for Inactive)
REMARK    1  A    between atoms: C_2  and  O_3 
REMARK    2  A    between atoms: O_3  and  C_4 
REMARK    3  A    between atoms: C_5  and  C_6 
REMARK    4  A    between atoms: C_9  and  C_10 
REMARK       I    between atoms: C_10  and  N_11 
REMARK    5  A    between atoms: N_11  and  C_12 
REMARK    6  A    between atoms: C_25  and  C_26 
REMARK       I    between atoms: C_26  and  N_27 
REMARK    7  A    between atoms: N_27  and  C_28 
ROOT
HETATM    1  C   UNL     1      42.975 -13.699   4.862  1.00  0.00     0.188 A 
HETATM    2  N   UNL     1      43.300 -12.519   5.688  1.00  0.00    -0.239 N 
HETATM    3  C   UNL     1      43.518 -12.556   7.050  1.00  0.00     0.142 A 
HETATM    4  C   UNL     1      43.781 -11.253   7.425  1.00  0.00     0.097 A 
HETATM    5  C   UNL     1      43.678 -10.518   6.217  1.00  0.00     0.160 A 
HETATM    6  N   UNL     1      43.444 -11.287   5.152  1.00  0.00    -0.181 NA
HETATM    7  N   UNL     1      43.413 -13.743   7.703  1.00  0.00    -0.343 N 
HETATM    8  C   UNL     1      43.079 -14.934   7.053  1.00  0.00     0.021 A 
HETATM    9  C   UNL     1      42.989 -16.181   7.893  1.00  0.00     0.069 C 
HETATM   10  C   UNL     1      42.861 -14.943   5.718  1.00  0.00     0.061 A 
HETATM   11  H   UNL     1      43.403 -13.788   8.721  1.00  0.00     0.167 HD
ENDROOT
BRANCH   4  12
HETATM   12  C   UNL     1      44.093 -10.685   8.722  1.00  0.00     0.261 C 
HETATM   13  N   UNL     1      42.997 -10.143   9.370  1.00  0.00    -0.323 N 
HETATM   14  H   UNL     1      42.108 -10.255   8.898  1.00  0.00     0.169 HD
HETATM   15  O   UNL     1      45.227 -10.772   9.174  1.00  0.00    -0.267 OA
BRANCH  13  16
HETATM   16  C   UNL     1      42.955  -9.632  10.685  1.00  0.00     0.035 A 
HETATM   17  C   UNL     1      42.620 -10.396  11.809  1.00  0.00     0.032 A 
HETATM   18  C   UNL     1      42.562  -9.808  13.078  1.00  0.00     0.044 A 
HETATM   19  C   UNL     1      42.843  -8.457  13.222  1.00  0.00     0.116 A 
HETATM   20  F   UNL     1      42.778  -7.895  14.435  1.00  0.00    -0.206 F 
HETATM   21  C   UNL     1      43.188  -7.683  12.123  1.00  0.00     0.044 A 
HETATM   22  C   UNL     1      43.245  -8.271  10.855  1.00  0.00     0.032 A 
ENDBRANCH  13  16
ENDBRANCH   4  12
BRANCH   1  23
HETATM   23  C   UNL     1      41.765 -13.397   3.978  1.00  0.00     0.005 A 
HETATM   24  C   UNL     1      41.813 -13.401   2.573  1.00  0.00     0.077 A 
HETATM   25  C   UNL     1      40.671 -13.117   1.817  1.00  0.00     0.037 A 
HETATM   26  C   UNL     1      39.454 -12.874   2.452  1.00  0.00     0.003 A 
HETATM   27  C   UNL     1      39.379 -12.893   3.841  1.00  0.00     0.001 A 
HETATM   28  C   UNL     1      40.523 -13.149   4.597  1.00  0.00     0.012 A 
BRANCH  24  29
HETATM   29  O   UNL     1      43.032 -13.542   1.957  1.00  0.00    -0.351 OA
BRANCH  29  30
HETATM   30  C   UNL     1      43.431 -14.912   1.832  1.00  0.00     0.171 C 
HETATM   31  C   UNL     1      42.277 -15.670   1.202  1.00  0.00     0.034 C 
ENDBRANCH  29  30
ENDBRANCH  24  29
ENDBRANCH   1  23
BRANCH  10  32
HETATM   32  C   UNL     1      42.535 -16.192   4.990  1.00  0.00     0.256 C 
HETATM   33  N   UNL     1      43.670 -16.900   4.664  1.00  0.00    -0.323 N 
HETATM   34  H   UNL     1      44.551 -16.494   4.969  1.00  0.00     0.169 HD
HETATM   35  O   UNL     1      41.365 -16.484   4.787  1.00  0.00    -0.267 OA
BRANCH  33  36
HETATM   36  C   UNL     1      43.748 -18.212   4.159  1.00  0.00     0.035 A 
HETATM   37  C   UNL     1      43.548 -18.545   2.820  1.00  0.00     0.029 A 
HETATM   38  C   UNL     1      43.603 -19.882   2.411  1.00  0.00     0.002 A 
HETATM   39  C   UNL     1      43.854 -20.892   3.336  1.00  0.00     0.000 A 
HETATM   40  C   UNL     1      44.061 -20.567   4.674  1.00  0.00     0.002 A 
HETATM   41  C   UNL     1      44.014 -19.232   5.082  1.00  0.00     0.029 A 
ENDBRANCH  33  36
ENDBRANCH  10  32
TORSDOF 7
ENDMDL
MODEL 3
REMARK VINA RESULT:      -9.3      3.535      9.256
REMARK  7 active torsions:
REMARK  status: ('A' for Active; 'I' for Inactive)
REMARK    1  A    between atoms: C_2  and  O_3 
REMARK    2  A    between atoms: O_3  and  C_4 
REMARK    3  A    between atoms: C_5  and  C_6 
REMARK    4  A    between atoms: C_9  and  C_10 
REMARK       I    between atoms: C_10  and  N_11 
REMARK    5  A    between atoms: N_11  and  C_12 
REMARK    6  A    between atoms: C_25  and  C_26 
REMARK       I    between atoms: C_26  and  N_27 
REMARK    7  A    between atoms: N_27  and  C_28 
ROOT
HETATM    1  C   UNL     1      41.542 -10.658   6.597  1.00  0.00     0.188 A 
HETATM    2  N   UNL     1      41.492 -11.779   5.637  1.00  0.00    -0.239 N 
HETATM    3  C   UNL     1      42.573 -12.570   5.305  1.00  0.00     0.142 A 
HETATM    4  C   UNL     1      42.101 -13.483   4.382  1.00  0.00     0.097 A 
HETATM    5  C   UNL     1      40.735 -13.139   4.222  1.00  0.00     0.160 A 
HETATM    6  N   UNL     1      40.346 -12.146   5.022  1.00  0.00    -0.181 NA
HETATM    7  N   UNL     1      43.781 -12.308   5.868  1.00  0.00    -0.343 N 
HETATM    8  C   UNL     1      43.981 -11.258   6.767  1.00  0.00     0.021 A 
HETATM    9  C   UNL     1      45.372 -11.070   7.316  1.00  0.00     0.069 C 
HETATM   10  C   UNL     1      42.948 -10.460   7.124  1.00  0.00     0.061 A 
HETATM   11  H   UNL     1      44.631 -12.756   5.530  1.00  0.00     0.167 HD
ENDROOT
BRANCH   4  12
HETATM   12  C   UNL     1      42.774 -14.564   3.688  1.00  0.00     0.261 C 
HETATM   13  N   UNL     1      42.574 -15.806   4.265  1.00  0.00    -0.323 N 
HETATM   14  H   UNL     1      41.944 -15.826   5.058  1.00  0.00     0.169 HD
HETATM   15  O   UNL     1      43.390 -14.341   2.654  1.00  0.00    -0.267 OA
BRANCH  13  16
HETATM   16  C   UNL     1      42.990 -17.056   3.758  1.00  0.00     0.035 A 
HETATM   17  C   UNL     1      42.567 -17.582   2.533  1.00  0.00     0.032 A 
HETATM   18  C   UNL     1      42.994 -18.848   2.115  1.00  0.00     0.044 A 
HETATM   19  C   UNL     1      43.850 -19.584   2.922  1.00  0.00     0.116 A 
HETATM   20  F   UNL     1      44.252 -20.797   2.526  1.00  0.00    -0.206 F 
HETATM   21  C   UNL     1      44.292 -19.076   4.136  1.00  0.00     0.044 A 
HETATM   22  C   UNL     1      43.863 -17.812   4.554  1.00  0.00     0.032 A 
ENDBRANCH  13  16
ENDBRANCH   4  12
BRANCH   1  23
HETATM   23  C   UNL     1      40.891  -9.419   5.981  1.00  0.00     0.005 A 
HETATM   24  C   UNL     1      39.727  -8.821   6.496  1.00  0.00     0.077 A 
HETATM   25  C   UNL     1      39.177  -7.687   5.889  1.00  0.00     0.037 A 
HETATM   26  C   UNL     1      39.809  -7.104   4.792  1.00  0.00     0.003 A 
HETATM   27  C   UNL     1      40.978  -7.664   4.286  1.00  0.00     0.001 A 
HETATM   28  C   UNL     1      41.513  -8.811   4.873  1.00  0.00     0.012 A 
BRANCH  24  29
HETATM   29  O   UNL     1      39.056  -9.456   7.511  1.00  0.00    -0.351 OA
BRANCH  29  30
HETATM   30  C   UNL     1      39.155  -8.758   8.759  1.00  0.00     0.171 C 
HETATM   31  C   UNL     1      39.068  -9.789   9.869  1.00  0.00     0.034 C 
ENDBRANCH  29  30
ENDBRANCH  24  29
ENDBRANCH   1  23
BRANCH  10  32
HETATM   32  C   UNL     1      43.116  -9.355   8.097  1.00  0.00     0.256 C 
HETATM   33  N   UNL     1      42.545  -9.660   9.312  1.00  0.00    -0.323 N 
HETATM   34  H   UNL     1      42.113 -10.577   9.385  1.00  0.00     0.169 HD
HETATM   35  O   UNL     1      43.736  -8.353   7.771  1.00  0.00    -0.267 OA
BRANCH  33  36
HETATM   36  C   UNL     1      42.678  -8.955  10.524  1.00  0.00     0.035 A 
HETATM   37  C   UNL     1      43.125  -9.528  11.714  1.00  0.00     0.029 A 
HETATM   38  C   UNL     1      43.186  -8.764  12.884  1.00  0.00     0.002 A 
HETATM   39  C   UNL     1      42.799  -7.426  12.874  1.00  0.00     0.000 A 
HETATM   40  C   UNL     1      42.356  -6.845  11.688  1.00  0.00     0.002 A 
HETATM   41  C   UNL     1      42.302  -7.605  10.518  1.00  0.00     0.029 A 
ENDBRANCH  33  36
ENDBRANCH  10  32
TORSDOF 7
ENDMDL
MODEL 4
REMARK VINA RESULT:      -8.9      5.967      8.235
REMARK  7 active torsions:
REMARK  status: ('A' for Active; 'I' for Inactive)
REMARK    1  A    between atoms: C_2  and  O_3 
REMARK    2  A    between atoms: O_3  and  C_4 
REMARK    3  A    between atoms: C_5  and  C_6 
REMARK    4  A    between atoms: C_9  and  C_10 
REMARK       I    between atoms: C_10  and  N_11 
REMARK    5  A    between atoms: N_11  and  C_12 
REMARK    6  A    between atoms: C_25  and  C_26 
REMARK       I    between atoms: C_26  and  N_27 
REMARK    7  A    between atoms: N_27  and  C_28 
ROOT
HETATM    1  C   UNL     1      41.262 -11.886  -0.799  1.00  0.00     0.188 A 
HETATM    2  N   UNL     1      41.381 -10.490  -1.265  1.00  0.00    -0.239 N 
HETATM    3  C   UNL     1      41.593  -9.407  -0.437  1.00  0.00     0.142 A 
HETATM    4  C   UNL     1      41.635  -8.302  -1.266  1.00  0.00     0.097 A 
HETATM    5  C   UNL     1      41.420  -8.834  -2.562  1.00  0.00     0.160 A 
HETATM    6  N   UNL     1      41.324 -10.164  -2.576  1.00  0.00    -0.181 NA
HETATM    7  N   UNL     1      41.681  -9.608   0.903  1.00  0.00    -0.343 N 
HETATM    8  C   UNL     1      41.553 -10.871   1.486  1.00  0.00     0.021 A 
HETATM    9  C   UNL     1      41.665 -10.959   2.986  1.00  0.00     0.069 C 
HETATM   10  C   UNL     1      41.349 -11.961   0.711  1.00  0.00     0.061 A 
HETATM   11  H   UNL     1      41.672  -8.827   1.558  1.00  0.00     0.167 HD
ENDROOT
BRANCH   4  12
HETATM   12  C   UNL     1      41.839  -6.898  -0.964  1.00  0.00     0.261 C 
HETATM   13  N   UNL     1      43.074  -6.623  -0.404  1.00  0.00    -0.323 N 
HETATM   14  H   UNL     1      43.705  -7.411  -0.322  1.00  0.00     0.169 HD
HETATM   15  O   UNL     1      40.985  -6.075  -1.268  1.00  0.00    -0.267 OA
BRANCH  13  16
HETATM   16  C   UNL     1      43.612  -5.350  -0.117  1.00  0.00     0.035 A 
HETATM   17  C   UNL     1      43.265  -4.591   1.006  1.00  0.00     0.032 A 
HETATM   18  C   UNL     1      43.814  -3.318   1.202  1.00  0.00     0.044 A 
HETATM   19  C   UNL     1      44.714  -2.809   0.277  1.00  0.00     0.116 A 
HETATM   20  F   UNL     1      45.232  -1.588   0.462  1.00  0.00    -0.206 F 
HETATM   21  C   UNL     1      45.081  -3.550  -0.838  1.00  0.00     0.044 A 
HETATM   22  C   UNL     1      44.531  -4.820  -1.034  1.00  0.00     0.032 A 
ENDBRANCH  13  16
ENDBRANCH   4  12
BRANCH   1  23
HETATM   23  C   UNL     1      40.024 -12.536  -1.419  1.00  0.00     0.005 A 
HETATM   24  C   UNL     1      38.717 -12.055  -1.222  1.00  0.00     0.077 A 
HETATM   25  C   UNL     1      37.623 -12.692  -1.816  1.00  0.00     0.037 A 
HETATM   26  C   UNL     1      37.822 -13.788  -2.655  1.00  0.00     0.003 A 
HETATM   27  C   UNL     1      39.110 -14.260  -2.886  1.00  0.00     0.001 A 
HETATM   28  C   UNL     1      40.200 -13.643  -2.272  1.00  0.00     0.012 A 
BRANCH  24  29
HETATM   29  O   UNL     1      38.520 -11.041  -0.317  1.00  0.00    -0.351 OA
BRANCH  29  30
HETATM   30  C   UNL     1      37.469 -11.330   0.613  1.00  0.00     0.171 C 
HETATM   31  C   UNL     1      37.959 -10.936   1.995  1.00  0.00     0.034 C 
ENDBRANCH  29  30
ENDBRANCH  24  29
ENDBRANCH   1  23
BRANCH  10  32
HETATM   32  C   UNL     1      41.239 -13.321   1.290  1.00  0.00     0.256 C 
HETATM   33  N   UNL     1      42.472 -13.919   1.417  1.00  0.00    -0.323 N 
HETATM   34  H   UNL     1      43.270 -13.362   1.121  1.00  0.00     0.169 HD
HETATM   35  O   UNL     1      40.142 -13.750   1.617  1.00  0.00    -0.267 OA
BRANCH  33  36
HETATM   36  C   UNL     1      42.783 -15.108   2.103  1.00  0.00     0.035 A 
HETATM   37  C   UNL     1      42.936 -16.348   1.483  1.00  0.00     0.029 A 
HETATM   38  C   UNL     1      43.204 -17.489   2.247  1.00  0.00     0.002 A 
HETATM   39  C   UNL     1      43.318 -17.399   3.633  1.00  0.00     0.000 A 
HETATM   40  C   UNL     1      43.172 -16.164   4.259  1.00  0.00     0.002 A 
HETATM   41  C   UNL     1      42.912 -15.023   3.495  1.00  0.00     0.029 A 
ENDBRANCH  33  36
ENDBRANCH  10  32
TORSDOF 7
ENDMDL
MODEL 5
REMARK VINA RESULT:      -8.6      3.917     10.690
REMARK  7 active torsions:
REMARK  status: ('A' for Active; 'I' for Inactive)
REMARK    1  A    between atoms: C_2  and  O_3 
REMARK    2  A    between atoms: O_3  and  C_4 
REMARK    3  A    between atoms: C_5  and  C_6 
REMARK    4  A    between atoms: C_9  and  C_10 
REMARK       I    between atoms: C_10  and  N_11 
REMARK    5  A    between atoms: N_11  and  C_12 
REMARK    6  A    between atoms: C_25  and  C_26 
REMARK       I    between atoms: C_26  and  N_27 
REMARK    7  A    between atoms: N_27  and  C_28 
ROOT
HETATM    1  C   UNL     1      42.944  -7.778  10.511  1.00  0.00     0.188 A 
HETATM    2  N   UNL     1      43.689  -8.924   9.953  1.00  0.00    -0.239 N 
HETATM    3  C   UNL     1      43.438  -9.493   8.721  1.00  0.00     0.142 A 
HETATM    4  C   UNL     1      44.344 -10.527   8.592  1.00  0.00     0.097 A 
HETATM    5  C   UNL     1      45.076 -10.499   9.805  1.00  0.00     0.160 A 
HETATM    6  N   UNL     1      44.724  -9.494  10.609  1.00  0.00    -0.181 NA
HETATM    7  N   UNL     1      42.428  -8.998   7.960  1.00  0.00    -0.343 N 
HETATM    8  C   UNL     1      41.618  -7.939   8.377  1.00  0.00     0.021 A 
HETATM    9  C   UNL     1      40.527  -7.488   7.441  1.00  0.00     0.069 C 
HETATM   10  C   UNL     1      41.833  -7.348   9.575  1.00  0.00     0.061 A 
HETATM   11  H   UNL     1      42.103  -9.488   7.127  1.00  0.00     0.167 HD
ENDROOT
BRANCH   4  12
HETATM   12  C   UNL     1      44.561 -11.468   7.510  1.00  0.00     0.261 C 
HETATM   13  N   UNL     1      43.558 -12.413   7.384  1.00  0.00    -0.323 N 
HETATM   14  H   UNL     1      42.772 -12.306   8.015  1.00  0.00     0.169 HD
HETATM   15  O   UNL     1      45.527 -11.340   6.769  1.00  0.00    -0.267 OA
BRANCH  13  16
HETATM   16  C   UNL     1      43.420 -13.376   6.362  1.00  0.00     0.035 A 
HETATM   17  C   UNL     1      42.989 -13.081   5.064  1.00  0.00     0.032 A 
HETATM   18  C   UNL     1      42.841 -14.099   4.115  1.00  0.00     0.044 A 
HETATM   19  C   UNL     1      43.129 -15.410   4.464  1.00  0.00     0.116 A 
HETATM   20  F   UNL     1      42.978 -16.384   3.557  1.00  0.00    -0.206 F 
HETATM   21  C   UNL     1      43.568 -15.724   5.742  1.00  0.00     0.044 A 
HETATM   22  C   UNL     1      43.715 -14.707   6.691  1.00  0.00     0.032 A 
ENDBRANCH  13  16
ENDBRANCH   4  12
BRANCH   1  23
HETATM   23  C   UNL     1      42.512  -8.089  11.944  1.00  0.00     0.005 A 
HETATM   24  C   UNL     1      41.680  -9.171  12.284  1.00  0.00     0.077 A 
HETATM   25  C   UNL     1      41.319  -9.405  13.615  1.00  0.00     0.037 A 
HETATM   26  C   UNL     1      41.823  -8.593  14.630  1.00  0.00     0.003 A 
HETATM   27  C   UNL     1      42.670  -7.536  14.317  1.00  0.00     0.001 A 
HETATM   28  C   UNL     1      43.010  -7.283  12.988  1.00  0.00     0.012 A 
BRANCH  24  29
HETATM   29  O   UNL     1      41.109  -9.903  11.273  1.00  0.00    -0.351 OA
BRANCH  29  30
HETATM   30  C   UNL     1      39.690 -10.034  11.422  1.00  0.00     0.171 C 
HETATM   31  C   UNL     1      39.081 -10.036  10.032  1.00  0.00     0.034 C 
ENDBRANCH  29  30
ENDBRANCH  24  29
ENDBRANCH   1  23
BRANCH  10  32
HETATM   32  C   UNL     1      41.016  -6.203  10.039  1.00  0.00     0.256 C 
HETATM   33  N   UNL     1      39.801  -6.616  10.538  1.00  0.00    -0.323 N 
HETATM   34  H   UNL     1      39.637  -7.619  10.537  1.00  0.00     0.169 HD
HETATM   35  O   UNL     1      41.474  -5.071   9.977  1.00  0.00    -0.267 OA
BRANCH  33  36
HETATM   36  C   UNL     1      38.857  -5.847  11.245  1.00  0.00     0.035 A 
HETATM   37  C   UNL     1      38.112  -4.814  10.679  1.00  0.00     0.029 A 
HETATM   38  C   UNL     1      37.224  -4.072  11.465  1.00  0.00     0.002 A 
HETATM   39  C   UNL     1      37.079  -4.355  12.822  1.00  0.00     0.000 A 
HETATM   40  C   UNL     1      37.815  -5.389  13.394  1.00  0.00     0.002 A 
HETATM   41  C   UNL     1      38.696  -6.135  12.607  1.00  0.00     0.029 A 
ENDBRANCH  33  36
ENDBRANCH  10  32
TORSDOF 7
ENDMDL
MODEL 6
REMARK VINA RESULT:      -8.5      5.946     10.033
REMARK  7 active torsions:
REMARK  status: ('A' for Active; 'I' for Inactive)
REMARK    1  A    between atoms: C_2  and  O_3 
REMARK    2  A    between atoms: O_3  and  C_4 
REMARK    3  A    between atoms: C_5  and  C_6 
REMARK    4  A    between atoms: C_9  and  C_10 
REMARK       I    between atoms: C_10  and  N_11 
REMARK    5  A    between atoms: N_11  and  C_12 
REMARK    6  A    between atoms: C_25  and  C_26 
REMARK       I    between atoms: C_26  and  N_27 
REMARK    7  A    between atoms: N_27  and  C_28 
ROOT
HETATM    1  C   UNL     1      41.031 -12.035  -0.152  1.00  0.00     0.188 A 
HETATM    2  N   UNL     1      41.483 -12.931   0.930  1.00  0.00    -0.239 N 
HETATM    3  C   UNL     1      41.167 -14.272   1.017  1.00  0.00     0.142 A 
HETATM    4  C   UNL     1      41.778 -14.729   2.168  1.00  0.00     0.097 A 
HETATM    5  C   UNL     1      42.416 -13.581   2.701  1.00  0.00     0.160 A 
HETATM    6  N   UNL     1      42.291 -12.503   1.926  1.00  0.00    -0.181 NA
HETATM    7  N   UNL     1      40.370 -14.824   0.066  1.00  0.00    -0.343 N 
HETATM    8  C   UNL     1      39.842 -14.086  -0.997  1.00  0.00     0.021 A 
HETATM    9  C   UNL     1      38.966 -14.817  -1.981  1.00  0.00     0.069 C 
HETATM   10  C   UNL     1      40.130 -12.770  -1.122  1.00  0.00     0.061 A 
HETATM   11  H   UNL     1      39.979 -15.759   0.179  1.00  0.00     0.167 HD
ENDROOT
BRANCH   4  12
HETATM   12  C   UNL     1      41.806 -16.051   2.765  1.00  0.00     0.261 C 
HETATM   13  N   UNL     1      42.956 -16.766   2.481  1.00  0.00    -0.323 N 
HETATM   14  H   UNL     1      43.660 -16.272   1.945  1.00  0.00     0.169 HD
HETATM   15  O   UNL     1      40.896 -16.412   3.500  1.00  0.00    -0.267 OA
BRANCH  13  16
HETATM   16  C   UNL     1      43.331 -18.019   3.012  1.00  0.00     0.035 A 
HETATM   17  C   UNL     1      43.288 -19.217   2.290  1.00  0.00     0.032 A 
HETATM   18  C   UNL     1      43.639 -20.427   2.898  1.00  0.00     0.044 A 
HETATM   19  C   UNL     1      44.039 -20.438   4.227  1.00  0.00     0.116 A 
HETATM   20  F   UNL     1      44.367 -21.598   4.809  1.00  0.00    -0.206 F 
HETATM   21  C   UNL     1      44.100 -19.260   4.958  1.00  0.00     0.044 A 
HETATM   22  C   UNL     1      43.747 -18.050   4.351  1.00  0.00     0.032 A 
ENDBRANCH  13  16
ENDBRANCH   4  12
BRANCH   1  23
HETATM   23  C   UNL     1      40.446 -10.755   0.446  1.00  0.00     0.005 A 
HETATM   24  C   UNL     1      40.995  -9.478   0.227  1.00  0.00     0.077 A 
HETATM   25  C   UNL     1      40.415  -8.343   0.801  1.00  0.00     0.037 A 
HETATM   26  C   UNL     1      39.250  -8.458   1.558  1.00  0.00     0.003 A 
HETATM   27  C   UNL     1      38.675  -9.708   1.761  1.00  0.00     0.001 A 
HETATM   28  C   UNL     1      39.268 -10.846   1.213  1.00  0.00     0.012 A 
BRANCH  24  29
HETATM   29  O   UNL     1      42.195  -9.383  -0.434  1.00  0.00    -0.351 OA
BRANCH  29  30
HETATM   30  C   UNL     1      42.101  -8.612  -1.637  1.00  0.00     0.171 C 
HETATM   31  C   UNL     1      43.306  -7.691  -1.687  1.00  0.00     0.034 C 
ENDBRANCH  29  30
ENDBRANCH  24  29
ENDBRANCH   1  23
BRANCH  10  32
HETATM   32  C   UNL     1      39.614 -11.963  -2.252  1.00  0.00     0.256 C 
HETATM   33  N   UNL     1      38.289 -11.634  -2.076  1.00  0.00    -0.323 N 
HETATM   34  H   UNL     1      37.858 -11.964  -1.216  1.00  0.00     0.169 HD
HETATM   35  O   UNL     1      40.368 -11.647  -3.162  1.00  0.00    -0.267 OA
BRANCH  33  36
HETATM   36  C   UNL     1      37.524 -10.720  -2.826  1.00  0.00     0.035 A 
HETATM   37  C   UNL     1      36.206 -10.947  -3.220  1.00  0.00     0.029 A 
HETATM   38  C   UNL     1      35.531 -10.001  -4.001  1.00  0.00     0.002 A 
HETATM   39  C   UNL     1      36.171  -8.828  -4.395  1.00  0.00     0.000 A 
HETATM   40  C   UNL     1      37.485  -8.592  -4.001  1.00  0.00     0.002 A 
HETATM   41  C   UNL     1      38.156  -9.532  -3.215  1.00  0.00     0.029 A 
ENDBRANCH  33  36
ENDBRANCH  10  32
TORSDOF 7
ENDMDL
MODEL 7
REMARK VINA RESULT:      -8.3      3.957     11.126
REMARK  7 active torsions:
REMARK  status: ('A' for Active; 'I' for Inactive)
REMARK    1  A    between atoms: C_2  and  O_3 
REMARK    2  A    between atoms: O_3  and  C_4 
REMARK    3  A    between atoms: C_5  and  C_6 
REMARK    4  A    between atoms: C_9  and  C_10 
REMARK       I    between atoms: C_10  and  N_11 
REMARK    5  A    between atoms: N_11  and  C_12 
REMARK    6  A    between atoms: C_25  and  C_26 
REMARK       I    between atoms: C_26  and  N_27 
REMARK    7  A    between atoms: N_27  and  C_28 
ROOT
HETATM    1  C   UNL     1      43.362  -7.810  10.756  1.00  0.00     0.188 A 
HETATM    2  N   UNL     1      43.901  -9.034  10.132  1.00  0.00    -0.239 N 
HETATM    3  C   UNL     1      43.705  -9.390   8.814  1.00  0.00     0.142 A 
HETATM    4  C   UNL     1      44.365 -10.592   8.645  1.00  0.00     0.097 A 
HETATM    5  C   UNL     1      44.906 -10.872   9.925  1.00  0.00     0.160 A 
HETATM    6  N   UNL     1      44.679  -9.904  10.815  1.00  0.00    -0.181 NA
HETATM    7  N   UNL     1      42.949  -8.589   8.020  1.00  0.00    -0.343 N 
HETATM    8  C   UNL     1      42.348  -7.417   8.486  1.00  0.00     0.021 A 
HETATM    9  C   UNL     1      41.528  -6.619   7.505  1.00  0.00     0.069 C 
HETATM   10  C   UNL     1      42.519  -7.028   9.771  1.00  0.00     0.061 A 
HETATM   11  H   UNL     1      42.643  -8.893   7.097  1.00  0.00     0.167 HD
ENDROOT
BRANCH   4  12
HETATM   12  C   UNL     1      44.514 -11.435   7.475  1.00  0.00     0.261 C 
HETATM   13  N   UNL     1      43.592 -12.464   7.408  1.00  0.00    -0.323 N 
HETATM   14  H   UNL     1      42.893 -12.476   8.142  1.00  0.00     0.169 HD
HETATM   15  O   UNL     1      45.355 -11.165   6.627  1.00  0.00    -0.267 OA
BRANCH  13  16
HETATM   16  C   UNL     1      43.402 -13.369   6.341  1.00  0.00     0.035 A 
HETATM   17  C   UNL     1      42.890 -13.004   5.091  1.00  0.00     0.032 A 
HETATM   18  C   UNL     1      42.695 -13.967   4.094  1.00  0.00     0.044 A 
HETATM   19  C   UNL     1      43.017 -15.293   4.348  1.00  0.00     0.116 A 
HETATM   20  F   UNL     1      42.822 -16.214   3.396  1.00  0.00    -0.206 F 
HETATM   21  C   UNL     1      43.537 -15.674   5.576  1.00  0.00     0.044 A 
HETATM   22  C   UNL     1      43.731 -14.712   6.573  1.00  0.00     0.032 A 
ENDBRANCH  13  16
ENDBRANCH   4  12
BRANCH   1  23
HETATM   23  C   UNL     1      42.673  -8.161  12.076  1.00  0.00     0.005 A 
HETATM   24  C   UNL     1      41.635  -9.103  12.181  1.00  0.00     0.077 A 
HETATM   25  C   UNL     1      41.044  -9.382  13.417  1.00  0.00     0.037 A 
HETATM   26  C   UNL     1      41.514  -8.762  14.574  1.00  0.00     0.003 A 
HETATM   27  C   UNL     1      42.560  -7.848  14.495  1.00  0.00     0.001 A 
HETATM   28  C   UNL     1      43.133  -7.548  13.259  1.00  0.00     0.012 A 
BRANCH  24  29
HETATM   29  O   UNL     1      41.111  -9.634  11.028  1.00  0.00    -0.351 OA
BRANCH  29  30
HETATM   30  C   UNL     1      39.703  -9.402  10.905  1.00  0.00     0.171 C 
HETATM   31  C   UNL     1      39.365  -9.409   9.425  1.00  0.00     0.034 C 
ENDBRANCH  29  30
ENDBRANCH  24  29
ENDBRANCH   1  23
BRANCH  10  32
HETATM   32  C   UNL     1      41.922  -5.776  10.293  1.00  0.00     0.256 C 
HETATM   33  N   UNL     1      42.856  -4.768  10.381  1.00  0.00    -0.323 N 
HETATM   34  H   UNL     1      43.796  -5.003  10.072  1.00  0.00     0.169 HD
HETATM   35  O   UNL     1      40.727  -5.738  10.548  1.00  0.00    -0.267 OA
BRANCH  33  36
HETATM   36  C   UNL     1      42.625  -3.403  10.636  1.00  0.00     0.035 A 
HETATM   37  C   UNL     1      42.994  -2.757  11.815  1.00  0.00     0.029 A 
HETATM   38  C   UNL     1      42.688  -1.404  12.003  1.00  0.00     0.002 A 
HETATM   39  C   UNL     1      42.009  -0.692  11.017  1.00  0.00     0.000 A 
HETATM   40  C   UNL     1      41.642  -1.329   9.834  1.00  0.00     0.002 A 
HETATM   41  C   UNL     1      41.954  -2.677   9.643  1.00  0.00     0.029 A 
ENDBRANCH  33  36
ENDBRANCH  10  32
TORSDOF 7
ENDMDL
MODEL 8
REMARK VINA RESULT:      -8.1      4.163     10.617
REMARK  7 active torsions:
REMARK  status: ('A' for Active; 'I' for Inactive)
REMARK    1  A    between atoms: C_2  and  O_3 
REMARK    2  A    between atoms: O_3  and  C_4 
REMARK    3  A    between atoms: C_5  and  C_6 
REMARK    4  A    between atoms: C_9  and  C_10 
REMARK       I    between atoms: C_10  and  N_11 
REMARK    5  A    between atoms: N_11  and  C_12 
REMARK    6  A    between atoms: C_25  and  C_26 
REMARK       I    between atoms: C_26  and  N_27 
REMARK    7  A    between atoms: N_27  and  C_28 
ROOT
HETATM    1  C   UNL     1      42.319  -8.228   9.690  1.00  0.00     0.188 A 
HETATM    2  N   UNL     1      43.299  -9.192   9.153  1.00  0.00    -0.239 N 
HETATM    3  C   UNL     1      43.010 -10.153   8.205  1.00  0.00     0.142 A 
HETATM    4  C   UNL     1      44.191 -10.837   7.990  1.00  0.00     0.097 A 
HETATM    5  C   UNL     1      45.114 -10.217   8.869  1.00  0.00     0.160 A 
HETATM    6  N   UNL     1      44.596  -9.183   9.533  1.00  0.00    -0.181 NA
HETATM    7  N   UNL     1      41.740 -10.254   7.734  1.00  0.00    -0.343 N 
HETATM    8  C   UNL     1      40.703  -9.430   8.179  1.00  0.00     0.021 A 
HETATM    9  C   UNL     1      39.338  -9.649   7.582  1.00  0.00     0.069 C 
HETATM   10  C   UNL     1      40.944  -8.472   9.104  1.00  0.00     0.061 A 
HETATM   11  H   UNL     1      41.448 -11.047   7.165  1.00  0.00     0.167 HD
ENDROOT
BRANCH   4  12
HETATM   12  C   UNL     1      44.499 -11.940   7.101  1.00  0.00     0.261 C 
HETATM   13  N   UNL     1      43.568 -12.963   7.140  1.00  0.00    -0.323 N 
HETATM   14  H   UNL     1      42.763 -12.802   7.733  1.00  0.00     0.169 HD
HETATM   15  O   UNL     1      45.470 -11.877   6.358  1.00  0.00    -0.267 OA
BRANCH  13  16
HETATM   16  C   UNL     1      43.524 -14.104   6.310  1.00  0.00     0.035 A 
HETATM   17  C   UNL     1      44.027 -15.357   6.678  1.00  0.00     0.032 A 
HETATM   18  C   UNL     1      43.981 -16.433   5.783  1.00  0.00     0.044 A 
HETATM   19  C   UNL     1      43.427 -16.255   4.524  1.00  0.00     0.116 A 
HETATM   20  F   UNL     1      43.391 -17.283   3.667  1.00  0.00    -0.206 F 
HETATM   21  C   UNL     1      42.911 -15.024   4.143  1.00  0.00     0.044 A 
HETATM   22  C   UNL     1      42.959 -13.949   5.036  1.00  0.00     0.032 A 
ENDBRANCH  13  16
ENDBRANCH   4  12
BRANCH   1  23
HETATM   23  C   UNL     1      42.388  -8.215  11.218  1.00  0.00     0.005 A 
HETATM   24  C   UNL     1      42.415  -7.034  11.981  1.00  0.00     0.077 A 
HETATM   25  C   UNL     1      42.478  -7.086  13.377  1.00  0.00     0.037 A 
HETATM   26  C   UNL     1      42.464  -8.316  14.034  1.00  0.00     0.003 A 
HETATM   27  C   UNL     1      42.408  -9.494  13.298  1.00  0.00     0.001 A 
HETATM   28  C   UNL     1      42.373  -9.446  11.904  1.00  0.00     0.012 A 
BRANCH  24  29
HETATM   29  O   UNL     1      42.530  -5.832  11.328  1.00  0.00    -0.351 OA
BRANCH  29  30
HETATM   30  C   UNL     1      42.213  -4.716  12.168  1.00  0.00     0.171 C 
HETATM   31  C   UNL     1      42.680  -3.459  11.456  1.00  0.00     0.034 C 
ENDBRANCH  29  30
ENDBRANCH  24  29
ENDBRANCH   1  23
BRANCH  10  32
HETATM   32  C   UNL     1      39.877  -7.559   9.577  1.00  0.00     0.256 C 
HETATM   33  N   UNL     1      40.061  -6.278   9.110  1.00  0.00    -0.323 N 
HETATM   34  H   UNL     1      40.869  -6.135   8.508  1.00  0.00     0.169 HD
HETATM   35  O   UNL     1      38.966  -8.000  10.264  1.00  0.00    -0.267 OA
BRANCH  33  36
HETATM   36  C   UNL     1      39.158  -5.200   9.178  1.00  0.00     0.035 A 
HETATM   37  C   UNL     1      39.048  -4.345  10.274  1.00  0.00     0.029 A 
HETATM   38  C   UNL     1      38.092  -3.322  10.276  1.00  0.00     0.002 A 
HETATM   39  C   UNL     1      37.240  -3.151   9.187  1.00  0.00     0.000 A 
HETATM   40  C   UNL     1      37.349  -3.998   8.087  1.00  0.00     0.002 A 
HETATM   41  C   UNL     1      38.307  -5.013   8.081  1.00  0.00     0.029 A 
ENDBRANCH  33  36
ENDBRANCH  10  32
TORSDOF 7
ENDMDL
MODEL 9
REMARK VINA RESULT:      -8.1     17.721     19.626
REMARK  7 active torsions:
REMARK  status: ('A' for Active; 'I' for Inactive)
REMARK    1  A    between atoms: C_2  and  O_3 
REMARK    2  A    between atoms: O_3  and  C_4 
REMARK    3  A    between atoms: C_5  and  C_6 
REMARK    4  A    between atoms: C_9  and  C_10 
REMARK       I    between atoms: C_10  and  N_11 
REMARK    5  A    between atoms: N_11  and  C_12 
REMARK    6  A    between atoms: C_25  and  C_26 
REMARK       I    between atoms: C_26  and  N_27 
REMARK    7  A    between atoms: N_27  and  C_28 
ROOT
HETATM    1  C   UNL     1      43.816 -30.274   1.493  1.00  0.00     0.188 A 
HETATM    2  N   UNL     1      42.593 -30.838   2.097  1.00  0.00    -0.239 N 
HETATM    3  C   UNL     1      42.549 -31.480   3.318  1.00  0.00     0.142 A 
HETATM    4  C   UNL     1      41.232 -31.853   3.500  1.00  0.00     0.097 A 
HETATM    5  C   UNL     1      40.579 -31.402   2.326  1.00  0.00     0.160 A 
HETATM    6  N   UNL     1      41.385 -30.735   1.498  1.00  0.00    -0.181 NA
HETATM    7  N   UNL     1      43.699 -31.636   4.023  1.00  0.00    -0.343 N 
HETATM    8  C   UNL     1      44.936 -31.182   3.557  1.00  0.00     0.021 A 
HETATM    9  C   UNL     1      46.138 -31.422   4.433  1.00  0.00     0.069 C 
HETATM   10  C   UNL     1      45.023 -30.543   2.367  1.00  0.00     0.061 A 
HETATM   11  H   UNL     1      43.742 -32.242   4.841  1.00  0.00     0.167 HD
ENDROOT
BRANCH   4  12
HETATM   12  C   UNL     1      40.586 -32.546   4.598  1.00  0.00     0.261 C 
HETATM   13  N   UNL     1      39.211 -32.398   4.619  1.00  0.00    -0.323 N 
HETATM   14  H   UNL     1      38.813 -31.878   3.846  1.00  0.00     0.169 HD
HETATM   15  O   UNL     1      41.248 -33.240   5.359  1.00  0.00    -0.267 OA
BRANCH  13  16
HETATM   16  C   UNL     1      38.299 -33.045   5.480  1.00  0.00     0.035 A 
HETATM   17  C   UNL     1      38.532 -33.262   6.843  1.00  0.00     0.032 A 
HETATM   18  C   UNL     1      37.594 -33.947   7.625  1.00  0.00     0.044 A 
HETATM   19  C   UNL     1      36.423 -34.410   7.044  1.00  0.00     0.116 A 
HETATM   20  F   UNL     1      35.531 -35.072   7.792  1.00  0.00    -0.206 F 
HETATM   21  C   UNL     1      36.166 -34.196   5.697  1.00  0.00     0.044 A 
HETATM   22  C   UNL     1      37.104 -33.513   4.915  1.00  0.00     0.032 A 
ENDBRANCH  13  16
ENDBRANCH   4  12
BRANCH   1  23
HETATM   23  C   UNL     1      43.940 -30.739   0.042  1.00  0.00     0.005 A 
HETATM   24  C   UNL     1      44.248 -29.874  -1.023  1.00  0.00     0.077 A 
HETATM   25  C   UNL     1      44.349 -30.357  -2.332  1.00  0.00     0.037 A 
HETATM   26  C   UNL     1      44.193 -31.719  -2.589  1.00  0.00     0.003 A 
HETATM   27  C   UNL     1      43.917 -32.595  -1.545  1.00  0.00     0.001 A 
HETATM   28  C   UNL     1      43.789 -32.110  -0.242  1.00  0.00     0.012 A 
BRANCH  24  29
HETATM   29  O   UNL     1      44.301 -28.523  -0.779  1.00  0.00    -0.351 OA
BRANCH  29  30
HETATM   30  C   UNL     1      45.114 -27.823  -1.728  1.00  0.00     0.171 C 
HETATM   31  C   UNL     1      46.530 -27.789  -1.181  1.00  0.00     0.034 C 
ENDBRANCH  29  30
ENDBRANCH  24  29
ENDBRANCH   1  23
BRANCH  10  32
HETATM   32  C   UNL     1      46.312 -30.021   1.855  1.00  0.00     0.256 C 
HETATM   33  N   UNL     1      47.009 -30.984   1.160  1.00  0.00    -0.323 N 
HETATM   34  H   UNL     1      46.556 -31.890   1.079  1.00  0.00     0.169 HD
HETATM   35  O   UNL     1      46.608 -28.850   2.048  1.00  0.00    -0.267 OA
BRANCH  33  36
HETATM   36  C   UNL     1      48.158 -30.807   0.366  1.00  0.00     0.035 A 
HETATM   37  C   UNL     1      49.424 -30.527   0.880  1.00  0.00     0.029 A 
HETATM   38  C   UNL     1      50.506 -30.324   0.016  1.00  0.00     0.002 A 
HETATM   39  C   UNL     1      50.329 -30.396  -1.364  1.00  0.00     0.000 A 
HETATM   40  C   UNL     1      49.069 -30.681  -1.885  1.00  0.00     0.002 A 
HETATM   41  C   UNL     1      47.991 -30.891  -1.022  1.00  0.00     0.029 A 
ENDBRANCH  33  36
ENDBRANCH  10  32
TORSDOF 7
ENDMDL
MODEL 10
REMARK VINA RESULT:      -8.0     17.600     19.286
REMARK  7 active torsions:
REMARK  status: ('A' for Active; 'I' for Inactive)
REMARK    1  A    between atoms: C_2  and  O_3 
REMARK    2  A    between atoms: O_3  and  C_4 
REMARK    3  A    between atoms: C_5  and  C_6 
REMARK    4  A    between atoms: C_9  and  C_10 
REMARK       I    between atoms: C_10  and  N_11 
REMARK    5  A    between atoms: N_11  and  C_12 
REMARK    6  A    between atoms: C_25  and  C_26 
REMARK       I    between atoms: C_26  and  N_27 
REMARK    7  A    between atoms: N_27  and  C_28 
ROOT
HETATM    1  C   UNL     1      44.593 -29.258   1.286  1.00  0.00     0.188 A 
HETATM    2  N   UNL     1      43.341 -29.671   1.949  1.00  0.00    -0.239 N 
HETATM    3  C   UNL     1      43.282 -30.393   3.124  1.00  0.00     0.142 A 
HETATM    4  C   UNL     1      41.938 -30.570   3.390  1.00  0.00     0.097 A 
HETATM    5  C   UNL     1      41.284 -29.931   2.307  1.00  0.00     0.160 A 
HETATM    6  N   UNL     1      42.126 -29.334   1.462  1.00  0.00    -0.181 NA
HETATM    7  N   UNL     1      44.440 -30.781   3.719  1.00  0.00    -0.343 N 
HETATM    8  C   UNL     1      45.697 -30.489   3.184  1.00  0.00     0.021 A 
HETATM    9  C   UNL     1      46.904 -30.982   3.938  1.00  0.00     0.069 C 
HETATM   10  C   UNL     1      45.801 -29.780   2.036  1.00  0.00     0.061 A 
HETATM   11  H   UNL     1      44.443 -31.449   4.488  1.00  0.00     0.167 HD
ENDROOT
BRANCH   4  12
HETATM   12  C   UNL     1      41.270 -31.239   4.489  1.00  0.00     0.261 C 
HETATM   13  N   UNL     1      39.999 -31.689   4.177  1.00  0.00    -0.323 N 
HETATM   14  H   UNL     1      39.708 -31.551   3.217  1.00  0.00     0.169 HD
HETATM   15  O   UNL     1      41.859 -31.420   5.547  1.00  0.00    -0.267 OA
BRANCH  13  16
HETATM   16  C   UNL     1      39.153 -32.478   4.987  1.00  0.00     0.035 A 
HETATM   17  C   UNL     1      39.220 -32.511   6.384  1.00  0.00     0.032 A 
HETATM   18  C   UNL     1      38.371 -33.349   7.117  1.00  0.00     0.044 A 
HETATM   19  C   UNL     1      37.455 -34.150   6.451  1.00  0.00     0.116 A 
HETATM   20  F   UNL     1      36.650 -34.957   7.153  1.00  0.00    -0.206 F 
HETATM   21  C   UNL     1      37.364 -34.124   5.067  1.00  0.00     0.044 A 
HETATM   22  C   UNL     1      38.213 -33.287   4.334  1.00  0.00     0.032 A 
ENDBRANCH  13  16
ENDBRANCH   4  12
BRANCH   1  23
HETATM   23  C   UNL     1      44.537 -29.619  -0.199  1.00  0.00     0.005 A 
HETATM   24  C   UNL     1      44.321 -30.927  -0.670  1.00  0.00     0.077 A 
HETATM   25  C   UNL     1      44.279 -31.196  -2.041  1.00  0.00     0.037 A 
HETATM   26  C   UNL     1      44.402 -30.157  -2.963  1.00  0.00     0.003 A 
HETATM   27  C   UNL     1      44.587 -28.853  -2.517  1.00  0.00     0.001 A 
HETATM   28  C   UNL     1      44.656 -28.586  -1.149  1.00  0.00     0.012 A 
BRANCH  24  29
HETATM   29  O   UNL     1      44.302 -31.957   0.238  1.00  0.00    -0.351 OA
BRANCH  29  30
HETATM   30  C   UNL     1      43.524 -33.073  -0.212  1.00  0.00     0.171 C 
HETATM   31  C   UNL     1      42.173 -32.998   0.477  1.00  0.00     0.034 C 
ENDBRANCH  29  30
ENDBRANCH  24  29
ENDBRANCH   1  23
BRANCH  10  32
HETATM   32  C   UNL     1      47.116 -29.425   1.455  1.00  0.00     0.256 C 
HETATM   33  N   UNL     1      47.682 -30.491   0.791  1.00  0.00    -0.323 N 
HETATM   34  H   UNL     1      47.133 -31.347   0.775  1.00  0.00     0.169 HD
HETATM   35  O   UNL     1      47.541 -28.284   1.573  1.00  0.00    -0.267 OA
BRANCH  33  36
HETATM   36  C   UNL     1      48.812 -30.479  -0.048  1.00  0.00     0.035 A 
HETATM   37  C   UNL     1      48.809 -29.987  -1.352  1.00  0.00     0.029 A 
HETATM   38  C   UNL     1      49.969 -30.052  -2.133  1.00  0.00     0.002 A 
HETATM   39  C   UNL     1      51.135 -30.612  -1.616  1.00  0.00     0.000 A 
HETATM   40  C   UNL     1      51.148 -31.101  -0.312  1.00  0.00     0.002 A 
HETATM   41  C   UNL     1      49.992 -31.029   0.469  1.00  0.00     0.029 A 
ENDBRANCH  33  36
ENDBRANCH  10  32
TORSDOF 7
ENDMDL
