MODEL 1
REMARK VINA RESULT:      -8.4      0.000      0.000
REMARK  3 active torsions:
REMARK  status: ('A' for Active; 'I' for Inactive)
REMARK    1  A    between atoms: C_5  and  N_6 
REMARK       I    between atoms: N_6  and  C_7 
REMARK    2  A    between atoms: C_7  and  C_8 
REMARK    3  A    between atoms: C_8  and  C_9 
ROOT
HETATM    1  C   UNL     1      41.763 -14.801   5.820  1.00  0.00     0.286 C 
HETATM    2  N   UNL     1      43.169 -14.215   5.897  1.00  0.00    -0.056 N 
HETATM    3  H   UNL     1      43.402 -14.204   6.914  1.00  0.00     0.278 HD
HETATM    4  H   UNL     1      43.857 -14.839   5.461  1.00  0.00     0.278 HD
HETATM    5  C   UNL     1      43.303 -12.806   5.391  1.00  0.00     0.209 C 
HETATM    6  C   UNL     1      42.244 -11.906   6.076  1.00  0.00     0.115 C 
HETATM    7  N   UNL     1      40.900 -12.479   6.042  1.00  0.00    -0.353 N 
HETATM    8  C   UNL     1      40.657 -13.815   6.251  1.00  0.00     0.249 C 
HETATM    9  O   UNL     1      39.560 -14.181   6.657  1.00  0.00    -0.271 OA
HETATM   10  C   UNL     1      43.219 -12.790   3.863  1.00  0.00     0.035 C 
HETATM   11  C   UNL     1      43.260 -11.361   3.328  1.00  0.00     0.002 C 
HETATM   12  C   UNL     1      42.162 -10.502   3.951  1.00  0.00     0.002 C 
HETATM   13  C   UNL     1      42.250 -10.495   5.477  1.00  0.00     0.027 C 
HETATM   14  H   UNL     1      40.133 -11.899   6.381  1.00  0.00     0.163 HD
ENDROOT
BRANCH   1  15
HETATM   15  C   UNL     1      41.655 -16.129   6.588  1.00  0.00     0.146 C 
BRANCH  15  16
HETATM   16  C   UNL     1      42.984 -16.546   7.160  1.00  0.00     0.224 C 
HETATM   17  N   UNL     1      43.838 -17.381   6.518  1.00  0.00    -0.327 N 
HETATM   18  H   UNL     1      44.673 -17.548   7.073  1.00  0.00     0.169 HD
HETATM   19  O   UNL     1      43.348 -16.040   8.233  1.00  0.00    -0.273 OA
BRANCH  17  20
HETATM   20  C   UNL     1      43.815 -18.065   5.284  1.00  0.00     0.034 A 
HETATM   21  C   UNL     1      43.674 -17.487   4.024  1.00  0.00     0.030 A 
HETATM   22  C   UNL     1      43.644 -18.286   2.871  1.00  0.00     0.009 A 
HETATM   23  C   UNL     1      43.777 -19.673   2.953  1.00  0.00    -0.062 A 
HETATM   24  C   UNL     1      43.708 -20.532   1.725  1.00  0.00     0.048 C 
HETATM   25  C   UNL     1      43.930 -20.256   4.210  1.00  0.00     0.009 A 
HETATM   26  C   UNL     1      43.951 -19.459   5.359  1.00  0.00     0.030 A 
ENDBRANCH  17  20
ENDBRANCH  15  16
ENDBRANCH   1  15
TORSDOF 3
ENDMDL
MODEL 2
REMARK VINA RESULT:      -8.1      4.216      4.781
REMARK  3 active torsions:
REMARK  status: ('A' for Active; 'I' for Inactive)
REMARK    1  A    between atoms: C_5  and  N_6 
REMARK       I    between atoms: N_6  and  C_7 
REMARK    2  A    between atoms: C_7  and  C_8 
REMARK    3  A    between atoms: C_8  and  C_9 
ROOT
HETATM    1  C   UNL     1      40.061 -14.529   2.165  1.00  0.00     0.286 C 
HETATM    2  N   UNL     1      41.020 -14.582   0.981  1.00  0.00    -0.056 N 
HETATM    3  H   UNL     1      41.832 -13.991   1.265  1.00  0.00     0.278 HD
HETATM    4  H   UNL     1      41.397 -15.527   0.849  1.00  0.00     0.278 HD
HETATM    5  C   UNL     1      40.482 -14.018  -0.304  1.00  0.00     0.209 C 
HETATM    6  C   UNL     1      39.924 -12.594  -0.052  1.00  0.00     0.115 C 
HETATM    7  N   UNL     1      39.035 -12.527   1.106  1.00  0.00    -0.353 N 
HETATM    8  C   UNL     1      39.288 -13.198   2.277  1.00  0.00     0.249 C 
HETATM    9  O   UNL     1      38.813 -12.791   3.331  1.00  0.00    -0.271 OA
HETATM   10  C   UNL     1      39.452 -14.977  -0.904  1.00  0.00     0.035 C 
HETATM   11  C   UNL     1      38.822 -14.386  -2.162  1.00  0.00     0.002 C 
HETATM   12  C   UNL     1      38.206 -13.017  -1.885  1.00  0.00     0.002 C 
HETATM   13  C   UNL     1      39.232 -12.044  -1.304  1.00  0.00     0.027 C 
HETATM   14  H   UNL     1      38.548 -11.647   1.273  1.00  0.00     0.163 HD
ENDROOT
BRANCH   1  15
HETATM   15  C   UNL     1      40.765 -14.876   3.487  1.00  0.00     0.146 C 
BRANCH  15  16
HETATM   16  C   UNL     1      42.199 -14.414   3.487  1.00  0.00     0.224 C 
HETATM   17  N   UNL     1      43.251 -15.267   3.419  1.00  0.00    -0.327 N 
HETATM   18  H   UNL     1      44.133 -14.761   3.444  1.00  0.00     0.169 HD
HETATM   19  O   UNL     1      42.423 -13.195   3.471  1.00  0.00    -0.273 OA
BRANCH  17  20
HETATM   20  C   UNL     1      43.388 -16.668   3.339  1.00  0.00     0.034 A 
HETATM   21  C   UNL     1      43.056 -17.468   2.247  1.00  0.00     0.030 A 
HETATM   22  C   UNL     1      43.221 -18.860   2.304  1.00  0.00     0.009 A 
HETATM   23  C   UNL     1      43.743 -19.477   3.442  1.00  0.00    -0.062 A 
HETATM   24  C   UNL     1      43.886 -20.968   3.520  1.00  0.00     0.048 C 
HETATM   25  C   UNL     1      44.089 -18.681   4.534  1.00  0.00     0.009 A 
HETATM   26  C   UNL     1      43.915 -17.294   4.479  1.00  0.00     0.030 A 
ENDBRANCH  17  20
ENDBRANCH  15  16
ENDBRANCH   1  15
TORSDOF 3
ENDMDL
MODEL 3
REMARK VINA RESULT:      -7.8      4.931      6.069
REMARK  3 active torsions:
REMARK  status: ('A' for Active; 'I' for Inactive)
REMARK    1  A    between atoms: C_5  and  N_6 
REMARK       I    between atoms: N_6  and  C_7 
REMARK    2  A    between atoms: C_7  and  C_8 
REMARK    3  A    between atoms: C_8  and  C_9 
ROOT
HETATM    1  C   UNL     1      39.989 -12.819   1.466  1.00  0.00     0.286 C 
HETATM    2  N   UNL     1      40.918 -12.782   0.257  1.00  0.00    -0.056 N 
HETATM    3  H   UNL     1      41.338 -11.827   0.268  1.00  0.00     0.278 HD
HETATM    4  H   UNL     1      41.704 -13.433   0.372  1.00  0.00     0.278 HD
HETATM    5  C   UNL     1      40.243 -12.961  -1.074  1.00  0.00     0.209 C 
HETATM    6  C   UNL     1      39.066 -11.961  -1.197  1.00  0.00     0.115 C 
HETATM    7  N   UNL     1      38.193 -11.960  -0.025  1.00  0.00    -0.353 N 
HETATM    8  C   UNL     1      38.674 -12.038   1.259  1.00  0.00     0.249 C 
HETATM    9  O   UNL     1      38.009 -11.596   2.189  1.00  0.00    -0.271 OA
HETATM   10  C   UNL     1      39.823 -14.421  -1.255  1.00  0.00     0.035 C 
HETATM   11  C   UNL     1      39.053 -14.611  -2.558  1.00  0.00     0.002 C 
HETATM   12  C   UNL     1      37.849 -13.676  -2.635  1.00  0.00     0.002 C 
HETATM   13  C   UNL     1      38.261 -12.212  -2.477  1.00  0.00     0.027 C 
HETATM   14  H   UNL     1      37.340 -11.405  -0.075  1.00  0.00     0.163 HD
ENDROOT
BRANCH   1  15
HETATM   15  C   UNL     1      40.705 -12.372   2.751  1.00  0.00     0.146 C 
BRANCH  15  16
HETATM   16  C   UNL     1      42.156 -12.059   2.494  1.00  0.00     0.224 C 
HETATM   17  N   UNL     1      43.131 -13.001   2.515  1.00  0.00    -0.327 N 
HETATM   18  H   UNL     1      44.042 -12.588   2.330  1.00  0.00     0.169 HD
HETATM   19  O   UNL     1      42.459 -10.900   2.174  1.00  0.00    -0.273 OA
BRANCH  17  20
HETATM   20  C   UNL     1      43.161 -14.392   2.746  1.00  0.00     0.034 A 
HETATM   21  C   UNL     1      43.064 -15.025   3.983  1.00  0.00     0.030 A 
HETATM   22  C   UNL     1      43.130 -16.423   4.079  1.00  0.00     0.009 A 
HETATM   23  C   UNL     1      43.272 -17.216   2.939  1.00  0.00    -0.062 A 
HETATM   24  C   UNL     1      43.381 -18.709   3.042  1.00  0.00     0.048 C 
HETATM   25  C   UNL     1      43.358 -16.590   1.697  1.00  0.00     0.009 A 
HETATM   26  C   UNL     1      43.301 -15.195   1.604  1.00  0.00     0.030 A 
ENDBRANCH  17  20
ENDBRANCH  15  16
ENDBRANCH   1  15
TORSDOF 3
ENDMDL
MODEL 4
REMARK VINA RESULT:      -7.7      2.249      3.163
REMARK  3 active torsions:
REMARK  status: ('A' for Active; 'I' for Inactive)
REMARK    1  A    between atoms: C_5  and  N_6 
REMARK       I    between atoms: N_6  and  C_7 
REMARK    2  A    between atoms: C_7  and  C_8 
REMARK    3  A    between atoms: C_8  and  C_9 
ROOT
HETATM    1  C   UNL     1      41.181 -14.411   3.872  1.00  0.00     0.286 C 
HETATM    2  N   UNL     1      42.442 -13.713   3.372  1.00  0.00    -0.056 N 
HETATM    3  H   UNL     1      43.131 -14.481   3.214  1.00  0.00     0.278 HD
HETATM    4  H   UNL     1      42.290 -13.283   2.453  1.00  0.00     0.278 HD
HETATM    5  C   UNL     1      43.063 -12.745   4.339  1.00  0.00     0.209 C 
HETATM    6  C   UNL     1      43.270 -13.440   5.708  1.00  0.00     0.115 C 
HETATM    7  N   UNL     1      42.079 -14.146   6.176  1.00  0.00    -0.353 N 
HETATM    8  C   UNL     1      41.274 -14.879   5.339  1.00  0.00     0.249 C 
HETATM    9  O   UNL     1      40.588 -15.788   5.792  1.00  0.00    -0.271 OA
HETATM   10  C   UNL     1      42.215 -11.474   4.424  1.00  0.00     0.035 C 
HETATM   11  C   UNL     1      42.774 -10.512   5.468  1.00  0.00     0.002 C 
HETATM   12  C   UNL     1      42.900 -11.184   6.833  1.00  0.00     0.002 C 
HETATM   13  C   UNL     1      43.764 -12.444   6.763  1.00  0.00     0.027 C 
HETATM   14  H   UNL     1      42.105 -14.540   7.115  1.00  0.00     0.163 HD
ENDROOT
BRANCH   1  15
HETATM   15  C   UNL     1      40.761 -15.563   2.945  1.00  0.00     0.146 C 
BRANCH  15  16
HETATM   16  C   UNL     1      41.724 -15.731   1.799  1.00  0.00     0.224 C 
HETATM   17  N   UNL     1      42.722 -16.649   1.799  1.00  0.00    -0.327 N 
HETATM   18  H   UNL     1      43.267 -16.595   0.943  1.00  0.00     0.169 HD
HETATM   19  O   UNL     1      41.546 -15.050   0.778  1.00  0.00    -0.273 OA
BRANCH  17  20
HETATM   20  C   UNL     1      43.169 -17.628   2.711  1.00  0.00     0.034 A 
HETATM   21  C   UNL     1      43.581 -17.405   4.023  1.00  0.00     0.030 A 
HETATM   22  C   UNL     1      44.026 -18.468   4.823  1.00  0.00     0.009 A 
HETATM   23  C   UNL     1      44.046 -19.776   4.336  1.00  0.00    -0.062 A 
HETATM   24  C   UNL     1      44.557 -20.909   5.176  1.00  0.00     0.048 C 
HETATM   25  C   UNL     1      43.624 -20.007   3.027  1.00  0.00     0.009 A 
HETATM   26  C   UNL     1      43.189 -18.945   2.228  1.00  0.00     0.030 A 
ENDBRANCH  17  20
ENDBRANCH  15  16
ENDBRANCH   1  15
TORSDOF 3
ENDMDL
MODEL 5
REMARK VINA RESULT:      -7.6      2.639      3.984
REMARK  3 active torsions:
REMARK  status: ('A' for Active; 'I' for Inactive)
REMARK    1  A    between atoms: C_5  and  N_6 
REMARK       I    between atoms: N_6  and  C_7 
REMARK    2  A    between atoms: C_7  and  C_8 
REMARK    3  A    between atoms: C_8  and  C_9 
ROOT
HETATM    1  C   UNL     1      42.222 -11.439   5.489  1.00  0.00     0.286 C 
HETATM    2  N   UNL     1      42.776 -12.344   6.585  1.00  0.00    -0.056 N 
HETATM    3  H   UNL     1      41.949 -12.602   7.167  1.00  0.00     0.278 HD
HETATM    4  H   UNL     1      43.128 -13.227   6.196  1.00  0.00     0.278 HD
HETATM    5  C   UNL     1      43.783 -11.702   7.497  1.00  0.00     0.209 C 
HETATM    6  C   UNL     1      43.207 -10.376   8.054  1.00  0.00     0.115 C 
HETATM    7  N   UNL     1      42.637  -9.520   7.016  1.00  0.00    -0.353 N 
HETATM    8  C   UNL     1      41.889 -10.013   5.975  1.00  0.00     0.249 C 
HETATM    9  O   UNL     1      41.079  -9.289   5.408  1.00  0.00    -0.271 OA
HETATM   10  C   UNL     1      45.114 -11.526   6.763  1.00  0.00     0.035 C 
HETATM   11  C   UNL     1      46.128 -10.792   7.637  1.00  0.00     0.002 C 
HETATM   12  C   UNL     1      45.580  -9.450   8.117  1.00  0.00     0.002 C 
HETATM   13  C   UNL     1      44.260  -9.618   8.870  1.00  0.00     0.027 C 
HETATM   14  H   UNL     1      42.333  -8.587   7.291  1.00  0.00     0.163 HD
ENDROOT
BRANCH   1  15
HETATM   15  C   UNL     1      41.021 -12.078   4.774  1.00  0.00     0.146 C 
BRANCH  15  16
HETATM   16  C   UNL     1      40.270 -13.015   5.683  1.00  0.00     0.224 C 
HETATM   17  N   UNL     1      40.307 -14.364   5.550  1.00  0.00    -0.327 N 
HETATM   18  H   UNL     1      39.726 -14.817   6.251  1.00  0.00     0.169 HD
HETATM   19  O   UNL     1      39.653 -12.532   6.644  1.00  0.00    -0.273 OA
BRANCH  17  20
HETATM   20  C   UNL     1      40.947 -15.256   4.664  1.00  0.00     0.034 A 
HETATM   21  C   UNL     1      40.564 -15.532   3.353  1.00  0.00     0.030 A 
HETATM   22  C   UNL     1      41.277 -16.462   2.580  1.00  0.00     0.009 A 
HETATM   23  C   UNL     1      42.398 -17.115   3.094  1.00  0.00    -0.062 A 
HETATM   24  C   UNL     1      43.140 -18.136   2.284  1.00  0.00     0.048 C 
HETATM   25  C   UNL     1      42.794 -16.834   4.401  1.00  0.00     0.009 A 
HETATM   26  C   UNL     1      42.077 -15.914   5.173  1.00  0.00     0.030 A 
ENDBRANCH  17  20
ENDBRANCH  15  16
ENDBRANCH   1  15
TORSDOF 3
ENDMDL
MODEL 6
REMARK VINA RESULT:      -7.6      2.658      3.111
REMARK  3 active torsions:
REMARK  status: ('A' for Active; 'I' for Inactive)
REMARK    1  A    between atoms: C_5  and  N_6 
REMARK       I    between atoms: N_6  and  C_7 
REMARK    2  A    between atoms: C_7  and  C_8 
REMARK    3  A    between atoms: C_8  and  C_9 
ROOT
HETATM    1  C   UNL     1      40.988 -14.032   3.726  1.00  0.00     0.286 C 
HETATM    2  N   UNL     1      40.755 -12.574   4.108  1.00  0.00    -0.056 N 
HETATM    3  H   UNL     1      39.943 -12.592   4.763  1.00  0.00     0.278 HD
HETATM    4  H   UNL     1      41.542 -12.201   4.650  1.00  0.00     0.278 HD
HETATM    5  C   UNL     1      40.390 -11.665   2.968  1.00  0.00     0.209 C 
HETATM    6  C   UNL     1      39.201 -12.272   2.181  1.00  0.00     0.115 C 
HETATM    7  N   UNL     1      39.398 -13.681   1.847  1.00  0.00    -0.353 N 
HETATM    8  C   UNL     1      39.953 -14.582   2.722  1.00  0.00     0.249 C 
HETATM    9  O   UNL     1      39.702 -15.776   2.612  1.00  0.00    -0.271 OA
HETATM   10  C   UNL     1      41.620 -11.396   2.099  1.00  0.00     0.035 C 
HETATM   11  C   UNL     1      41.257 -10.550   0.882  1.00  0.00     0.002 C 
HETATM   12  C   UNL     1      40.137 -11.197   0.069  1.00  0.00     0.002 C 
HETATM   13  C   UNL     1      38.895 -11.450   0.924  1.00  0.00     0.027 C 
HETATM   14  H   UNL     1      38.707 -14.121   1.241  1.00  0.00     0.163 HD
ENDROOT
BRANCH   1  15
HETATM   15  C   UNL     1      41.096 -14.936   4.965  1.00  0.00     0.146 C 
BRANCH  15  16
HETATM   16  C   UNL     1      42.488 -14.920   5.542  1.00  0.00     0.224 C 
HETATM   17  N   UNL     1      43.448 -15.808   5.184  1.00  0.00    -0.327 N 
HETATM   18  H   UNL     1      44.311 -15.638   5.693  1.00  0.00     0.169 HD
HETATM   19  O   UNL     1      42.790 -14.003   6.321  1.00  0.00    -0.273 OA
BRANCH  17  20
HETATM   20  C   UNL     1      43.505 -16.901   4.294  1.00  0.00     0.034 A 
HETATM   21  C   UNL     1      43.123 -16.894   2.955  1.00  0.00     0.030 A 
HETATM   22  C   UNL     1      43.210 -18.060   2.179  1.00  0.00     0.009 A 
HETATM   23  C   UNL     1      43.701 -19.249   2.721  1.00  0.00    -0.062 A 
HETATM   24  C   UNL     1      43.760 -20.507   1.906  1.00  0.00     0.048 C 
HETATM   25  C   UNL     1      44.096 -19.260   4.059  1.00  0.00     0.009 A 
HETATM   26  C   UNL     1      44.001 -18.098   4.832  1.00  0.00     0.030 A 
ENDBRANCH  17  20
ENDBRANCH  15  16
ENDBRANCH   1  15
TORSDOF 3
ENDMDL
MODEL 7
REMARK VINA RESULT:      -7.5     14.583     17.228
REMARK  3 active torsions:
REMARK  status: ('A' for Active; 'I' for Inactive)
REMARK    1  A    between atoms: C_5  and  N_6 
REMARK       I    between atoms: N_6  and  C_7 
REMARK    2  A    between atoms: C_7  and  C_8 
REMARK    3  A    between atoms: C_8  and  C_9 
ROOT
HETATM    1  C   UNL     1      48.549 -29.907   1.437  1.00  0.00     0.286 C 
HETATM    2  N   UNL     1      50.063 -29.733   1.511  1.00  0.00    -0.056 N 
HETATM    3  H   UNL     1      50.413 -30.000   0.565  1.00  0.00     0.278 HD
HETATM    4  H   UNL     1      50.318 -28.746   1.634  1.00  0.00     0.278 HD
HETATM    5  C   UNL     1      50.759 -30.611   2.512  1.00  0.00     0.209 C 
HETATM    6  C   UNL     1      50.341 -32.086   2.287  1.00  0.00     0.115 C 
HETATM    7  N   UNL     1      48.894 -32.257   2.174  1.00  0.00    -0.353 N 
HETATM    8  C   UNL     1      48.094 -31.381   1.482  1.00  0.00     0.249 C 
HETATM    9  O   UNL     1      47.020 -31.760   1.030  1.00  0.00    -0.271 OA
HETATM   10  C   UNL     1      50.482 -30.109   3.931  1.00  0.00     0.035 C 
HETATM   11  C   UNL     1      51.103 -31.038   4.970  1.00  0.00     0.002 C 
HETATM   12  C   UNL     1      50.622 -32.476   4.789  1.00  0.00     0.002 C 
HETATM   13  C   UNL     1      50.914 -32.994   3.381  1.00  0.00     0.027 C 
HETATM   14  H   UNL     1      48.536 -33.211   2.129  1.00  0.00     0.163 HD
ENDROOT
BRANCH   1  15
HETATM   15  C   UNL     1      47.949 -29.176   0.225  1.00  0.00     0.146 C 
BRANCH  15  16
HETATM   16  C   UNL     1      46.822 -28.264   0.632  1.00  0.00     0.224 C 
HETATM   17  N   UNL     1      45.691 -28.112  -0.101  1.00  0.00    -0.327 N 
HETATM   18  H   UNL     1      45.060 -27.446   0.336  1.00  0.00     0.169 HD
HETATM   19  O   UNL     1      46.900 -27.685   1.726  1.00  0.00    -0.273 OA
BRANCH  17  20
HETATM   20  C   UNL     1      45.217 -28.652  -1.315  1.00  0.00     0.034 A 
HETATM   21  C   UNL     1      44.409 -29.778  -1.456  1.00  0.00     0.030 A 
HETATM   22  C   UNL     1      44.022 -30.226  -2.729  1.00  0.00     0.009 A 
HETATM   23  C   UNL     1      44.416 -29.544  -3.881  1.00  0.00    -0.062 A 
HETATM   24  C   UNL     1      44.036 -30.042  -5.244  1.00  0.00     0.048 C 
HETATM   25  C   UNL     1      45.215 -28.409  -3.746  1.00  0.00     0.009 A 
HETATM   26  C   UNL     1      45.607 -27.969  -2.477  1.00  0.00     0.030 A 
ENDBRANCH  17  20
ENDBRANCH  15  16
ENDBRANCH   1  15
TORSDOF 3
ENDMDL
MODEL 8
REMARK VINA RESULT:      -7.5      3.476      4.364
REMARK  3 active torsions:
REMARK  status: ('A' for Active; 'I' for Inactive)
REMARK    1  A    between atoms: C_5  and  N_6 
REMARK       I    between atoms: N_6  and  C_7 
REMARK    2  A    between atoms: C_7  and  C_8 
REMARK    3  A    between atoms: C_8  and  C_9 
ROOT
HETATM    1  C   UNL     1      41.810 -13.032   2.965  1.00  0.00     0.286 C 
HETATM    2  N   UNL     1      40.301 -13.246   3.023  1.00  0.00    -0.056 N 
HETATM    3  H   UNL     1      40.178 -14.188   3.455  1.00  0.00     0.278 HD
HETATM    4  H   UNL     1      39.856 -12.584   3.668  1.00  0.00     0.278 HD
HETATM    5  C   UNL     1      39.607 -13.269   1.690  1.00  0.00     0.209 C 
HETATM    6  C   UNL     1      40.315 -14.280   0.753  1.00  0.00     0.115 C 
HETATM    7  N   UNL     1      41.766 -14.109   0.723  1.00  0.00    -0.353 N 
HETATM    8  C   UNL     1      42.506 -13.839   1.848  1.00  0.00     0.249 C 
HETATM    9  O   UNL     1      43.694 -14.140   1.885  1.00  0.00    -0.271 OA
HETATM   10  C   UNL     1      39.534 -11.853   1.114  1.00  0.00     0.035 C 
HETATM   11  C   UNL     1      38.915 -11.861  -0.281  1.00  0.00     0.002 C 
HETATM   12  C   UNL     1      39.669 -12.801  -1.218  1.00  0.00     0.002 C 
HETATM   13  C   UNL     1      39.729 -14.224  -0.662  1.00  0.00     0.027 C 
HETATM   14  H   UNL     1      42.291 -14.668   0.051  1.00  0.00     0.163 HD
ENDROOT
BRANCH   1  15
HETATM   15  C   UNL     1      42.475 -13.282   4.328  1.00  0.00     0.146 C 
BRANCH  15  16
HETATM   16  C   UNL     1      41.581 -14.077   5.242  1.00  0.00     0.224 C 
HETATM   17  N   UNL     1      41.488 -15.429   5.196  1.00  0.00    -0.327 N 
HETATM   18  H   UNL     1      40.824 -15.773   5.884  1.00  0.00     0.169 HD
HETATM   19  O   UNL     1      40.960 -13.471   6.129  1.00  0.00    -0.273 OA
BRANCH  17  20
HETATM   20  C   UNL     1      42.085 -16.437   4.411  1.00  0.00     0.034 A 
HETATM   21  C   UNL     1      41.718 -16.800   3.117  1.00  0.00     0.030 A 
HETATM   22  C   UNL     1      42.382 -17.841   2.450  1.00  0.00     0.009 A 
HETATM   23  C   UNL     1      43.440 -18.522   3.054  1.00  0.00    -0.062 A 
HETATM   24  C   UNL     1      44.128 -19.660   2.359  1.00  0.00     0.048 C 
HETATM   25  C   UNL     1      43.821 -18.155   4.344  1.00  0.00     0.009 A 
HETATM   26  C   UNL     1      43.152 -17.124   5.011  1.00  0.00     0.030 A 
ENDBRANCH  17  20
ENDBRANCH  15  16
ENDBRANCH   1  15
TORSDOF 3
ENDMDL
MODEL 9
REMARK VINA RESULT:      -7.5      2.674      4.197
REMARK  3 active torsions:
REMARK  status: ('A' for Active; 'I' for Inactive)
REMARK    1  A    between atoms: C_5  and  N_6 
REMARK       I    between atoms: N_6  and  C_7 
REMARK    2  A    between atoms: C_7  and  C_8 
REMARK    3  A    between atoms: C_8  and  C_9 
ROOT
HETATM    1  C   UNL     1      42.406 -11.933   6.442  1.00  0.00     0.286 C 
HETATM    2  N   UNL     1      42.556 -10.420   6.324  1.00  0.00    -0.056 N 
HETATM    3  H   UNL     1      42.945 -10.260   5.369  1.00  0.00     0.278 HD
HETATM    4  H   UNL     1      41.641  -9.954   6.333  1.00  0.00     0.278 HD
HETATM    5  C   UNL     1      43.504  -9.792   7.306  1.00  0.00     0.209 C 
HETATM    6  C   UNL     1      44.866 -10.530   7.256  1.00  0.00     0.115 C 
HETATM    7  N   UNL     1      44.730 -11.984   7.328  1.00  0.00    -0.353 N 
HETATM    8  C   UNL     1      43.744 -12.671   6.663  1.00  0.00     0.249 C 
HETATM    9  O   UNL     1      43.909 -13.850   6.373  1.00  0.00    -0.271 OA
HETATM   10  C   UNL     1      42.874  -9.771   8.700  1.00  0.00     0.035 C 
HETATM   11  C   UNL     1      43.853  -9.222   9.735  1.00  0.00     0.002 C 
HETATM   12  C   UNL     1      45.163 -10.007   9.732  1.00  0.00     0.002 C 
HETATM   13  C   UNL     1      45.811 -10.016   8.348  1.00  0.00     0.027 C 
HETATM   14  H   UNL     1      45.585 -12.532   7.405  1.00  0.00     0.163 HD
ENDROOT
BRANCH   1  15
HETATM   15  C   UNL     1      41.635 -12.525   5.251  1.00  0.00     0.146 C 
BRANCH  15  16
HETATM   16  C   UNL     1      40.472 -13.367   5.709  1.00  0.00     0.224 C 
HETATM   17  N   UNL     1      40.292 -14.653   5.321  1.00  0.00    -0.327 N 
HETATM   18  H   UNL     1      39.445 -15.042   5.728  1.00  0.00     0.169 HD
HETATM   19  O   UNL     1      39.689 -12.884   6.541  1.00  0.00    -0.273 OA
BRANCH  17  20
HETATM   20  C   UNL     1      40.995 -15.544   4.484  1.00  0.00     0.034 A 
HETATM   21  C   UNL     1      40.754 -15.767   3.130  1.00  0.00     0.030 A 
HETATM   22  C   UNL     1      41.515 -16.702   2.412  1.00  0.00     0.009 A 
HETATM   23  C   UNL     1      42.546 -17.415   3.027  1.00  0.00    -0.062 A 
HETATM   24  C   UNL     1      43.336 -18.442   2.272  1.00  0.00     0.048 C 
HETATM   25  C   UNL     1      42.800 -17.188   4.379  1.00  0.00     0.009 A 
HETATM   26  C   UNL     1      42.034 -16.262   5.096  1.00  0.00     0.030 A 
ENDBRANCH  17  20
ENDBRANCH  15  16
ENDBRANCH   1  15
TORSDOF 3
ENDMDL
MODEL 10
REMARK VINA RESULT:      -7.5     14.543     17.567
REMARK  3 active torsions:
REMARK  status: ('A' for Active; 'I' for Inactive)
REMARK    1  A    between atoms: C_5  and  N_6 
REMARK       I    between atoms: N_6  and  C_7 
REMARK    2  A    between atoms: C_7  and  C_8 
REMARK    3  A    between atoms: C_8  and  C_9 
ROOT
HETATM    1  C   UNL     1      48.646 -29.589   0.185  1.00  0.00     0.286 C 
HETATM    2  N   UNL     1      49.815 -29.539   1.163  1.00  0.00    -0.056 N 
HETATM    3  H   UNL     1      50.391 -28.725   0.854  1.00  0.00     0.278 HD
HETATM    4  H   UNL     1      49.497 -29.309   2.112  1.00  0.00     0.278 HD
HETATM    5  C   UNL     1      50.707 -30.748   1.157  1.00  0.00     0.209 C 
HETATM    6  C   UNL     1      51.157 -31.053  -0.294  1.00  0.00     0.115 C 
HETATM    7  N   UNL     1      50.047 -31.063  -1.245  1.00  0.00    -0.353 N 
HETATM    8  C   UNL     1      49.024 -30.148  -1.202  1.00  0.00     0.249 C 
HETATM    9  O   UNL     1      48.387 -29.895  -2.219  1.00  0.00    -0.271 OA
HETATM   10  C   UNL     1      49.998 -31.923   1.834  1.00  0.00     0.035 C 
HETATM   11  C   UNL     1      50.845 -33.190   1.759  1.00  0.00     0.002 C 
HETATM   12  C   UNL     1      51.218 -33.526   0.317  1.00  0.00     0.002 C 
HETATM   13  C   UNL     1      51.946 -32.366  -0.362  1.00  0.00     0.027 C 
HETATM   14  H   UNL     1      50.250 -31.358  -2.200  1.00  0.00     0.163 HD
ENDROOT
BRANCH   1  15
HETATM   15  C   UNL     1      47.944 -28.226   0.063  1.00  0.00     0.146 C 
BRANCH  15  16
HETATM   16  C   UNL     1      46.595 -28.237   0.732  1.00  0.00     0.224 C 
HETATM   17  N   UNL     1      45.443 -28.510   0.071  1.00  0.00    -0.327 N 
HETATM   18  H   UNL     1      44.642 -28.455   0.695  1.00  0.00     0.169 HD
HETATM   19  O   UNL     1      46.546 -28.065   1.960  1.00  0.00    -0.273 OA
BRANCH  17  20
HETATM   20  C   UNL     1      45.118 -28.829  -1.264  1.00  0.00     0.034 A 
HETATM   21  C   UNL     1      45.271 -27.998  -2.371  1.00  0.00     0.030 A 
HETATM   22  C   UNL     1      44.886 -28.431  -3.649  1.00  0.00     0.009 A 
HETATM   23  C   UNL     1      44.363 -29.710  -3.848  1.00  0.00    -0.062 A 
HETATM   24  C   UNL     1      43.915 -30.161  -5.207  1.00  0.00     0.048 C 
HETATM   25  C   UNL     1      44.217 -30.550  -2.745  1.00  0.00     0.009 A 
HETATM   26  C   UNL     1      44.593 -30.114  -1.471  1.00  0.00     0.030 A 
ENDBRANCH  17  20
ENDBRANCH  15  16
ENDBRANCH   1  15
TORSDOF 3
ENDMDL
