MODEL 1
REMARK VINA RESULT:     -10.3      0.000      0.000
REMARK  6 active torsions:
REMARK  status: ('A' for Active; 'I' for Inactive)
REMARK    1  A    between atoms: C_7  and  N_8 
REMARK       I    between atoms: N_8  and  C_9 
REMARK    2  A    between atoms: C_9  and  C_10 
REMARK    3  A    between atoms: C_10  and  N_11 
REMARK       I    between atoms: N_11  and  C_12 
REMARK    4  A    between atoms: C_12  and  C_13 
REMARK    5  A    between atoms: N_16  and  C_17 
REMARK    6  A    between atoms: C_23  and  O_24 
ROOT
HETATM    1  C   UNL     1      42.285 -12.042   5.214  1.00  0.00     0.080 C 
HETATM    2  C   UNL     1      42.314 -12.399   3.721  1.00  0.00     0.029 C 
HETATM    3  C   UNL     1      43.159 -13.643   3.442  1.00  0.00     0.098 C 
HETATM    4  N   UNL     1      42.638 -14.743   4.256  1.00  0.00    -0.268 NA
HETATM    5  C   UNL     1      42.772 -14.510   5.700  1.00  0.00     0.098 C 
HETATM    6  C   UNL     1      41.965 -13.268   6.081  1.00  0.00     0.029 C 
ENDROOT
BRANCH   1   7
HETATM    7  C   UNL     1      43.568 -11.342   5.653  1.00  0.00     0.222 C 
HETATM    8  N   UNL     1      43.554 -10.935   6.968  1.00  0.00    -0.352 N 
HETATM    9  H   UNL     1      42.725 -11.063   7.535  1.00  0.00     0.162 HD
HETATM   10  O   UNL     1      44.541 -11.160   4.928  1.00  0.00    -0.273 OA
BRANCH   8  11
HETATM   11  C   UNL     1      44.729 -10.378   7.608  1.00  0.00     0.225 C 
BRANCH  11  12
HETATM   12  C   UNL     1      44.600 -10.356   9.134  1.00  0.00     0.239 C 
HETATM   13  N   UNL     1      43.412  -9.783   9.549  1.00  0.00    -0.326 N 
HETATM   14  H   UNL     1      42.717  -9.630   8.815  1.00  0.00     0.169 HD
HETATM   15  O   UNL     1      45.478 -10.832   9.847  1.00  0.00    -0.271 OA
BRANCH  13  16
HETATM   16  C   UNL     1      43.032  -9.435  10.859  1.00  0.00     0.035 A 
HETATM   17  C   UNL     1      43.746  -8.552  11.665  1.00  0.00     0.031 A 
HETATM   18  C   UNL     1      43.274  -8.222  12.939  1.00  0.00     0.022 A 
HETATM   19  C   UNL     1      42.080  -8.769  13.414  1.00  0.00     0.017 A 
HETATM   20  C   UNL     1      41.345  -9.663  12.623  1.00  0.00    -0.043 A 
HETATM   21 BR   UNL     1      41.501  -8.243  15.144  1.00  0.00    -0.051 Br
HETATM   22  C   UNL     1      40.044 -10.260  13.080  1.00  0.00     0.049 C 
HETATM   23  C   UNL     1      41.840  -9.988  11.347  1.00  0.00     0.037 A 
ENDBRANCH  13  16
ENDBRANCH  11  12
ENDBRANCH   8  11
ENDBRANCH   1   7
BRANCH   4  24
HETATM   24  C   UNL     1      42.986 -16.037   3.835  1.00  0.00     0.106 A 
HETATM   25  N   UNL     1      43.224 -16.997   4.756  1.00  0.00    -0.233 NA
HETATM   26  C   UNL     1      43.483 -18.261   4.350  1.00  0.00     0.102 A 
HETATM   27  C   UNL     1      43.526 -18.640   3.000  1.00  0.00    -0.004 A 
HETATM   28  C   UNL     1      43.707 -19.250   5.304  1.00  0.00     0.095 A 
HETATM   29  C   UNL     1      43.277 -17.650   2.053  1.00  0.00     0.017 A 
HETATM   30  C   UNL     1      43.795 -19.976   2.641  1.00  0.00     0.014 A 
HETATM   31  C   UNL     1      42.994 -16.351   2.475  1.00  0.00     0.045 A 
HETATM   32  C   UNL     1      44.015 -20.940   3.626  1.00  0.00     0.004 A 
HETATM   33  C   UNL     1      43.969 -20.576   4.967  1.00  0.00     0.039 A 
BRANCH  28  34
HETATM   34  O   UNL     1      43.661 -18.917   6.636  1.00  0.00    -0.358 OA
HETATM   35  H   UNL     1      44.474 -19.326   7.003  1.00  0.00     0.218 HD
ENDBRANCH  28  34
ENDBRANCH   4  24
TORSDOF 6
ENDMDL
MODEL 2
REMARK VINA RESULT:     -10.2      4.931      8.583
REMARK  6 active torsions:
REMARK  status: ('A' for Active; 'I' for Inactive)
REMARK    1  A    between atoms: C_7  and  N_8 
REMARK       I    between atoms: N_8  and  C_9 
REMARK    2  A    between atoms: C_9  and  C_10 
REMARK    3  A    between atoms: C_10  and  N_11 
REMARK       I    between atoms: N_11  and  C_12 
REMARK    4  A    between atoms: C_12  and  C_13 
REMARK    5  A    between atoms: N_16  and  C_17 
REMARK    6  A    between atoms: C_23  and  O_24 
ROOT
HETATM    1  C   UNL     1      43.168 -11.365   5.292  1.00  0.00     0.080 C 
HETATM    2  C   UNL     1      43.836 -11.461   3.914  1.00  0.00     0.029 C 
HETATM    3  C   UNL     1      43.240 -12.581   3.061  1.00  0.00     0.098 C 
HETATM    4  N   UNL     1      41.796 -12.355   2.952  1.00  0.00    -0.268 NA
HETATM    5  C   UNL     1      41.097 -12.447   4.241  1.00  0.00     0.098 C 
HETATM    6  C   UNL     1      41.637 -11.365   5.179  1.00  0.00     0.029 C 
ENDROOT
BRANCH   1   7
HETATM    7  C   UNL     1      43.677 -12.442   6.245  1.00  0.00     0.222 C 
HETATM    8  N   UNL     1      42.677 -13.201   6.808  1.00  0.00    -0.352 N 
HETATM    9  H   UNL     1      41.705 -12.991   6.618  1.00  0.00     0.162 HD
HETATM   10  O   UNL     1      44.862 -12.644   6.492  1.00  0.00    -0.273 OA
BRANCH   8  11
HETATM   11  C   UNL     1      42.967 -14.361   7.629  1.00  0.00     0.225 C 
BRANCH  11  12
HETATM   12  C   UNL     1      42.669 -15.673   6.899  1.00  0.00     0.239 C 
HETATM   13  N   UNL     1      43.625 -15.969   5.944  1.00  0.00    -0.326 N 
HETATM   14  H   UNL     1      44.473 -15.399   5.979  1.00  0.00     0.169 HD
HETATM   15  O   UNL     1      41.687 -16.348   7.194  1.00  0.00    -0.271 OA
BRANCH  13  16
HETATM   16  C   UNL     1      43.588 -16.985   4.971  1.00  0.00     0.035 A 
HETATM   17  C   UNL     1      43.254 -16.769   3.636  1.00  0.00     0.031 A 
HETATM   18  C   UNL     1      43.288 -17.826   2.721  1.00  0.00     0.022 A 
HETATM   19  C   UNL     1      43.662 -19.106   3.133  1.00  0.00     0.017 A 
HETATM   20  C   UNL     1      44.000 -19.349   4.472  1.00  0.00    -0.043 A 
HETATM   21 BR   UNL     1      43.707 -20.474   1.818  1.00  0.00    -0.051 Br
HETATM   22  C   UNL     1      44.432 -20.704   4.961  1.00  0.00     0.049 C 
HETATM   23  C   UNL     1      43.953 -18.275   5.380  1.00  0.00     0.037 A 
ENDBRANCH  13  16
ENDBRANCH  11  12
ENDBRANCH   8  11
ENDBRANCH   1   7
BRANCH   4  24
HETATM   24  C   UNL     1      41.151 -13.003   1.887  1.00  0.00     0.106 A 
HETATM   25  N   UNL     1      41.129 -12.421   0.667  1.00  0.00    -0.233 NA
HETATM   26  C   UNL     1      40.575 -13.081  -0.376  1.00  0.00     0.102 A 
HETATM   27  C   UNL     1      40.006 -14.358  -0.262  1.00  0.00    -0.004 A 
HETATM   28  C   UNL     1      40.574 -12.487  -1.635  1.00  0.00     0.095 A 
HETATM   29  C   UNL     1      40.032 -14.957   0.996  1.00  0.00     0.017 A 
HETATM   30  C   UNL     1      39.450 -14.997  -1.388  1.00  0.00     0.014 A 
HETATM   31  C   UNL     1      40.619 -14.281   2.066  1.00  0.00     0.045 A 
HETATM   32  C   UNL     1      39.467 -14.368  -2.634  1.00  0.00     0.004 A 
HETATM   33  C   UNL     1      40.034 -13.105  -2.760  1.00  0.00     0.039 A 
BRANCH  28  34
HETATM   34  O   UNL     1      41.134 -11.241  -1.786  1.00  0.00    -0.358 OA
HETATM   35  H   UNL     1      41.440 -11.016  -0.881  1.00  0.00     0.218 HD
ENDBRANCH  28  34
ENDBRANCH   4  24
TORSDOF 6
ENDMDL
MODEL 3
REMARK VINA RESULT:      -9.6      5.137      8.967
REMARK  6 active torsions:
REMARK  status: ('A' for Active; 'I' for Inactive)
REMARK    1  A    between atoms: C_7  and  N_8 
REMARK       I    between atoms: N_8  and  C_9 
REMARK    2  A    between atoms: C_9  and  C_10 
REMARK    3  A    between atoms: C_10  and  N_11 
REMARK       I    between atoms: N_11  and  C_12 
REMARK    4  A    between atoms: C_12  and  C_13 
REMARK    5  A    between atoms: N_16  and  C_17 
REMARK    6  A    between atoms: C_23  and  O_24 
ROOT
HETATM    1  C   UNL     1      40.648 -11.241   5.440  1.00  0.00     0.080 C 
HETATM    2  C   UNL     1      40.736 -10.138   4.376  1.00  0.00     0.029 C 
HETATM    3  C   UNL     1      40.696 -10.702   2.955  1.00  0.00     0.098 C 
HETATM    4  N   UNL     1      39.475 -11.499   2.814  1.00  0.00    -0.268 NA
HETATM    5  C   UNL     1      39.448 -12.678   3.691  1.00  0.00     0.098 C 
HETATM    6  C   UNL     1      39.498 -12.216   5.148  1.00  0.00     0.029 C 
ENDROOT
BRANCH   1   7
HETATM    7  C   UNL     1      41.982 -11.959   5.623  1.00  0.00     0.222 C 
HETATM    8  N   UNL     1      41.986 -12.865   6.660  1.00  0.00    -0.352 N 
HETATM    9  H   UNL     1      41.171 -12.970   7.251  1.00  0.00     0.162 HD
HETATM   10  O   UNL     1      42.970 -11.776   4.918  1.00  0.00    -0.273 OA
BRANCH   8  11
HETATM   11  C   UNL     1      43.113 -13.743   6.903  1.00  0.00     0.225 C 
BRANCH  11  12
HETATM   12  C   UNL     1      42.855 -15.165   6.396  1.00  0.00     0.239 C 
HETATM   13  N   UNL     1      43.685 -15.504   5.343  1.00  0.00    -0.326 N 
HETATM   14  H   UNL     1      44.461 -14.860   5.170  1.00  0.00     0.169 HD
HETATM   15  O   UNL     1      42.008 -15.878   6.926  1.00  0.00    -0.271 OA
BRANCH  13  16
HETATM   16  C   UNL     1      43.615 -16.643   4.520  1.00  0.00     0.035 A 
HETATM   17  C   UNL     1      43.234 -16.611   3.181  1.00  0.00     0.031 A 
HETATM   18  C   UNL     1      43.237 -17.783   2.419  1.00  0.00     0.022 A 
HETATM   19  C   UNL     1      43.628 -18.996   2.989  1.00  0.00     0.017 A 
HETATM   20  C   UNL     1      44.013 -19.055   4.336  1.00  0.00    -0.043 A 
HETATM   21 BR   UNL     1      43.629 -20.531   1.873  1.00  0.00    -0.051 Br
HETATM   22  C   UNL     1      44.463 -20.331   4.990  1.00  0.00     0.049 C 
HETATM   23  C   UNL     1      43.997 -17.866   5.089  1.00  0.00     0.037 A 
ENDBRANCH  13  16
ENDBRANCH  11  12
ENDBRANCH   8  11
ENDBRANCH   1   7
BRANCH   4  24
HETATM   24  C   UNL     1      39.045 -11.736   1.498  1.00  0.00     0.106 A 
HETATM   25  N   UNL     1      39.655 -12.689   0.759  1.00  0.00    -0.233 NA
HETATM   26  C   UNL     1      39.190 -12.970  -0.481  1.00  0.00     0.102 A 
HETATM   27  C   UNL     1      38.094 -12.311  -1.057  1.00  0.00    -0.004 A 
HETATM   28  C   UNL     1      39.808 -13.967  -1.230  1.00  0.00     0.095 A 
HETATM   29  C   UNL     1      37.466 -11.331  -0.292  1.00  0.00     0.017 A 
HETATM   30  C   UNL     1      37.654 -12.654  -2.351  1.00  0.00     0.014 A 
HETATM   31  C   UNL     1      37.937 -11.056   0.992  1.00  0.00     0.045 A 
HETATM   32  C   UNL     1      38.299 -13.660  -3.071  1.00  0.00     0.004 A 
HETATM   33  C   UNL     1      39.383 -14.323  -2.507  1.00  0.00     0.039 A 
BRANCH  28  34
HETATM   34  O   UNL     1      40.877 -14.642  -0.691  1.00  0.00    -0.358 OA
HETATM   35  H   UNL     1      41.418 -14.878  -1.475  1.00  0.00     0.218 HD
ENDBRANCH  28  34
ENDBRANCH   4  24
TORSDOF 6
ENDMDL
MODEL 4
REMARK VINA RESULT:      -9.3      2.312      2.935
REMARK  6 active torsions:
REMARK  status: ('A' for Active; 'I' for Inactive)
REMARK    1  A    between atoms: C_7  and  N_8 
REMARK       I    between atoms: N_8  and  C_9 
REMARK    2  A    between atoms: C_9  and  C_10 
REMARK    3  A    between atoms: C_10  and  N_11 
REMARK       I    between atoms: N_11  and  C_12 
REMARK    4  A    between atoms: C_12  and  C_13 
REMARK    5  A    between atoms: N_16  and  C_17 
REMARK    6  A    between atoms: C_23  and  O_24 
ROOT
HETATM    1  C   UNL     1      42.212 -10.803   5.270  1.00  0.00     0.080 C 
HETATM    2  C   UNL     1      42.947 -11.894   6.060  1.00  0.00     0.029 C 
HETATM    3  C   UNL     1      42.596 -13.299   5.569  1.00  0.00     0.098 C 
HETATM    4  N   UNL     1      42.892 -13.370   4.135  1.00  0.00    -0.268 NA
HETATM    5  C   UNL     1      42.063 -12.466   3.326  1.00  0.00     0.098 C 
HETATM    6  C   UNL     1      42.335 -11.023   3.755  1.00  0.00     0.029 C 
ENDROOT
BRANCH   1   7
HETATM    7  C   UNL     1      40.760 -10.660   5.717  1.00  0.00     0.222 C 
HETATM    8  N   UNL     1      40.591 -10.737   7.081  1.00  0.00    -0.352 N 
HETATM    9  H   UNL     1      41.380 -10.926   7.685  1.00  0.00     0.162 HD
HETATM   10  O   UNL     1      39.815 -10.478   4.955  1.00  0.00    -0.273 OA
BRANCH   8  11
HETATM   11  C   UNL     1      39.307 -10.486   7.707  1.00  0.00     0.225 C 
BRANCH  11  12
HETATM   12  C   UNL     1      39.436  -9.609   8.955  1.00  0.00     0.239 C 
HETATM   13  N   UNL     1      40.729  -9.583   9.445  1.00  0.00    -0.326 N 
HETATM   14  H   UNL     1      41.441  -9.980   8.827  1.00  0.00     0.169 HD
HETATM   15  O   UNL     1      38.466  -9.006   9.404  1.00  0.00    -0.271 OA
BRANCH  13  16
HETATM   16  C   UNL     1      41.182  -9.037  10.660  1.00  0.00     0.035 A 
HETATM   17  C   UNL     1      41.456  -9.794  11.797  1.00  0.00     0.031 A 
HETATM   18  C   UNL     1      41.949  -9.178  12.951  1.00  0.00     0.022 A 
HETATM   19  C   UNL     1      42.178  -7.801  12.976  1.00  0.00     0.017 A 
HETATM   20  C   UNL     1      41.907  -7.017  11.845  1.00  0.00    -0.043 A 
HETATM   21 BR   UNL     1      42.875  -7.055  14.576  1.00  0.00    -0.051 Br
HETATM   22  C   UNL     1      42.157  -5.536  11.813  1.00  0.00     0.049 C 
HETATM   23  C   UNL     1      41.404  -7.653  10.695  1.00  0.00     0.037 A 
ENDBRANCH  13  16
ENDBRANCH  11  12
ENDBRANCH   8  11
ENDBRANCH   1   7
BRANCH   4  24
HETATM   24  C   UNL     1      43.045 -14.660   3.603  1.00  0.00     0.106 A 
HETATM   25  N   UNL     1      43.408 -15.678   4.415  1.00  0.00    -0.233 NA
HETATM   26  C   UNL     1      43.481 -16.934   3.918  1.00  0.00     0.102 A 
HETATM   27  C   UNL     1      43.201 -17.247   2.580  1.00  0.00    -0.004 A 
HETATM   28  C   UNL     1      43.834 -17.982   4.764  1.00  0.00     0.095 A 
HETATM   29  C   UNL     1      42.825 -16.197   1.745  1.00  0.00     0.017 A 
HETATM   30  C   UNL     1      43.288 -18.577   2.124  1.00  0.00     0.014 A 
HETATM   31  C   UNL     1      42.735 -14.905   2.265  1.00  0.00     0.045 A 
HETATM   32  C   UNL     1      43.646 -19.601   3.002  1.00  0.00     0.004 A 
HETATM   33  C   UNL     1      43.920 -19.303   4.332  1.00  0.00     0.039 A 
BRANCH  28  34
HETATM   34  O   UNL     1      44.103 -17.713   6.085  1.00  0.00    -0.358 OA
HETATM   35  H   UNL     1      44.452 -16.797   6.065  1.00  0.00     0.218 HD
ENDBRANCH  28  34
ENDBRANCH   4  24
TORSDOF 6
ENDMDL
MODEL 5
REMARK VINA RESULT:      -9.0      2.238      2.851
REMARK  6 active torsions:
REMARK  status: ('A' for Active; 'I' for Inactive)
REMARK    1  A    between atoms: C_7  and  N_8 
REMARK       I    between atoms: N_8  and  C_9 
REMARK    2  A    between atoms: C_9  and  C_10 
REMARK    3  A    between atoms: C_10  and  N_11 
REMARK       I    between atoms: N_11  and  C_12 
REMARK    4  A    between atoms: C_12  and  C_13 
REMARK    5  A    between atoms: N_16  and  C_17 
REMARK    6  A    between atoms: C_23  and  O_24 
ROOT
HETATM    1  C   UNL     1      41.771 -11.913   3.848  1.00  0.00     0.080 C 
HETATM    2  C   UNL     1      42.935 -12.474   4.678  1.00  0.00     0.029 C 
HETATM    3  C   UNL     1      42.840 -13.989   4.854  1.00  0.00     0.098 C 
HETATM    4  N   UNL     1      42.772 -14.602   3.525  1.00  0.00    -0.268 NA
HETATM    5  C   UNL     1      41.564 -14.231   2.776  1.00  0.00     0.098 C 
HETATM    6  C   UNL     1      41.559 -12.717   2.557  1.00  0.00     0.029 C 
ENDROOT
BRANCH   1   7
HETATM    7  C   UNL     1      40.492 -11.797   4.673  1.00  0.00     0.222 C 
HETATM    8  N   UNL     1      40.677 -11.205   5.902  1.00  0.00    -0.352 N 
HETATM    9  H   UNL     1      41.605 -10.938   6.207  1.00  0.00     0.162 HD
HETATM   10  O   UNL     1      39.387 -12.173   4.294  1.00  0.00    -0.273 OA
BRANCH   8  11
HETATM   11  C   UNL     1      39.562 -10.880   6.769  1.00  0.00     0.225 C 
BRANCH  11  12
HETATM   12  C   UNL     1      39.857  -9.669   7.658  1.00  0.00     0.239 C 
HETATM   13  N   UNL     1      40.219 -10.037   8.941  1.00  0.00    -0.326 N 
HETATM   14  H   UNL     1      40.422 -11.031   9.072  1.00  0.00     0.169 HD
HETATM   15  O   UNL     1      39.784  -8.528   7.212  1.00  0.00    -0.271 OA
BRANCH  13  16
HETATM   16  C   UNL     1      40.386  -9.206  10.064  1.00  0.00     0.035 A 
HETATM   17  C   UNL     1      39.345  -8.518  10.682  1.00  0.00     0.031 A 
HETATM   18  C   UNL     1      39.588  -7.750  11.825  1.00  0.00     0.022 A 
HETATM   19  C   UNL     1      40.875  -7.669  12.361  1.00  0.00     0.017 A 
HETATM   20  C   UNL     1      41.940  -8.350  11.756  1.00  0.00    -0.043 A 
HETATM   21 BR   UNL     1      41.108  -6.625  13.930  1.00  0.00    -0.051 Br
HETATM   22  C   UNL     1      43.337  -8.313  12.308  1.00  0.00     0.049 C 
HETATM   23  C   UNL     1      41.677  -9.112  10.603  1.00  0.00     0.037 A 
ENDBRANCH  13  16
ENDBRANCH  11  12
ENDBRANCH   8  11
ENDBRANCH   1   7
BRANCH   4  24
HETATM   24  C   UNL     1      43.110 -15.964   3.459  1.00  0.00     0.106 A 
HETATM   25  N   UNL     1      43.254 -16.672   4.601  1.00  0.00    -0.233 NA
HETATM   26  C   UNL     1      43.503 -18.000   4.535  1.00  0.00     0.102 A 
HETATM   27  C   UNL     1      43.629 -18.698   3.325  1.00  0.00    -0.004 A 
HETATM   28  C   UNL     1      43.630 -18.729   5.714  1.00  0.00     0.095 A 
HETATM   29  C   UNL     1      43.477 -17.967   2.149  1.00  0.00     0.017 A 
HETATM   30  C   UNL     1      43.882 -20.084   3.323  1.00  0.00     0.014 A 
HETATM   31  C   UNL     1      43.204 -16.601   2.220  1.00  0.00     0.045 A 
HETATM   32  C   UNL     1      44.002 -20.780   4.526  1.00  0.00     0.004 A 
HETATM   33  C   UNL     1      43.874 -20.099   5.731  1.00  0.00     0.039 A 
BRANCH  28  34
HETATM   34  O   UNL     1      43.500 -18.079   6.918  1.00  0.00    -0.358 OA
HETATM   35  H   UNL     1      43.813 -17.170   6.723  1.00  0.00     0.218 HD
ENDBRANCH  28  34
ENDBRANCH   4  24
TORSDOF 6
ENDMDL
MODEL 6
REMARK VINA RESULT:      -8.8      1.553      2.272
REMARK  6 active torsions:
REMARK  status: ('A' for Active; 'I' for Inactive)
REMARK    1  A    between atoms: C_7  and  N_8 
REMARK       I    between atoms: N_8  and  C_9 
REMARK    2  A    between atoms: C_9  and  C_10 
REMARK    3  A    between atoms: C_10  and  N_11 
REMARK       I    between atoms: N_11  and  C_12 
REMARK    4  A    between atoms: C_12  and  C_13 
REMARK    5  A    between atoms: N_16  and  C_17 
REMARK    6  A    between atoms: C_23  and  O_24 
ROOT
HETATM    1  C   UNL     1      42.412 -11.959   5.032  1.00  0.00     0.080 C 
HETATM    2  C   UNL     1      42.811 -12.807   3.816  1.00  0.00     0.029 C 
HETATM    3  C   UNL     1      43.511 -14.104   4.223  1.00  0.00     0.098 C 
HETATM    4  N   UNL     1      42.626 -14.836   5.132  1.00  0.00    -0.268 NA
HETATM    5  C   UNL     1      42.378 -14.128   6.395  1.00  0.00     0.098 C 
HETATM    6  C   UNL     1      41.684 -12.798   6.092  1.00  0.00     0.029 C 
ENDROOT
BRANCH   1   7
HETATM    7  C   UNL     1      43.605 -11.203   5.611  1.00  0.00     0.222 C 
HETATM    8  N   UNL     1      43.321 -10.534   6.780  1.00  0.00    -0.352 N 
HETATM    9  H   UNL     1      42.380 -10.530   7.153  1.00  0.00     0.162 HD
HETATM   10  O   UNL     1      44.725 -11.189   5.110  1.00  0.00    -0.273 OA
BRANCH   8  11
HETATM   11  C   UNL     1      44.356  -9.876   7.554  1.00  0.00     0.225 C 
BRANCH  11  12
HETATM   12  C   UNL     1      43.778  -8.860   8.543  1.00  0.00     0.239 C 
HETATM   13  N   UNL     1      43.300  -9.462   9.692  1.00  0.00    -0.326 N 
HETATM   14  H   UNL     1      43.557 -10.445   9.813  1.00  0.00     0.169 HD
HETATM   15  O   UNL     1      43.791  -7.659   8.290  1.00  0.00    -0.271 OA
BRANCH  13  16
HETATM   16  C   UNL     1      42.550  -8.875  10.727  1.00  0.00     0.035 A 
HETATM   17  C   UNL     1      41.158  -8.868  10.770  1.00  0.00     0.031 A 
HETATM   18  C   UNL     1      40.489  -8.304  11.860  1.00  0.00     0.022 A 
HETATM   19  C   UNL     1      41.207  -7.747  12.920  1.00  0.00     0.017 A 
HETATM   20  C   UNL     1      42.609  -7.739  12.899  1.00  0.00    -0.043 A 
HETATM   21 BR   UNL     1      40.217  -7.029  14.372  1.00  0.00    -0.051 Br
HETATM   22  C   UNL     1      43.428  -7.173  14.025  1.00  0.00     0.049 C 
HETATM   23  C   UNL     1      43.265  -8.305  11.790  1.00  0.00     0.037 A 
ENDBRANCH  13  16
ENDBRANCH  11  12
ENDBRANCH   8  11
ENDBRANCH   1   7
BRANCH   4  24
HETATM   24  C   UNL     1      42.888 -16.209   5.271  1.00  0.00     0.106 A 
HETATM   25  N   UNL     1      43.029 -16.976   4.167  1.00  0.00    -0.233 NA
HETATM   26  C   UNL     1      43.357 -18.282   4.300  1.00  0.00     0.102 A 
HETATM   27  C   UNL     1      43.558 -18.900   5.543  1.00  0.00    -0.004 A 
HETATM   28  C   UNL     1      43.522 -19.062   3.159  1.00  0.00     0.095 A 
HETATM   29  C   UNL     1      43.415 -18.107   6.679  1.00  0.00     0.017 A 
HETATM   30  C   UNL     1      43.905 -20.264   5.615  1.00  0.00     0.014 A 
HETATM   31  C   UNL     1      43.092 -16.757   6.538  1.00  0.00     0.045 A 
HETATM   32  C   UNL     1      44.061 -21.014   4.449  1.00  0.00     0.004 A 
HETATM   33  C   UNL     1      43.870 -20.410   3.211  1.00  0.00     0.039 A 
BRANCH  28  34
HETATM   34  O   UNL     1      43.345 -18.486   1.924  1.00  0.00    -0.358 OA
HETATM   35  H   UNL     1      42.606 -19.000   1.535  1.00  0.00     0.218 HD
ENDBRANCH  28  34
ENDBRANCH   4  24
TORSDOF 6
ENDMDL
MODEL 7
REMARK VINA RESULT:      -8.8      2.172      2.747
REMARK  6 active torsions:
REMARK  status: ('A' for Active; 'I' for Inactive)
REMARK    1  A    between atoms: C_7  and  N_8 
REMARK       I    between atoms: N_8  and  C_9 
REMARK    2  A    between atoms: C_9  and  C_10 
REMARK    3  A    between atoms: C_10  and  N_11 
REMARK       I    between atoms: N_11  and  C_12 
REMARK    4  A    between atoms: C_12  and  C_13 
REMARK    5  A    between atoms: N_16  and  C_17 
REMARK    6  A    between atoms: C_23  and  O_24 
ROOT
HETATM    1  C   UNL     1      42.457 -11.913   4.796  1.00  0.00     0.080 C 
HETATM    2  C   UNL     1      43.503 -12.464   5.775  1.00  0.00     0.029 C 
HETATM    3  C   UNL     1      43.187 -13.895   6.211  1.00  0.00     0.098 C 
HETATM    4  N   UNL     1      43.074 -14.725   5.009  1.00  0.00    -0.268 NA
HETATM    5  C   UNL     1      41.955 -14.338   4.140  1.00  0.00     0.098 C 
HETATM    6  C   UNL     1      42.172 -12.903   3.657  1.00  0.00     0.029 C 
ENDROOT
BRANCH   1   7
HETATM    7  C   UNL     1      41.183 -11.476   5.514  1.00  0.00     0.222 C 
HETATM    8  N   UNL     1      41.398 -10.550   6.509  1.00  0.00    -0.352 N 
HETATM    9  H   UNL     1      42.339 -10.257   6.741  1.00  0.00     0.162 HD
HETATM   10  O   UNL     1      40.059 -11.886   5.240  1.00  0.00    -0.273 OA
BRANCH   8  11
HETATM   11  C   UNL     1      40.300  -9.911   7.209  1.00  0.00     0.225 C 
BRANCH  11  12
HETATM   12  C   UNL     1      40.790  -8.946   8.292  1.00  0.00     0.239 C 
HETATM   13  N   UNL     1      41.349  -9.609   9.369  1.00  0.00    -0.326 N 
HETATM   14  H   UNL     1      41.530 -10.605   9.227  1.00  0.00     0.169 HD
HETATM   15  O   UNL     1      40.689  -7.732   8.145  1.00  0.00    -0.271 OA
BRANCH  13  16
HETATM   16  C   UNL     1      41.737  -9.069  10.609  1.00  0.00     0.035 A 
HETATM   17  C   UNL     1      43.059  -8.981  11.038  1.00  0.00     0.031 A 
HETATM   18  C   UNL     1      43.363  -8.386  12.266  1.00  0.00     0.022 A 
HETATM   19  C   UNL     1      42.348  -7.868  13.072  1.00  0.00     0.017 A 
HETATM   20  C   UNL     1      41.009  -7.946  12.664  1.00  0.00    -0.043 A 
HETATM   21 BR   UNL     1      42.855  -7.052  14.710  1.00  0.00    -0.051 Br
HETATM   22  C   UNL     1      39.882  -7.383  13.483  1.00  0.00     0.049 C 
HETATM   23  C   UNL     1      40.721  -8.555  11.428  1.00  0.00     0.037 A 
ENDBRANCH  13  16
ENDBRANCH  11  12
ENDBRANCH   8  11
ENDBRANCH   1   7
BRANCH   4  24
HETATM   24  C   UNL     1      43.215 -16.109   5.203  1.00  0.00     0.106 A 
HETATM   25  N   UNL     1      43.310 -16.927   4.131  1.00  0.00    -0.233 NA
HETATM   26  C   UNL     1      43.524 -18.250   4.318  1.00  0.00     0.102 A 
HETATM   27  C   UNL     1      43.649 -18.835   5.587  1.00  0.00    -0.004 A 
HETATM   28  C   UNL     1      43.642 -19.084   3.211  1.00  0.00     0.095 A 
HETATM   29  C   UNL     1      43.553 -17.990   6.691  1.00  0.00     0.017 A 
HETATM   30  C   UNL     1      43.877 -20.219   5.716  1.00  0.00     0.014 A 
HETATM   31  C   UNL     1      43.350 -16.624   6.494  1.00  0.00     0.045 A 
HETATM   32  C   UNL     1      43.990 -21.023   4.582  1.00  0.00     0.004 A 
HETATM   33  C   UNL     1      43.873 -20.453   3.319  1.00  0.00     0.039 A 
BRANCH  28  34
HETATM   34  O   UNL     1      43.537 -18.542   1.952  1.00  0.00    -0.358 OA
HETATM   35  H   UNL     1      43.586 -17.576   2.114  1.00  0.00     0.218 HD
ENDBRANCH  28  34
ENDBRANCH   4  24
TORSDOF 6
ENDMDL
MODEL 8
REMARK VINA RESULT:      -8.8      3.252      5.189
REMARK  6 active torsions:
REMARK  status: ('A' for Active; 'I' for Inactive)
REMARK    1  A    between atoms: C_7  and  N_8 
REMARK       I    between atoms: N_8  and  C_9 
REMARK    2  A    between atoms: C_9  and  C_10 
REMARK    3  A    between atoms: C_10  and  N_11 
REMARK       I    between atoms: N_11  and  C_12 
REMARK    4  A    between atoms: C_12  and  C_13 
REMARK    5  A    between atoms: N_16  and  C_17 
REMARK    6  A    between atoms: C_23  and  O_24 
ROOT
HETATM    1  C   UNL     1      41.422 -13.729   6.282  1.00  0.00     0.080 C 
HETATM    2  C   UNL     1      40.719 -12.577   5.551  1.00  0.00     0.029 C 
HETATM    3  C   UNL     1      41.018 -12.578   4.052  1.00  0.00     0.098 C 
HETATM    4  N   UNL     1      40.634 -13.883   3.509  1.00  0.00    -0.268 NA
HETATM    5  C   UNL     1      41.427 -14.993   4.054  1.00  0.00     0.098 C 
HETATM    6  C   UNL     1      41.204 -15.070   5.565  1.00  0.00     0.029 C 
ENDROOT
BRANCH   1   7
HETATM    7  C   UNL     1      42.900 -13.433   6.517  1.00  0.00     0.222 C 
HETATM    8  N   UNL     1      43.160 -12.115   6.818  1.00  0.00    -0.352 N 
HETATM    9  H   UNL     1      42.413 -11.433   6.819  1.00  0.00     0.162 HD
HETATM   10  O   UNL     1      43.792 -14.275   6.463  1.00  0.00    -0.273 OA
BRANCH   8  11
HETATM   11  C   UNL     1      44.483 -11.668   7.209  1.00  0.00     0.225 C 
BRANCH  11  12
HETATM   12  C   UNL     1      44.472 -10.954   8.564  1.00  0.00     0.239 C 
HETATM   13  N   UNL     1      43.294 -10.263   8.782  1.00  0.00    -0.326 N 
HETATM   14  H   UNL     1      42.538 -10.466   8.125  1.00  0.00     0.169 HD
HETATM   15  O   UNL     1      45.426 -11.047   9.331  1.00  0.00    -0.271 OA
BRANCH  13  16
HETATM   16  C   UNL     1      43.003  -9.360   9.821  1.00  0.00     0.035 A 
HETATM   17  C   UNL     1      42.793  -9.739  11.144  1.00  0.00     0.031 A 
HETATM   18  C   UNL     1      42.555  -8.773  12.126  1.00  0.00     0.022 A 
HETATM   19  C   UNL     1      42.531  -7.417  11.792  1.00  0.00     0.017 A 
HETATM   20  C   UNL     1      42.737  -7.010  10.466  1.00  0.00    -0.043 A 
HETATM   21 BR   UNL     1      42.229  -6.173  13.193  1.00  0.00    -0.051 Br
HETATM   22  C   UNL     1      42.744  -5.563  10.060  1.00  0.00     0.049 C 
HETATM   23  C   UNL     1      42.967  -7.998   9.491  1.00  0.00     0.037 A 
ENDBRANCH  13  16
ENDBRANCH  11  12
ENDBRANCH   8  11
ENDBRANCH   1   7
BRANCH   4  24
HETATM   24  C   UNL     1      40.428 -13.934   2.121  1.00  0.00     0.106 A 
HETATM   25  N   UNL     1      40.708 -12.849   1.364  1.00  0.00    -0.233 NA
HETATM   26  C   UNL     1      40.583 -12.925   0.019  1.00  0.00     0.102 A 
HETATM   27  C   UNL     1      40.165 -14.085  -0.650  1.00  0.00    -0.004 A 
HETATM   28  C   UNL     1      40.893 -11.812  -0.757  1.00  0.00     0.095 A 
HETATM   29  C   UNL     1      39.879 -15.202   0.132  1.00  0.00     0.017 A 
HETATM   30  C   UNL     1      40.061 -14.102  -2.055  1.00  0.00     0.014 A 
HETATM   31  C   UNL     1      40.025 -15.127   1.517  1.00  0.00     0.045 A 
HETATM   32  C   UNL     1      40.381 -12.965  -2.798  1.00  0.00     0.004 A 
HETATM   33  C   UNL     1      40.802 -11.812  -2.147  1.00  0.00     0.039 A 
BRANCH  28  34
HETATM   34  O   UNL     1      41.318 -10.661  -0.136  1.00  0.00    -0.358 OA
HETATM   35  H   UNL     1      40.699 -10.567   0.619  1.00  0.00     0.218 HD
ENDBRANCH  28  34
ENDBRANCH   4  24
TORSDOF 6
ENDMDL
MODEL 9
REMARK VINA RESULT:      -8.7      2.515      4.104
REMARK  6 active torsions:
REMARK  status: ('A' for Active; 'I' for Inactive)
REMARK    1  A    between atoms: C_7  and  N_8 
REMARK       I    between atoms: N_8  and  C_9 
REMARK    2  A    between atoms: C_9  and  C_10 
REMARK    3  A    between atoms: C_10  and  N_11 
REMARK       I    between atoms: N_11  and  C_12 
REMARK    4  A    between atoms: C_12  and  C_13 
REMARK    5  A    between atoms: N_16  and  C_17 
REMARK    6  A    between atoms: C_23  and  O_24 
ROOT
HETATM    1  C   UNL     1      43.267  -9.747   7.382  1.00  0.00     0.080 C 
HETATM    2  C   UNL     1      44.541 -10.588   7.227  1.00  0.00     0.029 C 
HETATM    3  C   UNL     1      44.235 -12.082   7.112  1.00  0.00     0.098 C 
HETATM    4  N   UNL     1      43.314 -12.276   5.989  1.00  0.00    -0.268 NA
HETATM    5  C   UNL     1      42.008 -11.636   6.195  1.00  0.00     0.098 C 
HETATM    6  C   UNL     1      42.209 -10.126   6.335  1.00  0.00     0.029 C 
ENDROOT
BRANCH   1   7
HETATM    7  C   UNL     1      42.719  -9.804   8.805  1.00  0.00     0.222 C 
HETATM    8  N   UNL     1      41.412  -9.386   8.913  1.00  0.00    -0.352 N 
HETATM    9  H   UNL     1      40.919  -9.031   8.103  1.00  0.00     0.162 HD
HETATM   10  O   UNL     1      43.357 -10.197   9.777  1.00  0.00    -0.273 OA
BRANCH   8  11
HETATM   11  C   UNL     1      40.673  -9.500  10.155  1.00  0.00     0.225 C 
BRANCH  11  12
HETATM   12  C   UNL     1      40.972  -8.341  11.111  1.00  0.00     0.239 C 
HETATM   13  N   UNL     1      41.192  -8.776  12.406  1.00  0.00    -0.326 N 
HETATM   14  H   UNL     1      41.313  -9.785  12.516  1.00  0.00     0.169 HD
HETATM   15  O   UNL     1      41.018  -7.185  10.704  1.00  0.00    -0.271 OA
BRANCH  13  16
HETATM   16  C   UNL     1      41.317  -7.995  13.570  1.00  0.00     0.035 A 
HETATM   17  C   UNL     1      42.527  -7.741  14.209  1.00  0.00     0.031 A 
HETATM   18  C   UNL     1      42.570  -6.914  15.335  1.00  0.00     0.022 A 
HETATM   19  C   UNL     1      41.403  -6.328  15.827  1.00  0.00     0.017 A 
HETATM   20  C   UNL     1      40.171  -6.570  15.203  1.00  0.00    -0.043 A 
HETATM   21 BR   UNL     1      41.559  -5.197  17.344  1.00  0.00    -0.051 Br
HETATM   22  C   UNL     1      38.890  -5.945  15.679  1.00  0.00     0.049 C 
HETATM   23  C   UNL     1      40.146  -7.411  14.075  1.00  0.00     0.037 A 
ENDBRANCH  13  16
ENDBRANCH  11  12
ENDBRANCH   8  11
ENDBRANCH   1   7
BRANCH   4  24
HETATM   24  C   UNL     1      43.255 -13.575   5.461  1.00  0.00     0.106 A 
HETATM   25  N   UNL     1      43.070 -13.747   4.133  1.00  0.00    -0.233 NA
HETATM   26  C   UNL     1      43.091 -14.997   3.613  1.00  0.00     0.102 A 
HETATM   27  C   UNL     1      43.291 -16.148   4.390  1.00  0.00    -0.004 A 
HETATM   28  C   UNL     1      42.922 -15.167   2.242  1.00  0.00     0.095 A 
HETATM   29  C   UNL     1      43.484 -15.967   5.758  1.00  0.00     0.017 A 
HETATM   30  C   UNL     1      43.308 -17.422   3.788  1.00  0.00     0.014 A 
HETATM   31  C   UNL     1      43.479 -14.677   6.288  1.00  0.00     0.045 A 
HETATM   32  C   UNL     1      43.135 -17.552   2.410  1.00  0.00     0.004 A 
HETATM   33  C   UNL     1      42.941 -16.417   1.630  1.00  0.00     0.039 A 
BRANCH  28  34
HETATM   34  O   UNL     1      42.736 -14.060   1.449  1.00  0.00    -0.358 OA
HETATM   35  H   UNL     1      41.776 -13.878   1.532  1.00  0.00     0.218 HD
ENDBRANCH  28  34
ENDBRANCH   4  24
TORSDOF 6
ENDMDL
MODEL 10
REMARK VINA RESULT:      -8.5     17.531     19.114
REMARK  6 active torsions:
REMARK  status: ('A' for Active; 'I' for Inactive)
REMARK    1  A    between atoms: C_7  and  N_8 
REMARK       I    between atoms: N_8  and  C_9 
REMARK    2  A    between atoms: C_9  and  C_10 
REMARK    3  A    between atoms: C_10  and  N_11 
REMARK       I    between atoms: N_11  and  C_12 
REMARK    4  A    between atoms: C_12  and  C_13 
REMARK    5  A    between atoms: N_16  and  C_17 
REMARK    6  A    between atoms: C_23  and  O_24 
ROOT
HETATM    1  C   UNL     1      41.331 -31.745   4.299  1.00  0.00     0.080 C 
HETATM    2  C   UNL     1      41.227 -30.355   3.656  1.00  0.00     0.029 C 
HETATM    3  C   UNL     1      42.533 -29.932   2.982  1.00  0.00     0.098 C 
HETATM    4  N   UNL     1      42.897 -30.960   2.003  1.00  0.00    -0.268 NA
HETATM    5  C   UNL     1      43.191 -32.263   2.614  1.00  0.00     0.098 C 
HETATM    6  C   UNL     1      41.938 -32.771   3.331  1.00  0.00     0.029 C 
ENDROOT
BRANCH   1   7
HETATM    7  C   UNL     1      42.073 -31.698   5.631  1.00  0.00     0.222 C 
HETATM    8  N   UNL     1      43.256 -32.401   5.632  1.00  0.00    -0.352 N 
HETATM    9  H   UNL     1      43.538 -32.929   4.816  1.00  0.00     0.162 HD
HETATM   10  O   UNL     1      41.681 -31.086   6.621  1.00  0.00    -0.273 OA
BRANCH   8  11
HETATM   11  C   UNL     1      44.169 -32.361   6.758  1.00  0.00     0.225 C 
BRANCH  11  12
HETATM   12  C   UNL     1      45.556 -31.853   6.357  1.00  0.00     0.239 C 
HETATM   13  N   UNL     1      45.601 -31.440   5.038  1.00  0.00    -0.326 N 
HETATM   14  H   UNL     1      44.694 -31.350   4.574  1.00  0.00     0.169 HD
HETATM   15  O   UNL     1      46.474 -31.821   7.171  1.00  0.00    -0.271 OA
BRANCH  13  16
HETATM   16  C   UNL     1      46.734 -31.087   4.281  1.00  0.00     0.035 A 
HETATM   17  C   UNL     1      47.724 -30.214   4.727  1.00  0.00     0.031 A 
HETATM   18  C   UNL     1      48.843 -29.952   3.931  1.00  0.00     0.022 A 
HETATM   19  C   UNL     1      48.985 -30.567   2.686  1.00  0.00     0.017 A 
HETATM   20  C   UNL     1      48.001 -31.447   2.214  1.00  0.00    -0.043 A 
HETATM   21 BR   UNL     1      50.550 -30.175   1.685  1.00  0.00    -0.051 Br
HETATM   22  C   UNL     1      48.117 -32.151   0.891  1.00  0.00     0.049 C 
HETATM   23  C   UNL     1      46.878 -31.693   3.025  1.00  0.00     0.037 A 
ENDBRANCH  13  16
ENDBRANCH  11  12
ENDBRANCH   8  11
ENDBRANCH   1   7
BRANCH   4  24
HETATM   24  C   UNL     1      43.799 -30.563   1.003  1.00  0.00     0.106 A 
HETATM   25  N   UNL     1      44.740 -29.633   1.284  1.00  0.00    -0.233 NA
HETATM   26  C   UNL     1      45.657 -29.309   0.344  1.00  0.00     0.102 A 
HETATM   27  C   UNL     1      45.686 -29.888  -0.934  1.00  0.00    -0.004 A 
HETATM   28  C   UNL     1      46.636 -28.366   0.644  1.00  0.00     0.095 A 
HETATM   29  C   UNL     1      44.717 -30.848  -1.219  1.00  0.00     0.017 A 
HETATM   30  C   UNL     1      46.672 -29.512  -1.867  1.00  0.00     0.014 A 
HETATM   31  C   UNL     1      43.783 -31.193  -0.242  1.00  0.00     0.045 A 
HETATM   32  C   UNL     1      47.637 -28.563  -1.528  1.00  0.00     0.004 A 
HETATM   33  C   UNL     1      47.621 -27.986  -0.263  1.00  0.00     0.039 A 
BRANCH  28  34
HETATM   34  O   UNL     1      46.645 -27.787   1.891  1.00  0.00    -0.358 OA
HETATM   35  H   UNL     1      46.749 -26.831   1.698  1.00  0.00     0.218 HD
ENDBRANCH  28  34
ENDBRANCH   4  24
TORSDOF 6
ENDMDL
