MODEL 1
REMARK VINA RESULT:      -9.4      0.000      0.000
REMARK  4 active torsions:
REMARK  status: ('A' for Active; 'I' for Inactive)
REMARK    1  A    between atoms: N_3  and  C_4 
REMARK    2  A    between atoms: C_4  and  C_5 
REMARK    3  A    between atoms: C_5  and  C_6 
REMARK       I    between atoms: C_6  and  N_7 
REMARK    4  A    between atoms: N_7  and  C_8 
ROOT
HETATM    1  C   UNL     1      43.300 -13.009   6.329  1.00  0.00     0.035 A 
HETATM    2  C   UNL     1      43.895 -12.385   7.425  1.00  0.00     0.049 A 
HETATM    3  C   UNL     1      43.682 -11.019   7.688  1.00  0.00     0.061 A 
HETATM    4  C   UNL     1      42.866 -10.262   6.837  1.00  0.00     0.050 A 
HETATM    5  N   UNL     1      42.446  -8.939   7.060  1.00  0.00    -0.324 N 
HETATM    6  C   UNL     1      42.181  -8.336   8.264  1.00  0.00     0.245 C 
HETATM    7  O   UNL     1      41.604  -7.247   8.251  1.00  0.00    -0.271 OA
HETATM    8  C   UNL     1      42.431  -9.131   9.546  1.00  0.00     0.180 C 
HETATM    9  N   UNL     1      43.829  -9.521   9.628  1.00  0.00    -0.334 N 
HETATM   10  C   UNL     1      44.441 -10.458   8.833  1.00  0.00     0.256 C 
HETATM   11  O   UNL     1      45.581 -10.860   9.045  1.00  0.00    -0.267 OA
HETATM   12  C   UNL     1      42.188  -8.313  10.821  1.00  0.00     0.037 C 
HETATM   13  C   UNL     1      43.263  -8.813  11.778  1.00  0.00     0.022 C 
HETATM   14  C   UNL     1      44.444  -9.052  10.855  1.00  0.00     0.127 C 
HETATM   15  C   UNL     1      42.382 -10.863   5.667  1.00  0.00     0.033 A 
HETATM   16  C   UNL     1      42.583 -12.226   5.423  1.00  0.00     0.032 A 
HETATM   17  H   UNL     1      42.045  -8.423   6.286  1.00  0.00     0.169 HD
ENDROOT
BRANCH   1  18
HETATM   18  N   UNL     1      43.299 -14.405   6.125  1.00  0.00    -0.327 N 
HETATM   19  C   UNL     1      42.191 -15.219   6.004  1.00  0.00     0.224 C 
HETATM   20  O   UNL     1      41.045 -14.945   6.348  1.00  0.00    -0.273 OA
HETATM   21  H   UNL     1      44.207 -14.838   5.990  1.00  0.00     0.169 HD
BRANCH  19  22
HETATM   22  C   UNL     1      42.472 -16.541   5.316  1.00  0.00     0.134 C 
BRANCH  22  23
HETATM   23  C   UNL     1      42.405 -16.510   3.770  1.00  0.00     0.044 C 
HETATM   24  C   UNL     1      43.251 -15.280   3.304  1.00  0.00     0.032 C 
HETATM   25  C   UNL     1      43.136 -14.993   1.809  1.00  0.00     0.002 C 
HETATM   26  C   UNL     1      41.687 -14.759   1.407  1.00  0.00     0.000 C 
HETATM   27  C   UNL     1      40.803 -15.930   1.816  1.00  0.00     0.002 C 
HETATM   28  C   UNL     1      40.938 -16.253   3.308  1.00  0.00     0.032 C 
BRANCH  23  29
HETATM   29  N   UNL     1      42.985 -17.773   3.253  1.00  0.00    -0.356 N 
HETATM   30  C   UNL     1      44.004 -18.479   3.859  1.00  0.00     0.091 A 
HETATM   31  C   UNL     1      44.233 -19.632   3.143  1.00  0.00     0.019 A 
HETATM   32  C   UNL     1      43.303 -19.657   2.086  1.00  0.00     0.019 A 
HETATM   33  C   UNL     1      42.534 -18.518   2.190  1.00  0.00     0.091 A 
ENDBRANCH  23  29
ENDBRANCH  22  23
ENDBRANCH  19  22
ENDBRANCH   1  18
TORSDOF 4
ENDMDL
MODEL 2
REMARK VINA RESULT:      -9.2      4.888      8.319
REMARK  4 active torsions:
REMARK  status: ('A' for Active; 'I' for Inactive)
REMARK    1  A    between atoms: N_3  and  C_4 
REMARK    2  A    between atoms: C_4  and  C_5 
REMARK    3  A    between atoms: C_5  and  C_6 
REMARK       I    between atoms: C_6  and  N_7 
REMARK    4  A    between atoms: N_7  and  C_8 
ROOT
HETATM    1  C   UNL     1      40.091 -14.620   2.061  1.00  0.00     0.035 A 
HETATM    2  C   UNL     1      40.263 -14.795   3.434  1.00  0.00     0.049 A 
HETATM    3  C   UNL     1      41.102 -15.806   3.939  1.00  0.00     0.061 A 
HETATM    4  C   UNL     1      41.773 -16.662   3.056  1.00  0.00     0.050 A 
HETATM    5  N   UNL     1      42.750 -17.609   3.411  1.00  0.00    -0.324 N 
HETATM    6  C   UNL     1      43.670 -17.523   4.426  1.00  0.00     0.245 C 
HETATM    7  O   UNL     1      44.592 -18.340   4.440  1.00  0.00    -0.271 OA
HETATM    8  C   UNL     1      43.614 -16.312   5.358  1.00  0.00     0.180 C 
HETATM    9  N   UNL     1      42.322 -16.252   6.022  1.00  0.00    -0.334 N 
HETATM   10  C   UNL     1      41.131 -15.941   5.416  1.00  0.00     0.256 C 
HETATM   11  O   UNL     1      40.097 -15.752   6.051  1.00  0.00    -0.267 OA
HETATM   12  C   UNL     1      44.630 -16.385   6.504  1.00  0.00     0.037 C 
HETATM   13  C   UNL     1      43.889 -15.760   7.680  1.00  0.00     0.022 C 
HETATM   14  C   UNL     1      42.464 -16.237   7.466  1.00  0.00     0.127 C 
HETATM   15  C   UNL     1      41.489 -16.567   1.687  1.00  0.00     0.033 A 
HETATM   16  C   UNL     1      40.669 -15.547   1.192  1.00  0.00     0.032 A 
HETATM   17  H   UNL     1      43.006 -18.316   2.732  1.00  0.00     0.169 HD
ENDROOT
BRANCH   1  18
HETATM   18  N   UNL     1      39.440 -13.508   1.486  1.00  0.00    -0.327 N 
HETATM   19  C   UNL     1      40.042 -12.393   0.939  1.00  0.00     0.224 C 
HETATM   20  O   UNL     1      41.200 -12.027   1.122  1.00  0.00    -0.273 OA
HETATM   21  H   UNL     1      38.429 -13.570   1.413  1.00  0.00     0.169 HD
BRANCH  19  22
HETATM   22  C   UNL     1      39.154 -11.622  -0.018  1.00  0.00     0.134 C 
BRANCH  22  23
HETATM   23  C   UNL     1      39.081 -12.191  -1.456  1.00  0.00     0.044 C 
HETATM   24  C   UNL     1      37.638 -12.761  -1.647  1.00  0.00     0.032 C 
HETATM   25  C   UNL     1      37.454 -13.531  -2.952  1.00  0.00     0.002 C 
HETATM   26  C   UNL     1      38.443 -14.684  -3.051  1.00  0.00     0.000 C 
HETATM   27  C   UNL     1      39.877 -14.198  -2.890  1.00  0.00     0.002 C 
HETATM   28  C   UNL     1      40.066 -13.391  -1.602  1.00  0.00     0.032 C 
BRANCH  23  29
HETATM   29  N   UNL     1      39.339 -11.084  -2.409  1.00  0.00    -0.356 N 
HETATM   30  C   UNL     1      38.409 -10.137  -2.787  1.00  0.00     0.091 A 
HETATM   31  C   UNL     1      39.016  -9.226  -3.622  1.00  0.00     0.019 A 
HETATM   32  C   UNL     1      40.369  -9.601  -3.732  1.00  0.00     0.019 A 
HETATM   33  C   UNL     1      40.546 -10.728  -2.960  1.00  0.00     0.091 A 
ENDBRANCH  23  29
ENDBRANCH  22  23
ENDBRANCH  19  22
ENDBRANCH   1  18
TORSDOF 4
ENDMDL
MODEL 3
REMARK VINA RESULT:      -9.2      1.591      2.639
REMARK  4 active torsions:
REMARK  status: ('A' for Active; 'I' for Inactive)
REMARK    1  A    between atoms: N_3  and  C_4 
REMARK    2  A    between atoms: C_4  and  C_5 
REMARK    3  A    between atoms: C_5  and  C_6 
REMARK       I    between atoms: C_6  and  N_7 
REMARK    4  A    between atoms: N_7  and  C_8 
ROOT
HETATM    1  C   UNL     1      42.237 -11.352   5.191  1.00  0.00     0.035 A 
HETATM    2  C   UNL     1      42.986 -11.455   6.362  1.00  0.00     0.049 A 
HETATM    3  C   UNL     1      43.051 -10.390   7.280  1.00  0.00     0.061 A 
HETATM    4  C   UNL     1      42.363  -9.199   7.018  1.00  0.00     0.050 A 
HETATM    5  N   UNL     1      42.216  -8.119   7.907  1.00  0.00    -0.324 N 
HETATM    6  C   UNL     1      42.122  -8.169   9.275  1.00  0.00     0.245 C 
HETATM    7  O   UNL     1      41.766  -7.148   9.867  1.00  0.00    -0.271 OA
HETATM    8  C   UNL     1      42.266  -9.526   9.966  1.00  0.00     0.180 C 
HETATM    9  N   UNL     1      43.564 -10.105   9.664  1.00  0.00    -0.334 N 
HETATM   10  C   UNL     1      43.950 -10.596   8.442  1.00  0.00     0.256 C 
HETATM   11  O   UNL     1      44.999 -11.214   8.281  1.00  0.00    -0.267 OA
HETATM   12  C   UNL     1      42.237  -9.430  11.497  1.00  0.00     0.037 C 
HETATM   13  C   UNL     1      43.233 -10.493  11.941  1.00  0.00     0.022 C 
HETATM   14  C   UNL     1      44.307 -10.409  10.872  1.00  0.00     0.127 C 
HETATM   15  C   UNL     1      41.725  -9.054   5.778  1.00  0.00     0.033 A 
HETATM   16  C   UNL     1      41.649 -10.124   4.880  1.00  0.00     0.032 A 
HETATM   17  H   UNL     1      41.892  -7.232   7.540  1.00  0.00     0.169 HD
ENDROOT
BRANCH   1  18
HETATM   18  N   UNL     1      41.958 -12.440   4.338  1.00  0.00    -0.327 N 
HETATM   19  C   UNL     1      42.833 -13.041   3.455  1.00  0.00     0.224 C 
HETATM   20  O   UNL     1      43.883 -12.565   3.033  1.00  0.00    -0.273 OA
HETATM   21  H   UNL     1      41.038 -12.860   4.435  1.00  0.00     0.169 HD
BRANCH  19  22
HETATM   22  C   UNL     1      42.431 -14.447   3.053  1.00  0.00     0.134 C 
BRANCH  22  23
HETATM   23  C   UNL     1      42.424 -15.487   4.200  1.00  0.00     0.044 C 
HETATM   24  C   UNL     1      40.963 -15.544   4.753  1.00  0.00     0.032 C 
HETATM   25  C   UNL     1      40.823 -16.387   6.018  1.00  0.00     0.002 C 
HETATM   26  C   UNL     1      41.735 -15.872   7.122  1.00  0.00     0.000 C 
HETATM   27  C   UNL     1      43.184 -15.805   6.657  1.00  0.00     0.002 C 
HETATM   28  C   UNL     1      43.333 -14.994   5.367  1.00  0.00     0.032 C 
BRANCH  23  29
HETATM   29  N   UNL     1      42.826 -16.800   3.640  1.00  0.00    -0.356 N 
HETATM   30  C   UNL     1      42.313 -17.355   2.486  1.00  0.00     0.091 A 
HETATM   31  C   UNL     1      42.967 -18.540   2.233  1.00  0.00     0.019 A 
HETATM   32  C   UNL     1      43.938 -18.701   3.241  1.00  0.00     0.019 A 
HETATM   33  C   UNL     1      43.847 -17.610   4.076  1.00  0.00     0.091 A 
ENDBRANCH  23  29
ENDBRANCH  22  23
ENDBRANCH  19  22
ENDBRANCH   1  18
TORSDOF 4
ENDMDL
MODEL 4
REMARK VINA RESULT:      -9.0      5.198      8.169
REMARK  4 active torsions:
REMARK  status: ('A' for Active; 'I' for Inactive)
REMARK    1  A    between atoms: N_3  and  C_4 
REMARK    2  A    between atoms: C_4  and  C_5 
REMARK    3  A    between atoms: C_5  and  C_6 
REMARK       I    between atoms: C_6  and  N_7 
REMARK    4  A    between atoms: N_7  and  C_8 
ROOT
HETATM    1  C   UNL     1      39.807 -14.327   2.107  1.00  0.00     0.035 A 
HETATM    2  C   UNL     1      40.132 -14.686   3.414  1.00  0.00     0.049 A 
HETATM    3  C   UNL     1      40.956 -15.795   3.680  1.00  0.00     0.061 A 
HETATM    4  C   UNL     1      41.457 -16.563   2.622  1.00  0.00     0.050 A 
HETATM    5  N   UNL     1      42.405 -17.597   2.730  1.00  0.00    -0.324 N 
HETATM    6  C   UNL     1      43.444 -17.690   3.622  1.00  0.00     0.245 C 
HETATM    7  O   UNL     1      44.305 -18.547   3.418  1.00  0.00    -0.271 OA
HETATM    8  C   UNL     1      43.581 -16.607   4.693  1.00  0.00     0.180 C 
HETATM    9  N   UNL     1      42.387 -16.567   5.520  1.00  0.00    -0.334 N 
HETATM   10  C   UNL     1      41.154 -16.120   5.114  1.00  0.00     0.256 C 
HETATM   11  O   UNL     1      40.220 -15.963   5.895  1.00  0.00    -0.267 OA
HETATM   12  C   UNL     1      44.722 -16.879   5.682  1.00  0.00     0.037 C 
HETATM   13  C   UNL     1      44.172 -16.374   7.011  1.00  0.00     0.022 C 
HETATM   14  C   UNL     1      42.703 -16.746   6.925  1.00  0.00     0.127 C 
HETATM   15  C   UNL     1      41.017 -16.277   1.321  1.00  0.00     0.033 A 
HETATM   16  C   UNL     1      40.213 -15.162   1.064  1.00  0.00     0.032 A 
HETATM   17  H   UNL     1      42.529 -18.222   1.943  1.00  0.00     0.169 HD
ENDROOT
BRANCH   1  18
HETATM   18  N   UNL     1      39.167 -13.118   1.759  1.00  0.00    -0.327 N 
HETATM   19  C   UNL     1      39.775 -11.964   1.307  1.00  0.00     0.224 C 
HETATM   20  O   UNL     1      40.964 -11.678   1.414  1.00  0.00    -0.273 OA
HETATM   21  H   UNL     1      38.152 -13.126   1.785  1.00  0.00     0.169 HD
BRANCH  19  22
HETATM   22  C   UNL     1      38.842 -11.029   0.562  1.00  0.00     0.134 C 
BRANCH  22  23
HETATM   23  C   UNL     1      39.095 -10.918  -0.961  1.00  0.00     0.044 C 
HETATM   24  C   UNL     1      40.410 -10.093  -1.145  1.00  0.00     0.032 C 
HETATM   25  C   UNL     1      40.703  -9.730  -2.599  1.00  0.00     0.002 C 
HETATM   26  C   UNL     1      39.553  -8.941  -3.207  1.00  0.00     0.000 C 
HETATM   27  C   UNL     1      38.235  -9.694  -3.079  1.00  0.00     0.002 C 
HETATM   28  C   UNL     1      37.948 -10.099  -1.630  1.00  0.00     0.032 C 
BRANCH  23  29
HETATM   29  N   UNL     1      39.251 -12.287  -1.509  1.00  0.00    -0.356 N 
HETATM   30  C   UNL     1      38.213 -13.166  -1.743  1.00  0.00     0.091 A 
HETATM   31  C   UNL     1      38.720 -14.309  -2.319  1.00  0.00     0.019 A 
HETATM   32  C   UNL     1      40.106 -14.115  -2.479  1.00  0.00     0.019 A 
HETATM   33  C   UNL     1      40.402 -12.859  -1.997  1.00  0.00     0.091 A 
ENDBRANCH  23  29
ENDBRANCH  22  23
ENDBRANCH  19  22
ENDBRANCH   1  18
TORSDOF 4
ENDMDL
MODEL 5
REMARK VINA RESULT:      -9.0      2.226      8.792
REMARK  4 active torsions:
REMARK  status: ('A' for Active; 'I' for Inactive)
REMARK    1  A    between atoms: N_3  and  C_4 
REMARK    2  A    between atoms: C_4  and  C_5 
REMARK    3  A    between atoms: C_5  and  C_6 
REMARK       I    between atoms: C_6  and  N_7 
REMARK    4  A    between atoms: N_7  and  C_8 
ROOT
HETATM    1  C   UNL     1      40.631 -10.874   5.616  1.00  0.00     0.035 A 
HETATM    2  C   UNL     1      41.050 -12.187   5.829  1.00  0.00     0.049 A 
HETATM    3  C   UNL     1      40.616 -13.234   4.995  1.00  0.00     0.061 A 
HETATM    4  C   UNL     1      39.741 -12.966   3.935  1.00  0.00     0.050 A 
HETATM    5  N   UNL     1      39.348 -13.878   2.940  1.00  0.00    -0.324 N 
HETATM    6  C   UNL     1      40.089 -14.900   2.402  1.00  0.00     0.245 C 
HETATM    7  O   UNL     1      39.665 -15.447   1.382  1.00  0.00    -0.271 OA
HETATM    8  C   UNL     1      41.482 -15.168   2.974  1.00  0.00     0.180 C 
HETATM    9  N   UNL     1      41.389 -15.484   4.389  1.00  0.00    -0.334 N 
HETATM   10  C   UNL     1      41.065 -14.594   5.382  1.00  0.00     0.256 C 
HETATM   11  O   UNL     1      41.153 -14.875   6.575  1.00  0.00    -0.267 OA
HETATM   12  C   UNL     1      42.164 -16.393   2.352  1.00  0.00     0.037 C 
HETATM   13  C   UNL     1      42.926 -17.009   3.519  1.00  0.00     0.022 C 
HETATM   14  C   UNL     1      41.991 -16.769   4.690  1.00  0.00     0.127 C 
HETATM   15  C   UNL     1      39.219 -11.670   3.810  1.00  0.00     0.033 A 
HETATM   16  C   UNL     1      39.671 -10.632   4.632  1.00  0.00     0.032 A 
HETATM   17  H   UNL     1      38.552 -13.645   2.358  1.00  0.00     0.169 HD
ENDROOT
BRANCH   1  18
HETATM   18  N   UNL     1      41.185  -9.755   6.273  1.00  0.00    -0.327 N 
HETATM   19  C   UNL     1      41.052  -9.436   7.609  1.00  0.00     0.224 C 
HETATM   20  O   UNL     1      40.206  -9.874   8.382  1.00  0.00    -0.273 OA
HETATM   21  H   UNL     1      41.794  -9.165   5.715  1.00  0.00     0.169 HD
BRANCH  19  22
HETATM   22  C   UNL     1      42.123  -8.494   8.125  1.00  0.00     0.134 C 
BRANCH  22  23
HETATM   23  C   UNL     1      43.413  -9.177   8.641  1.00  0.00     0.044 C 
HETATM   24  C   UNL     1      44.606  -8.239   8.266  1.00  0.00     0.032 C 
HETATM   25  C   UNL     1      45.975  -8.856   8.539  1.00  0.00     0.002 C 
HETATM   26  C   UNL     1      46.143 -10.168   7.787  1.00  0.00     0.000 C 
HETATM   27  C   UNL     1      45.020 -11.143   8.117  1.00  0.00     0.002 C 
HETATM   28  C   UNL     1      43.638 -10.523   7.885  1.00  0.00     0.032 C 
BRANCH  23  29
HETATM   29  N   UNL     1      43.304  -9.327  10.112  1.00  0.00    -0.356 N 
HETATM   30  C   UNL     1      43.117  -8.286  10.999  1.00  0.00     0.091 A 
HETATM   31  C   UNL     1      42.989  -8.801  12.269  1.00  0.00     0.019 A 
HETATM   32  C   UNL     1      43.061 -10.203  12.158  1.00  0.00     0.019 A 
HETATM   33  C   UNL     1      43.229 -10.501  10.823  1.00  0.00     0.091 A 
ENDBRANCH  23  29
ENDBRANCH  22  23
ENDBRANCH  19  22
ENDBRANCH   1  18
TORSDOF 4
ENDMDL
MODEL 6
REMARK VINA RESULT:      -8.8      5.561      9.049
REMARK  4 active torsions:
REMARK  status: ('A' for Active; 'I' for Inactive)
REMARK    1  A    between atoms: N_3  and  C_4 
REMARK    2  A    between atoms: C_4  and  C_5 
REMARK    3  A    between atoms: C_5  and  C_6 
REMARK       I    between atoms: C_6  and  N_7 
REMARK    4  A    between atoms: N_7  and  C_8 
ROOT
HETATM    1  C   UNL     1      40.178 -14.115  -0.588  1.00  0.00     0.035 A 
HETATM    2  C   UNL     1      40.117 -12.726  -0.698  1.00  0.00     0.049 A 
HETATM    3  C   UNL     1      39.195 -12.105  -1.561  1.00  0.00     0.061 A 
HETATM    4  C   UNL     1      38.325 -12.885  -2.333  1.00  0.00     0.050 A 
HETATM    5  N   UNL     1      37.261 -12.403  -3.116  1.00  0.00    -0.324 N 
HETATM    6  C   UNL     1      36.467 -11.311  -2.869  1.00  0.00     0.245 C 
HETATM    7  O   UNL     1      35.442 -11.178  -3.540  1.00  0.00    -0.271 OA
HETATM    8  C   UNL     1      36.788 -10.439  -1.654  1.00  0.00     0.180 C 
HETATM    9  N   UNL     1      38.133  -9.901  -1.767  1.00  0.00    -0.334 N 
HETATM   10  C   UNL     1      39.292 -10.627  -1.651  1.00  0.00     0.256 C 
HETATM   11  O   UNL     1      40.399 -10.099  -1.599  1.00  0.00    -0.267 OA
HETATM   12  C   UNL     1      35.889  -9.201  -1.546  1.00  0.00     0.037 C 
HETATM   13  C   UNL     1      36.823  -8.126  -1.006  1.00  0.00     0.022 C 
HETATM   14  C   UNL     1      38.137  -8.452  -1.692  1.00  0.00     0.127 C 
HETATM   15  C   UNL     1      38.484 -14.278  -2.317  1.00  0.00     0.033 A 
HETATM   16  C   UNL     1      39.390 -14.888  -1.442  1.00  0.00     0.032 A 
HETATM   17  H   UNL     1      36.841 -13.026  -3.795  1.00  0.00     0.169 HD
ENDROOT
BRANCH   1  18
HETATM   18  N   UNL     1      40.922 -14.793   0.401  1.00  0.00    -0.327 N 
HETATM   19  C   UNL     1      40.456 -15.242   1.620  1.00  0.00     0.224 C 
HETATM   20  O   UNL     1      39.430 -14.878   2.186  1.00  0.00    -0.273 OA
HETATM   21  H   UNL     1      41.880 -15.027   0.157  1.00  0.00     0.169 HD
BRANCH  19  22
HETATM   22  C   UNL     1      41.308 -16.334   2.239  1.00  0.00     0.134 C 
BRANCH  22  23
HETATM   23  C   UNL     1      41.976 -15.967   3.586  1.00  0.00     0.044 C 
HETATM   24  C   UNL     1      43.243 -16.872   3.725  1.00  0.00     0.032 C 
HETATM   25  C   UNL     1      43.918 -16.771   5.091  1.00  0.00     0.002 C 
HETATM   26  C   UNL     1      42.947 -17.128   6.208  1.00  0.00     0.000 C 
HETATM   27  C   UNL     1      41.690 -16.271   6.145  1.00  0.00     0.002 C 
HETATM   28  C   UNL     1      41.025 -16.333   4.766  1.00  0.00     0.032 C 
BRANCH  23  29
HETATM   29  N   UNL     1      42.355 -14.534   3.544  1.00  0.00    -0.356 N 
HETATM   30  C   UNL     1      41.870 -13.565   4.398  1.00  0.00     0.091 A 
HETATM   31  C   UNL     1      42.493 -12.370   4.115  1.00  0.00     0.019 A 
HETATM   32  C   UNL     1      43.417 -12.619   3.081  1.00  0.00     0.019 A 
HETATM   33  C   UNL     1      43.330 -13.957   2.766  1.00  0.00     0.091 A 
ENDBRANCH  23  29
ENDBRANCH  22  23
ENDBRANCH  19  22
ENDBRANCH   1  18
TORSDOF 4
ENDMDL
MODEL 7
REMARK VINA RESULT:      -8.8      5.109      9.011
REMARK  4 active torsions:
REMARK  status: ('A' for Active; 'I' for Inactive)
REMARK    1  A    between atoms: N_3  and  C_4 
REMARK    2  A    between atoms: C_4  and  C_5 
REMARK    3  A    between atoms: C_5  and  C_6 
REMARK       I    between atoms: C_6  and  N_7 
REMARK    4  A    between atoms: N_7  and  C_8 
ROOT
HETATM    1  C   UNL     1      41.184 -13.140   0.758  1.00  0.00     0.035 A 
HETATM    2  C   UNL     1      40.948 -12.174  -0.220  1.00  0.00     0.049 A 
HETATM    3  C   UNL     1      40.020 -12.399  -1.254  1.00  0.00     0.061 A 
HETATM    4  C   UNL     1      39.323 -13.612  -1.317  1.00  0.00     0.050 A 
HETATM    5  N   UNL     1      38.268 -13.912  -2.196  1.00  0.00    -0.324 N 
HETATM    6  C   UNL     1      37.319 -13.051  -2.689  1.00  0.00     0.245 C 
HETATM    7  O   UNL     1      36.340 -13.536  -3.260  1.00  0.00    -0.271 OA
HETATM    8  C   UNL     1      37.426 -11.568  -2.332  1.00  0.00     0.180 C 
HETATM    9  N   UNL     1      38.693 -11.031  -2.802  1.00  0.00    -0.334 N 
HETATM   10  C   UNL     1      39.925 -11.329  -2.277  1.00  0.00     0.256 C 
HETATM   11  O   UNL     1      40.945 -10.730  -2.609  1.00  0.00    -0.267 OA
HETATM   12  C   UNL     1      36.365 -10.703  -3.023  1.00  0.00     0.037 C 
HETATM   13  C   UNL     1      37.103  -9.406  -3.328  1.00  0.00     0.022 C 
HETATM   14  C   UNL     1      38.497  -9.892  -3.679  1.00  0.00     0.127 C 
HETATM   15  C   UNL     1      39.665 -14.627  -0.411  1.00  0.00     0.033 A 
HETATM   16  C   UNL     1      40.574 -14.388   0.625  1.00  0.00     0.032 A 
HETATM   17  H   UNL     1      37.988 -14.880  -2.303  1.00  0.00     0.169 HD
ENDROOT
BRANCH   1  18
HETATM   18  N   UNL     1      41.934 -12.905   1.929  1.00  0.00    -0.327 N 
HETATM   19  C   UNL     1      41.468 -12.946   3.228  1.00  0.00     0.224 C 
HETATM   20  O   UNL     1      40.295 -12.889   3.583  1.00  0.00    -0.273 OA
HETATM   21  H   UNL     1      42.930 -12.754   1.800  1.00  0.00     0.169 HD
BRANCH  19  22
HETATM   22  C   UNL     1      42.557 -13.142   4.266  1.00  0.00     0.134 C 
BRANCH  22  23
HETATM   23  C   UNL     1      42.589 -14.537   4.936  1.00  0.00     0.044 C 
HETATM   24  C   UNL     1      41.324 -14.631   5.850  1.00  0.00     0.032 C 
HETATM   25  C   UNL     1      41.301 -15.877   6.732  1.00  0.00     0.002 C 
HETATM   26  C   UNL     1      42.538 -15.944   7.616  1.00  0.00     0.000 C 
HETATM   27  C   UNL     1      43.814 -15.874   6.788  1.00  0.00     0.002 C 
HETATM   28  C   UNL     1      43.833 -14.648   5.869  1.00  0.00     0.032 C 
BRANCH  23  29
HETATM   29  N   UNL     1      42.545 -15.567   3.870  1.00  0.00    -0.356 N 
HETATM   30  C   UNL     1      41.447 -16.349   3.574  1.00  0.00     0.091 A 
HETATM   31  C   UNL     1      41.743 -17.138   2.485  1.00  0.00     0.019 A 
HETATM   32  C   UNL     1      43.048 -16.805   2.074  1.00  0.00     0.019 A 
HETATM   33  C   UNL     1      43.508 -15.823   2.924  1.00  0.00     0.091 A 
ENDBRANCH  23  29
ENDBRANCH  22  23
ENDBRANCH  19  22
ENDBRANCH   1  18
TORSDOF 4
ENDMDL
MODEL 8
REMARK VINA RESULT:      -8.8      4.624      7.984
REMARK  4 active torsions:
REMARK  status: ('A' for Active; 'I' for Inactive)
REMARK    1  A    between atoms: N_3  and  C_4 
REMARK    2  A    between atoms: C_4  and  C_5 
REMARK    3  A    between atoms: C_5  and  C_6 
REMARK       I    between atoms: C_6  and  N_7 
REMARK    4  A    between atoms: N_7  and  C_8 
ROOT
HETATM    1  C   UNL     1      40.204 -14.290   1.304  1.00  0.00     0.035 A 
HETATM    2  C   UNL     1      40.589 -12.950   1.295  1.00  0.00     0.049 A 
HETATM    3  C   UNL     1      40.529 -12.184   0.115  1.00  0.00     0.061 A 
HETATM    4  C   UNL     1      40.086 -12.771  -1.077  1.00  0.00     0.050 A 
HETATM    5  N   UNL     1      39.834 -12.096  -2.284  1.00  0.00    -0.324 N 
HETATM    6  C   UNL     1      39.366 -10.815  -2.444  1.00  0.00     0.245 C 
HETATM    7  O   UNL     1      38.988 -10.475  -3.567  1.00  0.00    -0.271 OA
HETATM    8  C   UNL     1      39.153  -9.957  -1.197  1.00  0.00     0.180 C 
HETATM    9  N   UNL     1      40.406  -9.805  -0.475  1.00  0.00    -0.334 N 
HETATM   10  C   UNL     1      41.047 -10.798   0.221  1.00  0.00     0.256 C 
HETATM   11  O   UNL     1      42.019 -10.578   0.939  1.00  0.00    -0.267 OA
HETATM   12  C   UNL     1      38.721  -8.521  -1.519  1.00  0.00     0.037 C 
HETATM   13  C   UNL     1      39.424  -7.688  -0.455  1.00  0.00     0.022 C 
HETATM   14  C   UNL     1      40.750  -8.407  -0.292  1.00  0.00     0.127 C 
HETATM   15  C   UNL     1      39.831 -14.150  -1.089  1.00  0.00     0.033 A 
HETATM   16  C   UNL     1      39.874 -14.899   0.092  1.00  0.00     0.032 A 
HETATM   17  H   UNL     1      39.730 -12.642  -3.130  1.00  0.00     0.169 HD
ENDROOT
BRANCH   1  18
HETATM   18  N   UNL     1      40.039 -15.052   2.480  1.00  0.00    -0.327 N 
HETATM   19  C   UNL     1      40.849 -16.081   2.916  1.00  0.00     0.224 C 
HETATM   20  O   UNL     1      41.654 -16.711   2.237  1.00  0.00    -0.273 OA
HETATM   21  H   UNL     1      39.283 -14.767   3.095  1.00  0.00     0.169 HD
BRANCH  19  22
HETATM   22  C   UNL     1      40.729 -16.372   4.400  1.00  0.00     0.134 C 
BRANCH  22  23
HETATM   23  C   UNL     1      41.880 -15.822   5.277  1.00  0.00     0.044 C 
HETATM   24  C   UNL     1      43.132 -16.716   4.996  1.00  0.00     0.032 C 
HETATM   25  C   UNL     1      44.308 -16.426   5.924  1.00  0.00     0.002 C 
HETATM   26  C   UNL     1      43.911 -16.602   7.382  1.00  0.00     0.000 C 
HETATM   27  C   UNL     1      42.702 -15.745   7.734  1.00  0.00     0.002 C 
HETATM   28  C   UNL     1      41.526 -15.998   6.786  1.00  0.00     0.032 C 
BRANCH  23  29
HETATM   29  N   UNL     1      42.138 -14.417   4.881  1.00  0.00    -0.356 N 
HETATM   30  C   UNL     1      41.454 -13.322   5.371  1.00  0.00     0.091 A 
HETATM   31  C   UNL     1      42.007 -12.179   4.839  1.00  0.00     0.019 A 
HETATM   32  C   UNL     1      43.087 -12.578   4.028  1.00  0.00     0.019 A 
HETATM   33  C   UNL     1      43.161 -13.952   4.090  1.00  0.00     0.091 A 
ENDBRANCH  23  29
ENDBRANCH  22  23
ENDBRANCH  19  22
ENDBRANCH   1  18
TORSDOF 4
ENDMDL
MODEL 9
REMARK VINA RESULT:      -8.6      5.523      8.641
REMARK  4 active torsions:
REMARK  status: ('A' for Active; 'I' for Inactive)
REMARK    1  A    between atoms: N_3  and  C_4 
REMARK    2  A    between atoms: C_4  and  C_5 
REMARK    3  A    between atoms: C_5  and  C_6 
REMARK       I    between atoms: C_6  and  N_7 
REMARK    4  A    between atoms: N_7  and  C_8 
ROOT
HETATM    1  C   UNL     1      39.952 -14.057  -0.549  1.00  0.00     0.035 A 
HETATM    2  C   UNL     1      39.921 -12.664  -0.498  1.00  0.00     0.049 A 
HETATM    3  C   UNL     1      39.078 -11.923  -1.348  1.00  0.00     0.061 A 
HETATM    4  C   UNL     1      38.257 -12.586  -2.269  1.00  0.00     0.050 A 
HETATM    5  N   UNL     1      37.264 -11.990  -3.066  1.00  0.00    -0.324 N 
HETATM    6  C   UNL     1      36.471 -10.916  -2.751  1.00  0.00     0.245 C 
HETATM    7  O   UNL     1      35.503 -10.680  -3.476  1.00  0.00    -0.271 OA
HETATM    8  C   UNL     1      36.711 -10.200  -1.421  1.00  0.00     0.180 C 
HETATM    9  N   UNL     1      38.069  -9.685  -1.368  1.00  0.00    -0.334 N 
HETATM   10  C   UNL     1      39.204 -10.448  -1.253  1.00  0.00     0.256 C 
HETATM   11  O   UNL     1      40.312  -9.956  -1.057  1.00  0.00    -0.267 OA
HETATM   12  C   UNL     1      35.825  -8.962  -1.234  1.00  0.00     0.037 C 
HETATM   13  C   UNL     1      36.732  -7.980  -0.501  1.00  0.00     0.022 C 
HETATM   14  C   UNL     1      38.089  -8.255  -1.122  1.00  0.00     0.127 C 
HETATM   15  C   UNL     1      38.393 -13.975  -2.406  1.00  0.00     0.033 A 
HETATM   16  C   UNL     1      39.220 -14.705  -1.546  1.00  0.00     0.032 A 
HETATM   17  H   UNL     1      36.888 -12.519  -3.844  1.00  0.00     0.169 HD
ENDROOT
BRANCH   1  18
HETATM   18  N   UNL     1      40.608 -14.864   0.404  1.00  0.00    -0.327 N 
HETATM   19  C   UNL     1      40.187 -15.123   1.693  1.00  0.00     0.224 C 
HETATM   20  O   UNL     1      39.361 -14.479   2.333  1.00  0.00    -0.273 OA
HETATM   21  H   UNL     1      41.438 -15.351   0.082  1.00  0.00     0.169 HD
BRANCH  19  22
HETATM   22  C   UNL     1      40.797 -16.373   2.299  1.00  0.00     0.134 C 
BRANCH  22  23
HETATM   23  C   UNL     1      41.679 -16.139   3.550  1.00  0.00     0.044 C 
HETATM   24  C   UNL     1      40.732 -16.210   4.792  1.00  0.00     0.032 C 
HETATM   25  C   UNL     1      41.412 -15.813   6.100  1.00  0.00     0.002 C 
HETATM   26  C   UNL     1      41.985 -14.406   6.013  1.00  0.00     0.000 C 
HETATM   27  C   UNL     1      42.934 -14.267   4.830  1.00  0.00     0.002 C 
HETATM   28  C   UNL     1      42.276 -14.699   3.516  1.00  0.00     0.032 C 
BRANCH  23  29
HETATM   29  N   UNL     1      42.701 -17.211   3.606  1.00  0.00    -0.356 N 
HETATM   30  C   UNL     1      43.154 -17.926   2.516  1.00  0.00     0.091 A 
HETATM   31  C   UNL     1      44.150 -18.784   2.929  1.00  0.00     0.019 A 
HETATM   32  C   UNL     1      44.342 -18.564   4.307  1.00  0.00     0.019 A 
HETATM   33  C   UNL     1      43.459 -17.579   4.692  1.00  0.00     0.091 A 
ENDBRANCH  23  29
ENDBRANCH  22  23
ENDBRANCH  19  22
ENDBRANCH   1  18
TORSDOF 4
ENDMDL
MODEL 10
REMARK VINA RESULT:      -8.6      2.311      3.884
REMARK  4 active torsions:
REMARK  status: ('A' for Active; 'I' for Inactive)
REMARK    1  A    between atoms: N_3  and  C_4 
REMARK    2  A    between atoms: C_4  and  C_5 
REMARK    3  A    between atoms: C_5  and  C_6 
REMARK       I    between atoms: C_6  and  N_7 
REMARK    4  A    between atoms: N_7  and  C_8 
ROOT
HETATM    1  C   UNL     1      41.791 -10.366   5.605  1.00  0.00     0.035 A 
HETATM    2  C   UNL     1      42.377  -9.514   6.539  1.00  0.00     0.049 A 
HETATM    3  C   UNL     1      41.721  -9.195   7.744  1.00  0.00     0.061 A 
HETATM    4  C   UNL     1      40.456  -9.730   8.013  1.00  0.00     0.050 A 
HETATM    5  N   UNL     1      39.756  -9.621   9.228  1.00  0.00    -0.324 N 
HETATM    6  C   UNL     1      40.282  -9.568  10.495  1.00  0.00     0.245 C 
HETATM    7  O   UNL     1      39.511  -9.705  11.447  1.00  0.00    -0.271 OA
HETATM    8  C   UNL     1      41.803  -9.543  10.650  1.00  0.00     0.180 C 
HETATM    9  N   UNL     1      42.356  -8.383   9.972  1.00  0.00    -0.334 N 
HETATM   10  C   UNL     1      42.413  -8.210   8.611  1.00  0.00     0.256 C 
HETATM   11  O   UNL     1      43.029  -7.285   8.089  1.00  0.00    -0.267 OA
HETATM   12  C   UNL     1      42.258  -9.387  12.107  1.00  0.00     0.037 C 
HETATM   13  C   UNL     1      43.500  -8.510  12.002  1.00  0.00     0.022 C 
HETATM   14  C   UNL     1      43.142  -7.561  10.873  1.00  0.00     0.127 C 
HETATM   15  C   UNL     1      39.818 -10.476   7.011  1.00  0.00     0.033 A 
HETATM   16  C   UNL     1      40.484 -10.804   5.826  1.00  0.00     0.032 A 
HETATM   17  H   UNL     1      38.771  -9.854   9.241  1.00  0.00     0.169 HD
ENDROOT
BRANCH   1  18
HETATM   18  N   UNL     1      42.471 -10.892   4.486  1.00  0.00    -0.327 N 
HETATM   19  C   UNL     1      43.375 -11.936   4.486  1.00  0.00     0.224 C 
HETATM   20  O   UNL     1      43.970 -12.383   5.462  1.00  0.00    -0.273 OA
HETATM   21  H   UNL     1      42.218 -10.501   3.584  1.00  0.00     0.169 HD
BRANCH  19  22
HETATM   22  C   UNL     1      43.559 -12.590   3.131  1.00  0.00     0.134 C 
BRANCH  22  23
HETATM   23  C   UNL     1      42.762 -13.900   2.914  1.00  0.00     0.044 C 
HETATM   24  C   UNL     1      42.787 -14.676   4.271  1.00  0.00     0.032 C 
HETATM   25  C   UNL     1      42.203 -16.084   4.179  1.00  0.00     0.002 C 
HETATM   26  C   UNL     1      42.941 -16.913   3.138  1.00  0.00     0.000 C 
HETATM   27  C   UNL     1      42.943 -16.224   1.780  1.00  0.00     0.002 C 
HETATM   28  C   UNL     1      43.490 -14.795   1.866  1.00  0.00     0.032 C 
BRANCH  23  29
HETATM   29  N   UNL     1      41.373 -13.544   2.537  1.00  0.00    -0.356 N 
HETATM   30  C   UNL     1      40.298 -13.539   3.402  1.00  0.00     0.091 A 
HETATM   31  C   UNL     1      39.186 -13.089   2.727  1.00  0.00     0.019 A 
HETATM   32  C   UNL     1      39.595 -12.771   1.418  1.00  0.00     0.019 A 
HETATM   33  C   UNL     1      40.945 -13.035   1.334  1.00  0.00     0.091 A 
ENDBRANCH  23  29
ENDBRANCH  22  23
ENDBRANCH  19  22
ENDBRANCH   1  18
TORSDOF 4
ENDMDL
