MODEL 1
REMARK VINA RESULT:      -8.1      0.000      0.000
REMARK  7 active torsions:
REMARK  status: ('A' for Active; 'I' for Inactive)
REMARK    1  A    between atoms: N_6  and  C_7 
REMARK    2  A    between atoms: C_11  and  N_12 
REMARK    3  A    between atoms: N_12  and  C_13 
REMARK    4  A    between atoms: C_13  and  N_14 
REMARK       I    between atoms: N_14  and  C_15 
REMARK    5  A    between atoms: C_15  and  C_16 
REMARK    6  A    between atoms: C_17  and  C_18 
REMARK    7  A    between atoms: C_20  and  C_21 
ROOT
HETATM    1  C   UNL     1      41.469  -8.958   8.052  1.00  0.00     0.179 C 
HETATM    2  S   UNL     1      40.026  -8.316   8.594  1.00  0.00    -0.040 SA
ENDROOT
BRANCH   1   3
HETATM    3  N   UNL     1      41.404 -10.247   7.591  1.00  0.00    -0.333 N 
HETATM    4  H   UNL     1      41.871 -10.885   8.234  1.00  0.00     0.168 HD
BRANCH   3   5
HETATM    5  C   UNL     1      40.955 -10.829   6.390  1.00  0.00     0.036 A 
HETATM    6  C   UNL     1      41.326 -10.175   5.212  1.00  0.00     0.055 A 
HETATM    7  C   UNL     1      40.863 -10.616   3.966  1.00  0.00     0.062 A 
HETATM    8  C   UNL     1      40.019 -11.742   3.845  1.00  0.00     0.052 A 
HETATM    9 CL   UNL     1      41.273  -9.630   2.594  1.00  0.00    -0.082 Cl
HETATM   10  C   UNL     1      39.667 -12.389   5.039  1.00  0.00     0.033 A 
HETATM   11  C   UNL     1      40.116 -11.938   6.294  1.00  0.00     0.032 A 
BRANCH   8  12
HETATM   12  N   UNL     1      39.501 -12.148   2.617  1.00  0.00    -0.376 N 
HETATM   13  C   UNL     1      39.740 -13.537   2.189  1.00  0.00     0.150 C 
HETATM   14  C   UNL     1      39.864 -13.568   0.651  1.00  0.00     0.254 C 
HETATM   15  N   UNL     1      38.621 -12.945  -0.003  1.00  0.00    -0.072 N 
HETATM   16  C   UNL     1      38.737 -12.933  -1.499  1.00  0.00     0.269 C 
HETATM   17  H   UNL     1      37.821 -13.537   0.248  1.00  0.00     0.279 HD
HETATM   18  C   UNL     1      38.337 -11.542   0.546  1.00  0.00     0.254 C 
HETATM   19  C   UNL     1      38.270 -11.546   2.091  1.00  0.00     0.150 C 
ENDBRANCH   8  12
ENDBRANCH   3   5
ENDBRANCH   1   3
BRANCH   1  20
HETATM   20  N   UNL     1      42.693  -8.323   7.957  1.00  0.00    -0.300 N 
HETATM   21  C   UNL     1      43.762  -8.069   8.804  1.00  0.00     0.247 C 
HETATM   22  O   UNL     1      44.441  -7.063   8.610  1.00  0.00    -0.268 OA
HETATM   23  H   UNL     1      42.689  -7.602   7.248  1.00  0.00     0.171 HD
BRANCH  21  24
HETATM   24  C   UNL     1      44.040  -8.998   9.922  1.00  0.00     0.077 C 
HETATM   25  C   UNL     1      44.533 -10.238   9.787  1.00  0.00     0.042 C 
BRANCH  25  26
HETATM   26  C   UNL     1      44.748 -10.880   8.542  1.00  0.00     0.076 A 
HETATM   27  O   UNL     1      43.912 -11.840   8.013  1.00  0.00    -0.310 OA
HETATM   28  C   UNL     1      44.428 -12.249   6.819  1.00  0.00     0.086 A 
HETATM   29  C   UNL     1      45.597 -11.569   6.559  1.00  0.00     0.041 A 
HETATM   30  C   UNL     1      45.813 -10.719   7.667  1.00  0.00     0.040 A 
BRANCH  28  31
HETATM   31  C   UNL     1      43.673 -13.266   6.105  1.00  0.00    -0.002 A 
HETATM   32  C   UNL     1      43.476 -13.165   4.721  1.00  0.00     0.016 A 
HETATM   33  C   UNL     1      42.766 -14.149   4.027  1.00  0.00     0.024 A 
HETATM   34  C   UNL     1      42.257 -15.249   4.716  1.00  0.00     0.034 A 
HETATM   35 CL   UNL     1      41.374 -16.458   3.869  1.00  0.00    -0.084 Cl
HETATM   36  C   UNL     1      42.453 -15.372   6.089  1.00  0.00     0.024 A 
HETATM   37  C   UNL     1      43.153 -14.380   6.781  1.00  0.00     0.016 A 
ENDBRANCH  28  31
ENDBRANCH  25  26
ENDBRANCH  21  24
ENDBRANCH   1  20
TORSDOF 7
ENDMDL
MODEL 2
REMARK VINA RESULT:      -7.7      3.798      7.926
REMARK  7 active torsions:
REMARK  status: ('A' for Active; 'I' for Inactive)
REMARK    1  A    between atoms: N_6  and  C_7 
REMARK    2  A    between atoms: C_11  and  N_12 
REMARK    3  A    between atoms: N_12  and  C_13 
REMARK    4  A    between atoms: C_13  and  N_14 
REMARK       I    between atoms: N_14  and  C_15 
REMARK    5  A    between atoms: C_15  and  C_16 
REMARK    6  A    between atoms: C_17  and  C_18 
REMARK    7  A    between atoms: C_20  and  C_21 
ROOT
HETATM    1  C   UNL     1      42.546 -11.590   5.331  1.00  0.00     0.179 C 
HETATM    2  S   UNL     1      43.793 -11.582   4.220  1.00  0.00    -0.040 SA
ENDROOT
BRANCH   1   3
HETATM    3  N   UNL     1      42.204 -10.364   5.840  1.00  0.00    -0.333 N 
HETATM    4  H   UNL     1      42.333  -9.634   5.141  1.00  0.00     0.168 HD
BRANCH   3   5
HETATM    5  C   UNL     1      41.851  -9.908   7.125  1.00  0.00     0.036 A 
HETATM    6  C   UNL     1      42.897  -9.782   8.043  1.00  0.00     0.055 A 
HETATM    7  C   UNL     1      42.649  -9.421   9.373  1.00  0.00     0.062 A 
HETATM    8  C   UNL     1      41.342  -9.156   9.838  1.00  0.00     0.052 A 
HETATM    9 CL   UNL     1      44.014  -9.444  10.449  1.00  0.00    -0.082 Cl
HETATM   10  C   UNL     1      40.308  -9.279   8.896  1.00  0.00     0.033 A 
HETATM   11  C   UNL     1      40.552  -9.659   7.564  1.00  0.00     0.032 A 
BRANCH   8  12
HETATM   12  N   UNL     1      41.078  -8.860  11.174  1.00  0.00    -0.376 N 
HETATM   13  C   UNL     1      41.132  -7.450  11.595  1.00  0.00     0.150 C 
HETATM   14  C   UNL     1      41.631  -7.388  13.055  1.00  0.00     0.254 C 
HETATM   15  N   UNL     1      40.744  -8.252  13.965  1.00  0.00    -0.072 N 
HETATM   16  C   UNL     1      41.232  -8.232  15.384  1.00  0.00     0.269 C 
HETATM   17  H   UNL     1      39.804  -7.839  13.948  1.00  0.00     0.279 HD
HETATM   18  C   UNL     1      40.619  -9.685  13.437  1.00  0.00     0.254 C 
HETATM   19  C   UNL     1      40.167  -9.702  11.958  1.00  0.00     0.150 C 
ENDBRANCH   8  12
ENDBRANCH   3   5
ENDBRANCH   1   3
BRANCH   1  20
HETATM   20  N   UNL     1      41.787 -12.670   5.741  1.00  0.00    -0.300 N 
HETATM   21  C   UNL     1      40.477 -13.095   5.579  1.00  0.00     0.247 C 
HETATM   22  O   UNL     1      39.967 -13.780   6.463  1.00  0.00    -0.268 OA
HETATM   23  H   UNL     1      42.132 -13.065   6.605  1.00  0.00     0.171 HD
BRANCH  21  24
HETATM   24  C   UNL     1      39.728 -12.700   4.365  1.00  0.00     0.077 C 
HETATM   25  C   UNL     1      39.993 -13.133   3.123  1.00  0.00     0.042 C 
BRANCH  25  26
HETATM   26  C   UNL     1      41.105 -13.941   2.780  1.00  0.00     0.076 A 
HETATM   27  O   UNL     1      41.447 -15.104   3.436  1.00  0.00    -0.310 OA
HETATM   28  C   UNL     1      42.573 -15.610   2.857  1.00  0.00     0.086 A 
HETATM   29  C   UNL     1      42.976 -14.790   1.827  1.00  0.00     0.041 A 
HETATM   30  C   UNL     1      42.059 -13.715   1.797  1.00  0.00     0.040 A 
BRANCH  28  31
HETATM   31  C   UNL     1      43.085 -16.850   3.419  1.00  0.00    -0.002 A 
HETATM   32  C   UNL     1      43.262 -16.983   4.804  1.00  0.00     0.016 A 
HETATM   33  C   UNL     1      43.737 -18.180   5.350  1.00  0.00     0.024 A 
HETATM   34  C   UNL     1      44.028 -19.254   4.512  1.00  0.00     0.034 A 
HETATM   35 CL   UNL     1      44.623 -20.725   5.178  1.00  0.00    -0.084 Cl
HETATM   36  C   UNL     1      43.848 -19.143   3.136  1.00  0.00     0.024 A 
HETATM   37  C   UNL     1      43.384 -17.942   2.591  1.00  0.00     0.016 A 
ENDBRANCH  28  31
ENDBRANCH  25  26
ENDBRANCH  21  24
ENDBRANCH   1  20
TORSDOF 7
ENDMDL
MODEL 3
REMARK VINA RESULT:      -7.6      3.447      7.155
REMARK  7 active torsions:
REMARK  status: ('A' for Active; 'I' for Inactive)
REMARK    1  A    between atoms: N_6  and  C_7 
REMARK    2  A    between atoms: C_11  and  N_12 
REMARK    3  A    between atoms: N_12  and  C_13 
REMARK    4  A    between atoms: C_13  and  N_14 
REMARK       I    between atoms: N_14  and  C_15 
REMARK    5  A    between atoms: C_15  and  C_16 
REMARK    6  A    between atoms: C_17  and  C_18 
REMARK    7  A    between atoms: C_20  and  C_21 
ROOT
HETATM    1  C   UNL     1      41.969 -11.255   3.655  1.00  0.00     0.179 C 
HETATM    2  S   UNL     1      43.565 -11.724   3.502  1.00  0.00    -0.040 SA
ENDROOT
BRANCH   1   3
HETATM    3  N   UNL     1      41.766 -10.058   4.289  1.00  0.00    -0.333 N 
HETATM    4  H   UNL     1      41.952  -9.279   3.660  1.00  0.00     0.168 HD
BRANCH   3   5
HETATM    5  C   UNL     1      41.492  -9.697   5.623  1.00  0.00     0.036 A 
HETATM    6  C   UNL     1      42.497  -9.968   6.555  1.00  0.00     0.055 A 
HETATM    7  C   UNL     1      42.299  -9.732   7.920  1.00  0.00     0.062 A 
HETATM    8  C   UNL     1      41.086  -9.199   8.411  1.00  0.00     0.052 A 
HETATM    9 CL   UNL     1      43.568 -10.250   8.989  1.00  0.00    -0.082 Cl
HETATM   10  C   UNL     1      40.094  -8.924   7.457  1.00  0.00     0.033 A 
HETATM   11  C   UNL     1      40.285  -9.178   6.087  1.00  0.00     0.032 A 
BRANCH   8  12
HETATM   12  N   UNL     1      40.855  -9.022   9.774  1.00  0.00    -0.376 N 
HETATM   13  C   UNL     1      41.366  -7.795  10.410  1.00  0.00     0.150 C 
HETATM   14  C   UNL     1      41.760  -8.119  11.867  1.00  0.00     0.254 C 
HETATM   15  N   UNL     1      40.572  -8.736  12.622  1.00  0.00    -0.072 N 
HETATM   16  C   UNL     1      40.943  -9.090  14.032  1.00  0.00     0.269 C 
HETATM   17  H   UNL     1      39.836  -8.021  12.658  1.00  0.00     0.279 HD
HETATM   18  C   UNL     1      39.994  -9.944  11.876  1.00  0.00     0.254 C 
HETATM   19  C   UNL     1      39.661  -9.591  10.408  1.00  0.00     0.150 C 
ENDBRANCH   8  12
ENDBRANCH   3   5
ENDBRANCH   1   3
BRANCH   1  20
HETATM   20  N   UNL     1      40.849 -11.899   3.163  1.00  0.00    -0.300 N 
HETATM   21  C   UNL     1      39.886 -12.762   3.663  1.00  0.00     0.247 C 
HETATM   22  O   UNL     1      39.353 -13.559   2.894  1.00  0.00    -0.268 OA
HETATM   23  H   UNL     1      40.916 -12.060   2.167  1.00  0.00     0.171 HD
BRANCH  21  24
HETATM   24  C   UNL     1      39.545 -12.716   5.103  1.00  0.00     0.077 C 
HETATM   25  C   UNL     1      40.302 -13.218   6.090  1.00  0.00     0.042 C 
BRANCH  25  26
HETATM   26  C   UNL     1      41.485 -13.971   5.883  1.00  0.00     0.076 A 
HETATM   27  O   UNL     1      41.563 -15.080   5.070  1.00  0.00    -0.310 OA
HETATM   28  C   UNL     1      42.838 -15.561   5.119  1.00  0.00     0.086 A 
HETATM   29  C   UNL     1      43.599 -14.780   5.958  1.00  0.00     0.041 A 
HETATM   30  C   UNL     1      42.732 -13.786   6.465  1.00  0.00     0.040 A 
BRANCH  28  31
HETATM   31  C   UNL     1      43.113 -16.740   4.311  1.00  0.00    -0.002 A 
HETATM   32  C   UNL     1      43.959 -17.749   4.793  1.00  0.00     0.016 A 
HETATM   33  C   UNL     1      44.213 -18.892   4.028  1.00  0.00     0.024 A 
HETATM   34  C   UNL     1      43.611 -19.035   2.780  1.00  0.00     0.034 A 
HETATM   35 CL   UNL     1      43.928 -20.434   1.830  1.00  0.00    -0.084 Cl
HETATM   36  C   UNL     1      42.759 -18.048   2.290  1.00  0.00     0.024 A 
HETATM   37  C   UNL     1      42.517 -16.901   3.052  1.00  0.00     0.016 A 
ENDBRANCH  28  31
ENDBRANCH  25  26
ENDBRANCH  21  24
ENDBRANCH   1  20
TORSDOF 7
ENDMDL
MODEL 4
REMARK VINA RESULT:      -7.6      3.629      7.427
REMARK  7 active torsions:
REMARK  status: ('A' for Active; 'I' for Inactive)
REMARK    1  A    between atoms: N_6  and  C_7 
REMARK    2  A    between atoms: C_11  and  N_12 
REMARK    3  A    between atoms: N_12  and  C_13 
REMARK    4  A    between atoms: C_13  and  N_14 
REMARK       I    between atoms: N_14  and  C_15 
REMARK    5  A    between atoms: C_15  and  C_16 
REMARK    6  A    between atoms: C_17  and  C_18 
REMARK    7  A    between atoms: C_20  and  C_21 
ROOT
HETATM    1  C   UNL     1      41.586  -9.897   4.919  1.00  0.00     0.179 C 
HETATM    2  S   UNL     1      41.098  -8.371   4.447  1.00  0.00    -0.040 SA
ENDROOT
BRANCH   1   3
HETATM    3  N   UNL     1      40.947 -10.405   6.020  1.00  0.00    -0.333 N 
HETATM    4  H   UNL     1      40.458 -11.268   5.788  1.00  0.00     0.168 HD
BRANCH   3   5
HETATM    5  C   UNL     1      40.728  -9.924   7.326  1.00  0.00     0.036 A 
HETATM    6  C   UNL     1      41.864  -9.523   8.034  1.00  0.00     0.055 A 
HETATM    7  C   UNL     1      41.774  -9.112   9.369  1.00  0.00     0.062 A 
HETATM    8  C   UNL     1      40.537  -9.070  10.049  1.00  0.00     0.052 A 
HETATM    9 CL   UNL     1      43.275  -8.783  10.182  1.00  0.00    -0.082 Cl
HETATM   10  C   UNL     1      39.408  -9.467   9.316  1.00  0.00     0.033 A 
HETATM   11  C   UNL     1      39.498  -9.898   7.981  1.00  0.00     0.032 A 
BRANCH   8  12
HETATM   12  N   UNL     1      40.446  -8.725  11.396  1.00  0.00    -0.376 N 
HETATM   13  C   UNL     1      40.045  -7.349  11.734  1.00  0.00     0.150 C 
HETATM   14  C   UNL     1      40.756  -6.931  13.039  1.00  0.00     0.254 C 
HETATM   15  N   UNL     1      40.455  -7.935  14.162  1.00  0.00    -0.072 N 
HETATM   16  C   UNL     1      41.165  -7.566  15.431  1.00  0.00     0.269 C 
HETATM   17  H   UNL     1      39.444  -7.893  14.340  1.00  0.00     0.279 HD
HETATM   18  C   UNL     1      40.780  -9.372  13.738  1.00  0.00     0.254 C 
HETATM   19  C   UNL     1      40.091  -9.733  12.402  1.00  0.00     0.150 C 
ENDBRANCH   8  12
ENDBRANCH   3   5
ENDBRANCH   1   3
BRANCH   1  20
HETATM   20  N   UNL     1      42.501 -10.722   4.293  1.00  0.00    -0.300 N 
HETATM   21  C   UNL     1      43.736 -11.271   4.605  1.00  0.00     0.247 C 
HETATM   22  O   UNL     1      44.523 -11.509   3.691  1.00  0.00    -0.268 OA
HETATM   23  H   UNL     1      42.446 -10.650   3.286  1.00  0.00     0.171 HD
BRANCH  21  24
HETATM   24  C   UNL     1      44.078 -11.534   6.021  1.00  0.00     0.077 C 
HETATM   25  C   UNL     1      43.800 -12.668   6.682  1.00  0.00     0.042 C 
BRANCH  25  26
HETATM   26  C   UNL     1      43.033 -13.733   6.150  1.00  0.00     0.076 A 
HETATM   27  O   UNL     1      43.559 -14.773   5.414  1.00  0.00    -0.310 OA
HETATM   28  C   UNL     1      42.539 -15.603   5.050  1.00  0.00     0.086 A 
HETATM   29  C   UNL     1      41.347 -15.117   5.537  1.00  0.00     0.041 A 
HETATM   30  C   UNL     1      41.658 -13.914   6.212  1.00  0.00     0.040 A 
BRANCH  28  31
HETATM   31  C   UNL     1      42.907 -16.770   4.265  1.00  0.00    -0.002 A 
HETATM   32  C   UNL     1      43.745 -17.756   4.806  1.00  0.00     0.016 A 
HETATM   33  C   UNL     1      44.086 -18.889   4.061  1.00  0.00     0.024 A 
HETATM   34  C   UNL     1      43.581 -19.046   2.772  1.00  0.00     0.034 A 
HETATM   35 CL   UNL     1      44.007 -20.433   1.847  1.00  0.00    -0.084 Cl
HETATM   36  C   UNL     1      42.739 -18.083   2.222  1.00  0.00     0.024 A 
HETATM   37  C   UNL     1      42.409 -16.946   2.965  1.00  0.00     0.016 A 
ENDBRANCH  28  31
ENDBRANCH  25  26
ENDBRANCH  21  24
ENDBRANCH   1  20
TORSDOF 7
ENDMDL
MODEL 5
REMARK VINA RESULT:      -7.5      4.203      5.805
REMARK  7 active torsions:
REMARK  status: ('A' for Active; 'I' for Inactive)
REMARK    1  A    between atoms: N_6  and  C_7 
REMARK    2  A    between atoms: C_11  and  N_12 
REMARK    3  A    between atoms: N_12  and  C_13 
REMARK    4  A    between atoms: C_13  and  N_14 
REMARK       I    between atoms: N_14  and  C_15 
REMARK    5  A    between atoms: C_15  and  C_16 
REMARK    6  A    between atoms: C_17  and  C_18 
REMARK    7  A    between atoms: C_20  and  C_21 
ROOT
HETATM    1  C   UNL     1      40.247 -13.897   3.007  1.00  0.00     0.179 C 
HETATM    2  S   UNL     1      39.893 -15.256   2.104  1.00  0.00    -0.040 SA
ENDROOT
BRANCH   1   3
HETATM    3  N   UNL     1      41.194 -13.064   2.471  1.00  0.00    -0.333 N 
HETATM    4  H   UNL     1      42.102 -13.221   2.906  1.00  0.00     0.168 HD
BRANCH   3   5
HETATM    5  C   UNL     1      41.141 -11.984   1.569  1.00  0.00     0.036 A 
HETATM    6  C   UNL     1      41.062 -12.315   0.214  1.00  0.00     0.055 A 
HETATM    7  C   UNL     1      41.092 -11.324  -0.775  1.00  0.00     0.062 A 
HETATM    8  C   UNL     1      41.190  -9.954  -0.447  1.00  0.00     0.052 A 
HETATM    9 CL   UNL     1      41.138 -11.874  -2.423  1.00  0.00    -0.082 Cl
HETATM   10  C   UNL     1      41.258  -9.643   0.920  1.00  0.00     0.033 A 
HETATM   11  C   UNL     1      41.246 -10.638   1.914  1.00  0.00     0.032 A 
BRANCH   8  12
HETATM   12  N   UNL     1      41.287  -8.965  -1.424  1.00  0.00    -0.376 N 
HETATM   13  C   UNL     1      40.043  -8.486  -2.051  1.00  0.00     0.150 C 
HETATM   14  C   UNL     1      40.342  -8.106  -3.517  1.00  0.00     0.254 C 
HETATM   15  N   UNL     1      41.482  -7.080  -3.588  1.00  0.00    -0.072 N 
HETATM   16  C   UNL     1      41.812  -6.723  -5.007  1.00  0.00     0.269 C 
HETATM   17  H   UNL     1      41.152  -6.230  -3.116  1.00  0.00     0.279 HD
HETATM   18  C   UNL     1      42.725  -7.563  -2.831  1.00  0.00     0.254 C 
HETATM   19  C   UNL     1      42.375  -7.981  -1.384  1.00  0.00     0.150 C 
ENDBRANCH   8  12
ENDBRANCH   3   5
ENDBRANCH   1   3
BRANCH   1  20
HETATM   20  N   UNL     1      39.653 -13.489   4.187  1.00  0.00    -0.300 N 
HETATM   21  C   UNL     1      40.066 -12.867   5.356  1.00  0.00     0.247 C 
HETATM   22  O   UNL     1      39.460 -13.111   6.398  1.00  0.00    -0.268 OA
HETATM   23  H   UNL     1      38.836 -14.042   4.408  1.00  0.00     0.171 HD
BRANCH  21  24
HETATM   24  C   UNL     1      41.227 -11.950   5.322  1.00  0.00     0.077 C 
HETATM   25  C   UNL     1      42.510 -12.330   5.414  1.00  0.00     0.042 C 
BRANCH  25  26
HETATM   26  C   UNL     1      42.932 -13.658   5.675  1.00  0.00     0.076 A 
HETATM   27  O   UNL     1      42.963 -14.659   4.729  1.00  0.00    -0.310 OA
HETATM   28  C   UNL     1      43.401 -15.803   5.328  1.00  0.00     0.086 A 
HETATM   29  C   UNL     1      43.657 -15.565   6.659  1.00  0.00     0.041 A 
HETATM   30  C   UNL     1      43.332 -14.208   6.885  1.00  0.00     0.040 A 
BRANCH  28  31
HETATM   31  C   UNL     1      43.504 -16.978   4.476  1.00  0.00    -0.002 A 
HETATM   32  C   UNL     1      43.007 -16.952   3.166  1.00  0.00     0.016 A 
HETATM   33  C   UNL     1      43.120 -18.073   2.337  1.00  0.00     0.024 A 
HETATM   34  C   UNL     1      43.743 -19.224   2.814  1.00  0.00     0.034 A 
HETATM   35 CL   UNL     1      43.875 -20.609   1.802  1.00  0.00    -0.084 Cl
HETATM   36  C   UNL     1      44.253 -19.264   4.109  1.00  0.00     0.024 A 
HETATM   37  C   UNL     1      44.128 -18.147   4.939  1.00  0.00     0.016 A 
ENDBRANCH  28  31
ENDBRANCH  25  26
ENDBRANCH  21  24
ENDBRANCH   1  20
TORSDOF 7
ENDMDL
MODEL 6
REMARK VINA RESULT:      -7.4      2.658      4.137
REMARK  7 active torsions:
REMARK  status: ('A' for Active; 'I' for Inactive)
REMARK    1  A    between atoms: N_6  and  C_7 
REMARK    2  A    between atoms: C_11  and  N_12 
REMARK    3  A    between atoms: N_12  and  C_13 
REMARK    4  A    between atoms: C_13  and  N_14 
REMARK       I    between atoms: N_14  and  C_15 
REMARK    5  A    between atoms: C_15  and  C_16 
REMARK    6  A    between atoms: C_17  and  C_18 
REMARK    7  A    between atoms: C_20  and  C_21 
ROOT
HETATM    1  C   UNL     1      42.121 -10.299   5.217  1.00  0.00     0.179 C 
HETATM    2  S   UNL     1      41.860  -9.202   6.450  1.00  0.00    -0.040 SA
ENDROOT
BRANCH   1   3
HETATM    3  N   UNL     1      41.031 -10.575   4.434  1.00  0.00    -0.333 N 
HETATM    4  H   UNL     1      40.167 -10.404   4.945  1.00  0.00     0.168 HD
BRANCH   3   5
HETATM    5  C   UNL     1      40.869 -11.152   3.160  1.00  0.00     0.036 A 
HETATM    6  C   UNL     1      39.660 -10.888   2.512  1.00  0.00     0.055 A 
HETATM    7  C   UNL     1      39.356 -11.481   1.281  1.00  0.00     0.062 A 
HETATM    8  C   UNL     1      40.259 -12.356   0.637  1.00  0.00     0.052 A 
HETATM    9 CL   UNL     1      37.761 -11.191   0.653  1.00  0.00    -0.082 Cl
HETATM   10  C   UNL     1      41.472 -12.599   1.300  1.00  0.00     0.033 A 
HETATM   11  C   UNL     1      41.772 -12.018   2.545  1.00  0.00     0.032 A 
BRANCH   8  12
HETATM   12  N   UNL     1      39.939 -13.002  -0.556  1.00  0.00    -0.376 N 
HETATM   13  C   UNL     1      40.084 -12.248  -1.813  1.00  0.00     0.150 C 
HETATM   14  C   UNL     1      39.001 -12.725  -2.804  1.00  0.00     0.254 C 
HETATM   15  N   UNL     1      39.085 -14.245  -3.004  1.00  0.00    -0.072 N 
HETATM   16  C   UNL     1      38.019 -14.735  -3.939  1.00  0.00     0.269 C 
HETATM   17  H   UNL     1      39.997 -14.442  -3.434  1.00  0.00     0.279 HD
HETATM   18  C   UNL     1      39.043 -14.995  -1.668  1.00  0.00     0.254 C 
HETATM   19  C   UNL     1      40.108 -14.453  -0.686  1.00  0.00     0.150 C 
ENDBRANCH   8  12
ENDBRANCH   3   5
ENDBRANCH   1   3
BRANCH   1  20
HETATM   20  N   UNL     1      43.314 -10.900   4.862  1.00  0.00    -0.300 N 
HETATM   21  C   UNL     1      44.435 -11.376   5.525  1.00  0.00     0.247 C 
HETATM   22  O   UNL     1      45.516 -11.363   4.938  1.00  0.00    -0.268 OA
HETATM   23  H   UNL     1      43.598 -10.649   3.925  1.00  0.00     0.171 HD
BRANCH  21  24
HETATM   24  C   UNL     1      44.306 -11.863   6.917  1.00  0.00     0.077 C 
HETATM   25  C   UNL     1      43.676 -12.989   7.283  1.00  0.00     0.042 C 
BRANCH  25  26
HETATM   26  C   UNL     1      42.940 -13.815   6.397  1.00  0.00     0.076 A 
HETATM   27  O   UNL     1      43.468 -14.903   5.736  1.00  0.00    -0.310 OA
HETATM   28  C   UNL     1      42.491 -15.451   4.959  1.00  0.00     0.086 A 
HETATM   29  C   UNL     1      41.325 -14.733   5.101  1.00  0.00     0.041 A 
HETATM   30  C   UNL     1      41.619 -13.676   5.993  1.00  0.00     0.040 A 
BRANCH  28  31
HETATM   31  C   UNL     1      42.865 -16.623   4.184  1.00  0.00    -0.002 A 
HETATM   32  C   UNL     1      43.778 -17.555   4.699  1.00  0.00     0.016 A 
HETATM   33  C   UNL     1      44.127 -18.693   3.965  1.00  0.00     0.024 A 
HETATM   34  C   UNL     1      43.555 -18.909   2.713  1.00  0.00     0.034 A 
HETATM   35 CL   UNL     1      43.989 -20.302   1.801  1.00  0.00    -0.084 Cl
HETATM   36  C   UNL     1      42.638 -18.001   2.190  1.00  0.00     0.024 A 
HETATM   37  C   UNL     1      42.300 -16.858   2.921  1.00  0.00     0.016 A 
ENDBRANCH  28  31
ENDBRANCH  25  26
ENDBRANCH  21  24
ENDBRANCH   1  20
TORSDOF 7
ENDMDL
MODEL 7
REMARK VINA RESULT:      -7.3      5.945     10.296
REMARK  7 active torsions:
REMARK  status: ('A' for Active; 'I' for Inactive)
REMARK    1  A    between atoms: N_6  and  C_7 
REMARK    2  A    between atoms: C_11  and  N_12 
REMARK    3  A    between atoms: N_12  and  C_13 
REMARK    4  A    between atoms: C_13  and  N_14 
REMARK       I    between atoms: N_14  and  C_15 
REMARK    5  A    between atoms: C_15  and  C_16 
REMARK    6  A    between atoms: C_17  and  C_18 
REMARK    7  A    between atoms: C_20  and  C_21 
ROOT
HETATM    1  C   UNL     1      41.480  -8.309  10.750  1.00  0.00     0.179 C 
HETATM    2  S   UNL     1      40.572  -9.637  11.196  1.00  0.00    -0.040 SA
ENDROOT
BRANCH   1   3
HETATM    3  N   UNL     1      41.422  -7.242  11.608  1.00  0.00    -0.333 N 
HETATM    4  H   UNL     1      41.434  -6.363  11.094  1.00  0.00     0.168 HD
BRANCH   3   5
HETATM    5  C   UNL     1      41.482  -7.115  13.010  1.00  0.00     0.036 A 
HETATM    6  C   UNL     1      40.287  -6.779  13.650  1.00  0.00     0.055 A 
HETATM    7  C   UNL     1      40.249  -6.542  15.030  1.00  0.00     0.062 A 
HETATM    8  C   UNL     1      41.408  -6.646  15.831  1.00  0.00     0.052 A 
HETATM    9 CL   UNL     1      38.736  -5.987  15.680  1.00  0.00    -0.082 Cl
HETATM   10  C   UNL     1      42.595  -6.994  15.169  1.00  0.00     0.033 A 
HETATM   11  C   UNL     1      42.639  -7.215  13.781  1.00  0.00     0.032 A 
BRANCH   8  12
HETATM   12  N   UNL     1      41.393  -6.348  17.192  1.00  0.00    -0.376 N 
HETATM   13  C   UNL     1      41.740  -7.421  18.140  1.00  0.00     0.150 C 
HETATM   14  C   UNL     1      40.927  -7.218  19.437  1.00  0.00     0.254 C 
HETATM   15  N   UNL     1      41.167  -5.812  20.009  1.00  0.00    -0.072 N 
HETATM   16  C   UNL     1      40.359  -5.582  21.252  1.00  0.00     0.269 C 
HETATM   17  H   UNL     1      42.161  -5.756  20.262  1.00  0.00     0.279 HD
HETATM   18  C   UNL     1      40.904  -4.723  18.962  1.00  0.00     0.254 C 
HETATM   19  C   UNL     1      41.696  -4.991  17.662  1.00  0.00     0.150 C 
ENDBRANCH   8  12
ENDBRANCH   3   5
ENDBRANCH   1   3
BRANCH   1  20
HETATM   20  N   UNL     1      42.324  -8.190   9.662  1.00  0.00    -0.300 N 
HETATM   21  C   UNL     1      43.694  -8.218   9.446  1.00  0.00     0.247 C 
HETATM   22  O   UNL     1      44.155  -7.574   8.506  1.00  0.00    -0.268 OA
HETATM   23  H   UNL     1      41.911  -7.636   8.924  1.00  0.00     0.171 HD
BRANCH  21  24
HETATM   24  C   UNL     1      44.558  -9.001  10.358  1.00  0.00     0.077 C 
HETATM   25  C   UNL     1      45.296 -10.062   9.998  1.00  0.00     0.042 C 
BRANCH  25  26
HETATM   26  C   UNL     1      45.261 -10.658   8.713  1.00  0.00     0.076 A 
HETATM   27  O   UNL     1      44.336 -11.602   8.324  1.00  0.00    -0.310 OA
HETATM   28  C   UNL     1      44.607 -11.966   7.038  1.00  0.00     0.086 A 
HETATM   29  C   UNL     1      45.703 -11.272   6.578  1.00  0.00     0.041 A 
HETATM   30  C   UNL     1      46.135 -10.461   7.652  1.00  0.00     0.040 A 
BRANCH  28  31
HETATM   31  C   UNL     1      43.724 -12.961   6.450  1.00  0.00    -0.002 A 
HETATM   32  C   UNL     1      43.344 -14.096   7.181  1.00  0.00     0.016 A 
HETATM   33  C   UNL     1      42.480 -15.046   6.626  1.00  0.00     0.024 A 
HETATM   34  C   UNL     1      41.983 -14.858   5.338  1.00  0.00     0.034 A 
HETATM   35 CL   UNL     1      40.929 -16.029   4.647  1.00  0.00    -0.084 Cl
HETATM   36  C   UNL     1      42.340 -13.731   4.602  1.00  0.00     0.024 A 
HETATM   37  C   UNL     1      43.213 -12.790   5.154  1.00  0.00     0.016 A 
ENDBRANCH  28  31
ENDBRANCH  25  26
ENDBRANCH  21  24
ENDBRANCH   1  20
TORSDOF 7
ENDMDL
MODEL 8
REMARK VINA RESULT:      -7.3      4.534      9.057
REMARK  7 active torsions:
REMARK  status: ('A' for Active; 'I' for Inactive)
REMARK    1  A    between atoms: N_6  and  C_7 
REMARK    2  A    between atoms: C_11  and  N_12 
REMARK    3  A    between atoms: N_12  and  C_13 
REMARK    4  A    between atoms: C_13  and  N_14 
REMARK       I    between atoms: N_14  and  C_15 
REMARK    5  A    between atoms: C_15  and  C_16 
REMARK    6  A    between atoms: C_17  and  C_18 
REMARK    7  A    between atoms: C_20  and  C_21 
ROOT
HETATM    1  C   UNL     1      43.657 -10.309   8.538  1.00  0.00     0.179 C 
HETATM    2  S   UNL     1      42.779  -9.007   7.968  1.00  0.00    -0.040 SA
ENDROOT
BRANCH   1   3
HETATM    3  N   UNL     1      43.479 -10.603   9.865  1.00  0.00    -0.333 N 
HETATM    4  H   UNL     1      43.522 -11.608  10.021  1.00  0.00     0.168 HD
BRANCH   3   5
HETATM    5  C   UNL     1      43.129  -9.836  10.993  1.00  0.00     0.036 A 
HETATM    6  C   UNL     1      41.816  -9.976  11.451  1.00  0.00     0.055 A 
HETATM    7  C   UNL     1      41.335  -9.197  12.510  1.00  0.00     0.062 A 
HETATM    8  C   UNL     1      42.154  -8.252  13.167  1.00  0.00     0.052 A 
HETATM    9 CL   UNL     1      39.645  -9.358  12.885  1.00  0.00    -0.082 Cl
HETATM   10  C   UNL     1      43.471  -8.135  12.698  1.00  0.00     0.033 A 
HETATM   11  C   UNL     1      43.952  -8.904  11.622  1.00  0.00     0.032 A 
BRANCH   8  12
HETATM   12  N   UNL     1      41.665  -7.427  14.178  1.00  0.00    -0.376 N 
HETATM   13  C   UNL     1      40.848  -6.265  13.789  1.00  0.00     0.150 C 
HETATM   14  C   UNL     1      41.101  -5.122  14.796  1.00  0.00     0.254 C 
HETATM   15  N   UNL     1      40.824  -5.596  16.231  1.00  0.00    -0.072 N 
HETATM   16  C   UNL     1      41.097  -4.510  17.229  1.00  0.00     0.269 C 
HETATM   17  H   UNL     1      39.825  -5.831  16.282  1.00  0.00     0.279 HD
HETATM   18  C   UNL     1      41.606  -6.872  16.565  1.00  0.00     0.254 C 
HETATM   19  C   UNL     1      41.365  -7.973  15.507  1.00  0.00     0.150 C 
ENDBRANCH   8  12
ENDBRANCH   3   5
ENDBRANCH   1   3
BRANCH   1  20
HETATM   20  N   UNL     1      44.480 -11.153   7.817  1.00  0.00    -0.300 N 
HETATM   21  C   UNL     1      44.424 -11.811   6.597  1.00  0.00     0.247 C 
HETATM   22  O   UNL     1      45.035 -12.869   6.470  1.00  0.00    -0.268 OA
HETATM   23  H   UNL     1      45.099 -11.680   8.419  1.00  0.00     0.171 HD
BRANCH  21  24
HETATM   24  C   UNL     1      43.617 -11.236   5.497  1.00  0.00     0.077 C 
HETATM   25  C   UNL     1      42.644 -11.882   4.837  1.00  0.00     0.042 C 
BRANCH  25  26
HETATM   26  C   UNL     1      42.329 -13.251   5.021  1.00  0.00     0.076 A 
HETATM   27  O   UNL     1      42.861 -14.275   4.268  1.00  0.00    -0.310 OA
HETATM   28  C   UNL     1      42.328 -15.452   4.704  1.00  0.00     0.086 A 
HETATM   29  C   UNL     1      41.448 -15.211   5.736  1.00  0.00     0.041 A 
HETATM   30  C   UNL     1      41.429 -13.810   5.919  1.00  0.00     0.040 A 
BRANCH  28  31
HETATM   31  C   UNL     1      42.779 -16.655   4.024  1.00  0.00    -0.002 A 
HETATM   32  C   UNL     1      43.781 -17.457   4.587  1.00  0.00     0.016 A 
HETATM   33  C   UNL     1      44.206 -18.625   3.945  1.00  0.00     0.024 A 
HETATM   34  C   UNL     1      43.619 -19.002   2.739  1.00  0.00     0.034 A 
HETATM   35 CL   UNL     1      44.145 -20.432   1.940  1.00  0.00    -0.084 Cl
HETATM   36  C   UNL     1      42.614 -18.224   2.170  1.00  0.00     0.024 A 
HETATM   37  C   UNL     1      42.201 -17.051   2.808  1.00  0.00     0.016 A 
ENDBRANCH  28  31
ENDBRANCH  25  26
ENDBRANCH  21  24
ENDBRANCH   1  20
TORSDOF 7
ENDMDL
MODEL 9
REMARK VINA RESULT:      -7.2      2.952      5.072
REMARK  7 active torsions:
REMARK  status: ('A' for Active; 'I' for Inactive)
REMARK    1  A    between atoms: N_6  and  C_7 
REMARK    2  A    between atoms: C_11  and  N_12 
REMARK    3  A    between atoms: N_12  and  C_13 
REMARK    4  A    between atoms: C_13  and  N_14 
REMARK       I    between atoms: N_14  and  C_15 
REMARK    5  A    between atoms: C_15  and  C_16 
REMARK    6  A    between atoms: C_17  and  C_18 
REMARK    7  A    between atoms: C_20  and  C_21 
ROOT
HETATM    1  C   UNL     1      44.076 -11.033   7.997  1.00  0.00     0.179 C 
HETATM    2  S   UNL     1      45.678 -10.878   7.554  1.00  0.00    -0.040 SA
ENDROOT
BRANCH   1   3
HETATM    3  N   UNL     1      43.281 -11.704   7.105  1.00  0.00    -0.333 N 
HETATM    4  H   UNL     1      42.420 -11.188   6.928  1.00  0.00     0.168 HD
BRANCH   3   5
HETATM    5  C   UNL     1      43.349 -12.978   6.507  1.00  0.00     0.036 A 
HETATM    6  C   UNL     1      43.307 -13.006   5.111  1.00  0.00     0.055 A 
HETATM    7  C   UNL     1      43.279 -14.221   4.415  1.00  0.00     0.062 A 
HETATM    8  C   UNL     1      43.307 -15.462   5.089  1.00  0.00     0.052 A 
HETATM    9 CL   UNL     1      43.076 -14.122   2.692  1.00  0.00    -0.082 Cl
HETATM   10  C   UNL     1      43.359 -15.409   6.490  1.00  0.00     0.033 A 
HETATM   11  C   UNL     1      43.369 -14.191   7.192  1.00  0.00     0.032 A 
BRANCH   8  12
HETATM   12  N   UNL     1      43.214 -16.674   4.409  1.00  0.00    -0.376 N 
HETATM   13  C   UNL     1      43.730 -17.883   5.073  1.00  0.00     0.150 C 
HETATM   14  C   UNL     1      44.291 -18.838   3.998  1.00  0.00     0.254 C 
HETATM   15  N   UNL     1      43.221 -19.147   2.939  1.00  0.00    -0.072 N 
HETATM   16  C   UNL     1      43.757 -20.047   1.865  1.00  0.00     0.269 C 
HETATM   17  H   UNL     1      42.459 -19.643   3.418  1.00  0.00     0.279 HD
HETATM   18  C   UNL     1      42.626 -17.864   2.347  1.00  0.00     0.254 C 
HETATM   19  C   UNL     1      42.122 -16.914   3.458  1.00  0.00     0.150 C 
ENDBRANCH   8  12
ENDBRANCH   3   5
ENDBRANCH   1   3
BRANCH   1  20
HETATM   20  N   UNL     1      43.483 -10.623   9.176  1.00  0.00    -0.300 N 
HETATM   21  C   UNL     1      43.466  -9.468   9.944  1.00  0.00     0.247 C 
HETATM   22  O   UNL     1      43.299  -9.570  11.157  1.00  0.00    -0.268 OA
HETATM   23  H   UNL     1      43.295 -11.402   9.793  1.00  0.00     0.171 HD
BRANCH  21  24
HETATM   24  C   UNL     1      43.670  -8.156   9.289  1.00  0.00     0.077 C 
HETATM   25  C   UNL     1      42.813  -7.583   8.431  1.00  0.00     0.042 C 
BRANCH  25  26
HETATM   26  C   UNL     1      41.641  -8.209   7.937  1.00  0.00     0.076 A 
HETATM   27  O   UNL     1      41.640  -9.217   6.998  1.00  0.00    -0.310 OA
HETATM   28  C   UNL     1      40.347  -9.568   6.745  1.00  0.00     0.086 A 
HETATM   29  C   UNL     1      39.497  -8.800   7.508  1.00  0.00     0.041 A 
HETATM   30  C   UNL     1      40.319  -7.917   8.245  1.00  0.00     0.040 A 
BRANCH  28  31
HETATM   31  C   UNL     1      40.147 -10.631   5.772  1.00  0.00    -0.002 A 
HETATM   32  C   UNL     1      40.371 -10.398   4.408  1.00  0.00     0.016 A 
HETATM   33  C   UNL     1      40.197 -11.421   3.471  1.00  0.00     0.024 A 
HETATM   34  C   UNL     1      39.807 -12.689   3.898  1.00  0.00     0.034 A 
HETATM   35 CL   UNL     1      39.581 -13.949   2.748  1.00  0.00    -0.084 Cl
HETATM   36  C   UNL     1      39.590 -12.942   5.250  1.00  0.00     0.024 A 
HETATM   37  C   UNL     1      39.753 -11.914   6.182  1.00  0.00     0.016 A 
ENDBRANCH  28  31
ENDBRANCH  25  26
ENDBRANCH  21  24
ENDBRANCH   1  20
TORSDOF 7
ENDMDL
MODEL 10
REMARK VINA RESULT:      -7.1      4.267      8.487
REMARK  7 active torsions:
REMARK  status: ('A' for Active; 'I' for Inactive)
REMARK    1  A    between atoms: N_6  and  C_7 
REMARK    2  A    between atoms: C_11  and  N_12 
REMARK    3  A    between atoms: N_12  and  C_13 
REMARK    4  A    between atoms: C_13  and  N_14 
REMARK       I    between atoms: N_14  and  C_15 
REMARK    5  A    between atoms: C_15  and  C_16 
REMARK    6  A    between atoms: C_17  and  C_18 
REMARK    7  A    between atoms: C_20  and  C_21 
ROOT
HETATM    1  C   UNL     1      40.182 -10.794   6.532  1.00  0.00     0.179 C 
HETATM    2  S   UNL     1      38.600 -10.567   6.047  1.00  0.00    -0.040 SA
ENDROOT
BRANCH   1   3
HETATM    3  N   UNL     1      40.807  -9.685   7.038  1.00  0.00    -0.333 N 
HETATM    4  H   UNL     1      41.698  -9.527   6.571  1.00  0.00     0.168 HD
BRANCH   3   5
HETATM    5  C   UNL     1      40.540  -8.826   8.123  1.00  0.00     0.036 A 
HETATM    6  C   UNL     1      40.451  -9.430   9.379  1.00  0.00     0.055 A 
HETATM    7  C   UNL     1      40.104  -8.687  10.514  1.00  0.00     0.062 A 
HETATM    8  C   UNL     1      39.842  -7.301  10.440  1.00  0.00     0.052 A 
HETATM    9 CL   UNL     1      39.881  -9.581  11.988  1.00  0.00    -0.082 Cl
HETATM   10  C   UNL     1      39.947  -6.713   9.170  1.00  0.00     0.033 A 
HETATM   11  C   UNL     1      40.278  -7.461   8.026  1.00  0.00     0.032 A 
BRANCH   8  12
HETATM   12  N   UNL     1      39.432  -6.566  11.551  1.00  0.00    -0.376 N 
HETATM   13  C   UNL     1      40.441  -5.765  12.263  1.00  0.00     0.150 C 
HETATM   14  C   UNL     1      40.081  -5.734  13.764  1.00  0.00     0.254 C 
HETATM   15  N   UNL     1      38.651  -5.212  13.965  1.00  0.00    -0.072 N 
HETATM   16  C   UNL     1      38.267  -5.206  15.416  1.00  0.00     0.269 C 
HETATM   17  H   UNL     1      38.635  -4.241  13.630  1.00  0.00     0.279 HD
HETATM   18  C   UNL     1      37.638  -5.998  13.123  1.00  0.00     0.254 C 
HETATM   19  C   UNL     1      38.062  -6.047  11.637  1.00  0.00     0.150 C 
ENDBRANCH   8  12
ENDBRANCH   3   5
ENDBRANCH   1   3
BRANCH   1  20
HETATM   20  N   UNL     1      40.901 -11.974   6.542  1.00  0.00    -0.300 N 
HETATM   21  C   UNL     1      41.640 -12.708   5.626  1.00  0.00     0.247 C 
HETATM   22  O   UNL     1      41.707 -13.927   5.765  1.00  0.00    -0.268 OA
HETATM   23  H   UNL     1      40.557 -12.619   7.242  1.00  0.00     0.171 HD
BRANCH  21  24
HETATM   24  C   UNL     1      42.307 -12.010   4.504  1.00  0.00     0.077 C 
HETATM   25  C   UNL     1      43.475 -11.357   4.589  1.00  0.00     0.042 C 
BRANCH  25  26
HETATM   26  C   UNL     1      44.182 -11.142   5.799  1.00  0.00     0.076 A 
HETATM   27  O   UNL     1      43.643 -10.531   6.910  1.00  0.00    -0.310 OA
HETATM   28  C   UNL     1      44.602 -10.476   7.878  1.00  0.00     0.086 A 
HETATM   29  C   UNL     1      45.767 -11.043   7.413  1.00  0.00     0.041 A 
HETATM   30  C   UNL     1      45.508 -11.441   6.082  1.00  0.00     0.040 A 
BRANCH  28  31
HETATM   31  C   UNL     1      44.212  -9.863   9.138  1.00  0.00    -0.002 A 
HETATM   32  C   UNL     1      44.076 -10.641  10.296  1.00  0.00     0.016 A 
HETATM   33  C   UNL     1      43.719 -10.053  11.514  1.00  0.00     0.024 A 
HETATM   34  C   UNL     1      43.507  -8.678  11.580  1.00  0.00     0.034 A 
HETATM   35 CL   UNL     1      43.057  -7.951  13.073  1.00  0.00    -0.084 Cl
HETATM   36  C   UNL     1      43.648  -7.887  10.443  1.00  0.00     0.024 A 
HETATM   37  C   UNL     1      43.994  -8.479   9.225  1.00  0.00     0.016 A 
ENDBRANCH  28  31
ENDBRANCH  25  26
ENDBRANCH  21  24
ENDBRANCH   1  20
TORSDOF 7
ENDMDL
