MODEL 1
REMARK VINA RESULT:      -8.1      0.000      0.000
REMARK  4 active torsions:
REMARK  status: ('A' for Active; 'I' for Inactive)
REMARK    1  A    between atoms: N_2  and  C_3 
REMARK    2  A    between atoms: C_5  and  C_6 
REMARK    3  A    between atoms: C_6  and  C_7 
REMARK    4  A    between atoms: C_14  and  O_15 
ROOT
HETATM    1  C   UNL     1      38.773 -12.133  -0.267  1.00  0.00     0.113 A 
HETATM    2  N   UNL     1      39.877 -12.164   0.505  1.00  0.00    -0.223 NA
HETATM    3  C   UNL     1      40.774 -13.171   0.326  1.00  0.00     0.106 A 
HETATM    4  N   UNL     1      40.612 -14.146  -0.582  1.00  0.00    -0.347 N 
HETATM    5  H   UNL     1      41.299 -14.889  -0.674  1.00  0.00     0.167 HD
HETATM    6  C   UNL     1      39.534 -14.106  -1.360  1.00  0.00     0.020 A 
HETATM    7  C   UNL     1      38.593 -13.098  -1.231  1.00  0.00     0.005 A 
HETATM    8  C   UNL     1      37.486 -13.289  -2.217  1.00  0.00     0.044 C 
HETATM    9  C   UNL     1      38.134 -14.270  -3.212  1.00  0.00     0.011 C 
HETATM   10  C   UNL     1      39.166 -15.091  -2.423  1.00  0.00     0.058 C 
ENDROOT
BRANCH   3  11
HETATM   11  C   UNL     1      41.987 -13.195   1.215  1.00  0.00     0.085 C 
BRANCH  11  12
HETATM   12  C   UNL     1      41.980 -14.370   2.200  1.00  0.00     0.021 C 
HETATM   13  C   UNL     1      42.427 -13.980   3.612  1.00  0.00     0.181 C 
HETATM   14  O   UNL     1      42.250 -15.068   4.522  1.00  0.00    -0.350 OA
HETATM   15  C   UNL     1      42.815 -16.247   4.110  1.00  0.00     0.077 A 
HETATM   16  C   UNL     1      43.146 -16.507   2.776  1.00  0.00    -0.024 A 
HETATM   17  C   UNL     1      43.015 -17.213   5.100  1.00  0.00     0.074 A 
HETATM   18  C   UNL     1      42.920 -15.478   1.708  1.00  0.00     0.048 C 
HETATM   19  C   UNL     1      43.727 -17.737   2.451  1.00  0.00     0.012 A 
HETATM   20  C   UNL     1      43.943 -18.694   3.445  1.00  0.00     0.037 A 
HETATM   21  C   UNL     1      43.587 -18.441   4.771  1.00  0.00     0.070 A 
BRANCH  21  22
HETATM   22  O   UNL     1      43.849 -19.466   5.636  1.00  0.00    -0.356 OA
HETATM   23  C   UNL     1      44.021 -20.761   5.073  1.00  0.00     0.210 C 
ENDBRANCH  21  22
ENDBRANCH  11  12
ENDBRANCH   3  11
BRANCH   1  24
HETATM   24  N   UNL     1      37.864 -11.086  -0.159  1.00  0.00    -0.281 NA
HETATM   25  C   UNL     1      37.007 -11.093   1.018  1.00  0.00     0.114 C 
HETATM   26  H   UNL     1      37.326 -10.957  -1.012  1.00  0.00     0.128 HD
ENDBRANCH   1  24
TORSDOF 4
ENDMDL
MODEL 2
REMARK VINA RESULT:      -8.0      3.526      8.123
REMARK  4 active torsions:
REMARK  status: ('A' for Active; 'I' for Inactive)
REMARK    1  A    between atoms: N_2  and  C_3 
REMARK    2  A    between atoms: C_5  and  C_6 
REMARK    3  A    between atoms: C_6  and  C_7 
REMARK    4  A    between atoms: C_14  and  O_15 
ROOT
HETATM    1  C   UNL     1      41.982 -16.495   5.383  1.00  0.00     0.113 A 
HETATM    2  N   UNL     1      41.020 -15.974   4.597  1.00  0.00    -0.223 NA
HETATM    3  C   UNL     1      41.040 -16.248   3.264  1.00  0.00     0.106 A 
HETATM    4  N   UNL     1      41.981 -17.012   2.687  1.00  0.00    -0.347 N 
HETATM    5  H   UNL     1      41.969 -17.182   1.685  1.00  0.00     0.167 HD
HETATM    6  C   UNL     1      42.920 -17.546   3.464  1.00  0.00     0.020 A 
HETATM    7  C   UNL     1      42.941 -17.311   4.828  1.00  0.00     0.005 A 
HETATM    8  C   UNL     1      44.094 -18.021   5.462  1.00  0.00     0.044 C 
HETATM    9  C   UNL     1      44.460 -19.040   4.366  1.00  0.00     0.011 C 
HETATM   10  C   UNL     1      44.051 -18.417   3.022  1.00  0.00     0.058 C 
ENDROOT
BRANCH   3  11
HETATM   11  C   UNL     1      39.969 -15.636   2.406  1.00  0.00     0.085 C 
BRANCH  11  12
HETATM   12  C   UNL     1      40.521 -14.628   1.392  1.00  0.00     0.021 C 
HETATM   13  C   UNL     1      40.214 -13.172   1.756  1.00  0.00     0.181 C 
HETATM   14  O   UNL     1      40.885 -12.272   0.870  1.00  0.00    -0.350 OA
HETATM   15  C   UNL     1      40.672 -12.527  -0.460  1.00  0.00     0.077 A 
HETATM   16  C   UNL     1      40.226 -13.764  -0.937  1.00  0.00    -0.024 A 
HETATM   17  C   UNL     1      40.965 -11.482  -1.342  1.00  0.00     0.074 A 
HETATM   18  C   UNL     1      39.923 -14.892   0.004  1.00  0.00     0.048 C 
HETATM   19  C   UNL     1      40.030 -13.928  -2.312  1.00  0.00     0.012 A 
HETATM   20  C   UNL     1      40.305 -12.876  -3.190  1.00  0.00     0.037 A 
HETATM   21  C   UNL     1      40.777 -11.652  -2.712  1.00  0.00     0.070 A 
BRANCH  21  22
HETATM   22  O   UNL     1      41.010 -10.715  -3.680  1.00  0.00    -0.356 OA
HETATM   23  C   UNL     1      40.670  -9.368  -3.372  1.00  0.00     0.210 C 
ENDBRANCH  21  22
ENDBRANCH  11  12
ENDBRANCH   3  11
BRANCH   1  24
HETATM   24  N   UNL     1      41.959 -16.291   6.758  1.00  0.00    -0.281 NA
HETATM   25  C   UNL     1      42.683 -15.126   7.250  1.00  0.00     0.114 C 
HETATM   26  H   UNL     1      42.208 -17.130   7.274  1.00  0.00     0.128 HD
ENDBRANCH   1  24
TORSDOF 4
ENDMDL
MODEL 3
REMARK VINA RESULT:      -7.9      3.473      8.417
REMARK  4 active torsions:
REMARK  status: ('A' for Active; 'I' for Inactive)
REMARK    1  A    between atoms: N_2  and  C_3 
REMARK    2  A    between atoms: C_5  and  C_6 
REMARK    3  A    between atoms: C_6  and  C_7 
REMARK    4  A    between atoms: C_14  and  O_15 
ROOT
HETATM    1  C   UNL     1      43.000 -17.559   3.576  1.00  0.00     0.113 A 
HETATM    2  N   UNL     1      42.044 -17.025   2.791  1.00  0.00    -0.223 NA
HETATM    3  C   UNL     1      41.096 -16.232   3.359  1.00  0.00     0.106 A 
HETATM    4  N   UNL     1      41.060 -15.956   4.672  1.00  0.00    -0.347 N 
HETATM    5  H   UNL     1      40.326 -15.370   5.060  1.00  0.00     0.167 HD
HETATM    6  C   UNL     1      42.015 -16.464   5.446  1.00  0.00     0.020 A 
HETATM    7  C   UNL     1      43.012 -17.268   4.921  1.00  0.00     0.005 A 
HETATM    8  C   UNL     1      43.951 -17.708   5.999  1.00  0.00     0.044 C 
HETATM    9  C   UNL     1      43.621 -16.698   7.115  1.00  0.00     0.011 C 
HETATM   10  C   UNL     1      42.154 -16.284   6.924  1.00  0.00     0.058 C 
ENDROOT
BRANCH   3  11
HETATM   11  C   UNL     1      40.029 -15.666   2.464  1.00  0.00     0.085 C 
BRANCH  11  12
HETATM   12  C   UNL     1      40.580 -14.676   1.431  1.00  0.00     0.021 C 
HETATM   13  C   UNL     1      40.331 -13.211   1.801  1.00  0.00     0.181 C 
HETATM   14  O   UNL     1      41.001 -12.334   0.893  1.00  0.00    -0.350 OA
HETATM   15  C   UNL     1      40.738 -12.583  -0.429  1.00  0.00     0.077 A 
HETATM   16  C   UNL     1      40.238 -13.805  -0.889  1.00  0.00    -0.024 A 
HETATM   17  C   UNL     1      41.036 -11.549  -1.321  1.00  0.00     0.074 A 
HETATM   18  C   UNL     1      39.930 -14.923   0.063  1.00  0.00     0.048 C 
HETATM   19  C   UNL     1      39.994 -13.964  -2.257  1.00  0.00     0.012 A 
HETATM   20  C   UNL     1      40.274 -12.923  -3.145  1.00  0.00     0.037 A 
HETATM   21  C   UNL     1      40.799 -11.714  -2.685  1.00  0.00     0.070 A 
BRANCH  21  22
HETATM   22  O   UNL     1      41.030 -10.786  -3.661  1.00  0.00    -0.356 OA
HETATM   23  C   UNL     1      40.514  -9.478  -3.447  1.00  0.00     0.210 C 
ENDBRANCH  21  22
ENDBRANCH  11  12
ENDBRANCH   3  11
BRANCH   1  24
HETATM   24  N   UNL     1      44.023 -18.323   3.025  1.00  0.00    -0.281 NA
HETATM   25  C   UNL     1      43.665 -19.667   2.592  1.00  0.00     0.114 C 
HETATM   26  H   UNL     1      44.855 -18.328   3.609  1.00  0.00     0.128 HD
ENDBRANCH   1  24
TORSDOF 4
ENDMDL
MODEL 4
REMARK VINA RESULT:      -7.7      3.934      6.631
REMARK  4 active torsions:
REMARK  status: ('A' for Active; 'I' for Inactive)
REMARK    1  A    between atoms: N_2  and  C_3 
REMARK    2  A    between atoms: C_5  and  C_6 
REMARK    3  A    between atoms: C_6  and  C_7 
REMARK    4  A    between atoms: C_14  and  O_15 
ROOT
HETATM    1  C   UNL     1      42.128 -10.604   6.667  1.00  0.00     0.113 A 
HETATM    2  N   UNL     1      41.844 -11.065   5.433  1.00  0.00    -0.223 NA
HETATM    3  C   UNL     1      42.864 -11.487   4.639  1.00  0.00     0.106 A 
HETATM    4  N   UNL     1      44.150 -11.463   5.022  1.00  0.00    -0.347 N 
HETATM    5  H   UNL     1      44.885 -11.775   4.393  1.00  0.00     0.167 HD
HETATM    6  C   UNL     1      44.432 -11.030   6.247  1.00  0.00     0.020 A 
HETATM    7  C   UNL     1      43.434 -10.599   7.103  1.00  0.00     0.005 A 
HETATM    8  C   UNL     1      44.017 -10.163   8.409  1.00  0.00     0.044 C 
HETATM    9  C   UNL     1      45.412 -10.813   8.348  1.00  0.00     0.011 C 
HETATM   10  C   UNL     1      45.790 -10.920   6.862  1.00  0.00     0.058 C 
ENDROOT
BRANCH   3  11
HETATM   11  C   UNL     1      42.522 -11.976   3.259  1.00  0.00     0.085 C 
BRANCH  11  12
HETATM   12  C   UNL     1      43.067 -13.380   2.972  1.00  0.00     0.021 C 
HETATM   13  C   UNL     1      42.361 -14.078   1.806  1.00  0.00     0.181 C 
HETATM   14  O   UNL     1      43.010 -15.309   1.480  1.00  0.00    -0.350 OA
HETATM   15  C   UNL     1      43.196 -16.150   2.547  1.00  0.00     0.077 A 
HETATM   16  C   UNL     1      43.170 -15.711   3.875  1.00  0.00    -0.024 A 
HETATM   17  C   UNL     1      43.456 -17.488   2.239  1.00  0.00     0.074 A 
HETATM   18  C   UNL     1      42.906 -14.273   4.210  1.00  0.00     0.048 C 
HETATM   19  C   UNL     1      43.363 -16.644   4.899  1.00  0.00     0.012 A 
HETATM   20  C   UNL     1      43.603 -17.985   4.590  1.00  0.00     0.037 A 
HETATM   21  C   UNL     1      43.655 -18.414   3.262  1.00  0.00     0.070 A 
BRANCH  21  22
HETATM   22  O   UNL     1      43.904 -19.748   3.104  1.00  0.00    -0.356 OA
HETATM   23  C   UNL     1      43.394 -20.367   1.928  1.00  0.00     0.210 C 
ENDBRANCH  21  22
ENDBRANCH  11  12
ENDBRANCH   3  11
BRANCH   1  24
HETATM   24  N   UNL     1      41.109 -10.223   7.532  1.00  0.00    -0.281 NA
HETATM   25  C   UNL     1      39.749 -10.354   7.026  1.00  0.00     0.114 C 
HETATM   26  H   UNL     1      41.271  -9.303   7.933  1.00  0.00     0.128 HD
ENDBRANCH   1  24
TORSDOF 4
ENDMDL
MODEL 5
REMARK VINA RESULT:      -7.5      1.734      2.120
REMARK  4 active torsions:
REMARK  status: ('A' for Active; 'I' for Inactive)
REMARK    1  A    between atoms: N_2  and  C_3 
REMARK    2  A    between atoms: C_5  and  C_6 
REMARK    3  A    between atoms: C_6  and  C_7 
REMARK    4  A    between atoms: C_14  and  O_15 
ROOT
HETATM    1  C   UNL     1      40.986 -11.543   0.047  1.00  0.00     0.113 A 
HETATM    2  N   UNL     1      40.582 -11.887   1.286  1.00  0.00    -0.223 NA
HETATM    3  C   UNL     1      39.811 -12.997   1.440  1.00  0.00     0.106 A 
HETATM    4  N   UNL     1      39.423 -13.770   0.413  1.00  0.00    -0.347 N 
HETATM    5  H   UNL     1      38.835 -14.584   0.569  1.00  0.00     0.167 HD
HETATM    6  C   UNL     1      39.838 -13.446  -0.808  1.00  0.00     0.020 A 
HETATM    7  C   UNL     1      40.635 -12.334  -1.024  1.00  0.00     0.005 A 
HETATM    8  C   UNL     1      40.954 -12.195  -2.478  1.00  0.00     0.044 C 
HETATM    9  C   UNL     1      40.614 -13.604  -2.997  1.00  0.00     0.011 C 
HETATM   10  C   UNL     1      39.518 -14.167  -2.078  1.00  0.00     0.058 C 
ENDROOT
BRANCH   3  11
HETATM   11  C   UNL     1      39.356 -13.346   2.829  1.00  0.00     0.085 C 
BRANCH  11  12
HETATM   12  C   UNL     1      40.227 -14.422   3.488  1.00  0.00     0.021 C 
HETATM   13  C   UNL     1      41.444 -13.852   4.224  1.00  0.00     0.181 C 
HETATM   14  O   UNL     1      42.127 -14.875   4.950  1.00  0.00    -0.350 OA
HETATM   15  C   UNL     1      42.448 -15.980   4.203  1.00  0.00     0.077 A 
HETATM   16  C   UNL     1      41.814 -16.293   2.996  1.00  0.00    -0.024 A 
HETATM   17  C   UNL     1      43.433 -16.817   4.734  1.00  0.00     0.074 A 
HETATM   18  C   UNL     1      40.747 -15.404   2.430  1.00  0.00     0.048 C 
HETATM   19  C   UNL     1      42.214 -17.438   2.300  1.00  0.00     0.012 A 
HETATM   20  C   UNL     1      43.212 -18.264   2.823  1.00  0.00     0.037 A 
HETATM   21  C   UNL     1      43.823 -17.962   4.041  1.00  0.00     0.070 A 
BRANCH  21  22
HETATM   22  O   UNL     1      44.777 -18.858   4.436  1.00  0.00    -0.356 OA
HETATM   23  C   UNL     1      44.323 -20.125   4.897  1.00  0.00     0.210 C 
ENDBRANCH  21  22
ENDBRANCH  11  12
ENDBRANCH   3  11
BRANCH   1  24
HETATM   24  N   UNL     1      41.827 -10.453  -0.146  1.00  0.00    -0.281 NA
HETATM   25  C   UNL     1      41.200  -9.139  -0.108  1.00  0.00     0.114 C 
HETATM   26  H   UNL     1      42.414 -10.563  -0.968  1.00  0.00     0.128 HD
ENDBRANCH   1  24
TORSDOF 4
ENDMDL
MODEL 6
REMARK VINA RESULT:      -7.3      5.434      6.766
REMARK  4 active torsions:
REMARK  status: ('A' for Active; 'I' for Inactive)
REMARK    1  A    between atoms: N_2  and  C_3 
REMARK    2  A    between atoms: C_5  and  C_6 
REMARK    3  A    between atoms: C_6  and  C_7 
REMARK    4  A    between atoms: C_14  and  O_15 
ROOT
HETATM    1  C   UNL     1      44.163 -11.645   6.784  1.00  0.00     0.113 A 
HETATM    2  N   UNL     1      44.249 -12.923   7.203  1.00  0.00    -0.223 NA
HETATM    3  C   UNL     1      43.137 -13.705   7.153  1.00  0.00     0.106 A 
HETATM    4  N   UNL     1      41.949 -13.265   6.709  1.00  0.00    -0.347 N 
HETATM    5  H   UNL     1      41.138 -13.878   6.701  1.00  0.00     0.167 HD
HETATM    6  C   UNL     1      41.867 -12.010   6.275  1.00  0.00     0.020 A 
HETATM    7  C   UNL     1      42.968 -11.172   6.291  1.00  0.00     0.005 A 
HETATM    8  C   UNL     1      42.607  -9.824   5.755  1.00  0.00     0.044 C 
HETATM    9  C   UNL     1      41.287 -10.135   5.024  1.00  0.00     0.011 C 
HETATM   10  C   UNL     1      40.645 -11.328   5.749  1.00  0.00     0.058 C 
ENDROOT
BRANCH   3  11
HETATM   11  C   UNL     1      43.254 -15.120   7.647  1.00  0.00     0.085 C 
BRANCH  11  12
HETATM   12  C   UNL     1      43.725 -16.093   6.560  1.00  0.00     0.021 C 
HETATM   13  C   UNL     1      43.077 -15.839   5.195  1.00  0.00     0.181 C 
HETATM   14  O   UNL     1      43.667 -16.664   4.188  1.00  0.00    -0.350 OA
HETATM   15  C   UNL     1      43.702 -17.998   4.501  1.00  0.00     0.077 A 
HETATM   16  C   UNL     1      43.591 -18.477   5.810  1.00  0.00    -0.024 A 
HETATM   17  C   UNL     1      43.896 -18.876   3.431  1.00  0.00     0.074 A 
HETATM   18  C   UNL     1      43.397 -17.537   6.964  1.00  0.00     0.048 C 
HETATM   19  C   UNL     1      43.630 -19.857   6.032  1.00  0.00     0.012 A 
HETATM   20  C   UNL     1      43.805 -20.734   4.959  1.00  0.00     0.037 A 
HETATM   21  C   UNL     1      43.943 -20.251   3.656  1.00  0.00     0.070 A 
BRANCH  21  22
HETATM   22  O   UNL     1      44.113 -21.218   2.706  1.00  0.00    -0.356 OA
HETATM   23  C   UNL     1      43.797 -20.869   1.363  1.00  0.00     0.210 C 
ENDBRANCH  21  22
ENDBRANCH  11  12
ENDBRANCH   3  11
BRANCH   1  24
HETATM   24  N   UNL     1      45.291 -10.832   6.759  1.00  0.00    -0.281 NA
HETATM   25  C   UNL     1      45.630 -10.160   8.006  1.00  0.00     0.114 C 
HETATM   26  H   UNL     1      45.279 -10.183   5.977  1.00  0.00     0.128 HD
ENDBRANCH   1  24
TORSDOF 4
ENDMDL
MODEL 7
REMARK VINA RESULT:      -7.1      3.671      5.355
REMARK  4 active torsions:
REMARK  status: ('A' for Active; 'I' for Inactive)
REMARK    1  A    between atoms: N_2  and  C_3 
REMARK    2  A    between atoms: C_5  and  C_6 
REMARK    3  A    between atoms: C_6  and  C_7 
REMARK    4  A    between atoms: C_14  and  O_15 
ROOT
HETATM    1  C   UNL     1      40.043 -13.827   1.084  1.00  0.00     0.113 A 
HETATM    2  N   UNL     1      40.603 -12.768   1.702  1.00  0.00    -0.223 NA
HETATM    3  C   UNL     1      41.120 -11.764   0.945  1.00  0.00     0.106 A 
HETATM    4  N   UNL     1      41.108 -11.775  -0.397  1.00  0.00    -0.347 N 
HETATM    5  H   UNL     1      41.518 -11.011  -0.927  1.00  0.00     0.167 HD
HETATM    6  C   UNL     1      40.537 -12.809  -1.011  1.00  0.00     0.020 A 
HETATM    7  C   UNL     1      39.983 -13.854  -0.291  1.00  0.00     0.005 A 
HETATM    8  C   UNL     1      39.414 -14.881  -1.216  1.00  0.00     0.044 C 
HETATM    9  C   UNL     1      39.318 -14.082  -2.530  1.00  0.00     0.011 C 
HETATM   10  C   UNL     1      40.422 -13.015  -2.487  1.00  0.00     0.058 C 
ENDROOT
BRANCH   3  11
HETATM   11  C   UNL     1      41.758 -10.605   1.659  1.00  0.00     0.085 C 
BRANCH  11  12
HETATM   12  C   UNL     1      41.883 -10.833   3.171  1.00  0.00     0.021 C 
HETATM   13  C   UNL     1      41.548  -9.590   4.001  1.00  0.00     0.181 C 
HETATM   14  O   UNL     1      41.524  -9.900   5.396  1.00  0.00    -0.350 OA
HETATM   15  C   UNL     1      42.649 -10.537   5.852  1.00  0.00     0.077 A 
HETATM   16  C   UNL     1      43.537 -11.213   5.009  1.00  0.00    -0.024 A 
HETATM   17  C   UNL     1      42.852 -10.513   7.235  1.00  0.00     0.074 A 
HETATM   18  C   UNL     1      43.315 -11.253   3.526  1.00  0.00     0.048 C 
HETATM   19  C   UNL     1      44.663 -11.827   5.565  1.00  0.00     0.012 A 
HETATM   20  C   UNL     1      44.874 -11.786   6.945  1.00  0.00     0.037 A 
HETATM   21  C   UNL     1      43.971 -11.134   7.787  1.00  0.00     0.070 A 
BRANCH  21  22
HETATM   22  O   UNL     1      44.298 -11.176   9.114  1.00  0.00    -0.356 OA
HETATM   23  C   UNL     1      45.057 -10.088   9.628  1.00  0.00     0.210 C 
ENDBRANCH  21  22
ENDBRANCH  11  12
ENDBRANCH   3  11
BRANCH   1  24
HETATM   24  N   UNL     1      39.447 -14.843   1.821  1.00  0.00    -0.281 NA
HETATM   25  C   UNL     1      40.348 -15.801   2.448  1.00  0.00     0.114 C 
HETATM   26  H   UNL     1      38.708 -15.311   1.302  1.00  0.00     0.128 HD
ENDBRANCH   1  24
TORSDOF 4
ENDMDL
MODEL 8
REMARK VINA RESULT:      -7.0      4.769      7.535
REMARK  4 active torsions:
REMARK  status: ('A' for Active; 'I' for Inactive)
REMARK    1  A    between atoms: N_2  and  C_3 
REMARK    2  A    between atoms: C_5  and  C_6 
REMARK    3  A    between atoms: C_6  and  C_7 
REMARK    4  A    between atoms: C_14  and  O_15 
ROOT
HETATM    1  C   UNL     1      43.959 -10.875   7.691  1.00  0.00     0.113 A 
HETATM    2  N   UNL     1      43.365 -11.740   6.845  1.00  0.00    -0.223 NA
HETATM    3  C   UNL     1      42.168 -11.402   6.295  1.00  0.00     0.106 A 
HETATM    4  N   UNL     1      41.540 -10.245   6.558  1.00  0.00    -0.347 N 
HETATM    5  H   UNL     1      40.638 -10.036   6.137  1.00  0.00     0.167 HD
HETATM    6  C   UNL     1      42.134  -9.380   7.376  1.00  0.00     0.020 A 
HETATM    7  C   UNL     1      43.358  -9.665   7.955  1.00  0.00     0.005 A 
HETATM    8  C   UNL     1      43.799  -8.535   8.828  1.00  0.00     0.044 C 
HETATM    9  C   UNL     1      42.892  -7.395   8.325  1.00  0.00     0.011 C 
HETATM   10  C   UNL     1      41.605  -8.048   7.799  1.00  0.00     0.058 C 
ENDROOT
BRANCH   3  11
HETATM   11  C   UNL     1      41.516 -12.393   5.371  1.00  0.00     0.085 C 
BRANCH  11  12
HETATM   12  C   UNL     1      42.409 -13.604   5.071  1.00  0.00     0.021 C 
HETATM   13  C   UNL     1      42.275 -14.114   3.634  1.00  0.00     0.181 C 
HETATM   14  O   UNL     1      43.240 -15.134   3.362  1.00  0.00    -0.350 OA
HETATM   15  C   UNL     1      43.250 -16.158   4.274  1.00  0.00     0.077 A 
HETATM   16  C   UNL     1      42.711 -16.039   5.559  1.00  0.00    -0.024 A 
HETATM   17  C   UNL     1      43.871 -17.341   3.864  1.00  0.00     0.074 A 
HETATM   18  C   UNL     1      42.055 -14.766   6.008  1.00  0.00     0.048 C 
HETATM   19  C   UNL     1      42.761 -17.141   6.418  1.00  0.00     0.012 A 
HETATM   20  C   UNL     1      43.365 -18.329   6.000  1.00  0.00     0.037 A 
HETATM   21  C   UNL     1      43.926 -18.435   4.726  1.00  0.00     0.070 A 
BRANCH  21  22
HETATM   22  O   UNL     1      44.489 -19.650   4.451  1.00  0.00    -0.356 OA
HETATM   23  C   UNL     1      44.232 -20.705   5.371  1.00  0.00     0.210 C 
ENDBRANCH  21  22
ENDBRANCH  11  12
ENDBRANCH   3  11
BRANCH   1  24
HETATM   24  N   UNL     1      45.212 -11.155   8.224  1.00  0.00    -0.281 NA
HETATM   25  C   UNL     1      46.360 -10.785   7.407  1.00  0.00     0.114 C 
HETATM   26  H   UNL     1      45.282 -12.115   8.553  1.00  0.00     0.128 HD
ENDBRANCH   1  24
TORSDOF 4
ENDMDL
MODEL 9
REMARK VINA RESULT:      -6.9      8.488     11.366
REMARK  4 active torsions:
REMARK  status: ('A' for Active; 'I' for Inactive)
REMARK    1  A    between atoms: N_2  and  C_3 
REMARK    2  A    between atoms: C_5  and  C_6 
REMARK    3  A    between atoms: C_6  and  C_7 
REMARK    4  A    between atoms: C_14  and  O_15 
ROOT
HETATM    1  C   UNL     1      41.596  -9.738  12.465  1.00  0.00     0.113 A 
HETATM    2  N   UNL     1      42.112  -9.708  11.220  1.00  0.00    -0.223 NA
HETATM    3  C   UNL     1      42.868  -8.639  10.850  1.00  0.00     0.106 A 
HETATM    4  N   UNL     1      43.123  -7.603  11.664  1.00  0.00    -0.347 N 
HETATM    5  H   UNL     1      43.682  -6.816  11.344  1.00  0.00     0.167 HD
HETATM    6  C   UNL     1      42.633  -7.641  12.900  1.00  0.00     0.020 A 
HETATM    7  C   UNL     1      41.867  -8.708  13.336  1.00  0.00     0.005 A 
HETATM    8  C   UNL     1      41.442  -8.501  14.754  1.00  0.00     0.044 C 
HETATM    9  C   UNL     1      42.425  -7.405  15.207  1.00  0.00     0.011 C 
HETATM   10  C   UNL     1      42.797  -6.595  13.955  1.00  0.00     0.058 C 
ENDROOT
BRANCH   3  11
HETATM   11  C   UNL     1      43.413  -8.619   9.449  1.00  0.00     0.085 C 
BRANCH  11  12
HETATM   12  C   UNL     1      43.260  -9.965   8.731  1.00  0.00     0.021 C 
HETATM   13  C   UNL     1      44.595 -10.672   8.477  1.00  0.00     0.181 C 
HETATM   14  O   UNL     1      44.385 -11.986   7.954  1.00  0.00    -0.350 OA
HETATM   15  C   UNL     1      43.561 -12.032   6.859  1.00  0.00     0.077 A 
HETATM   16  C   UNL     1      42.666 -11.007   6.535  1.00  0.00    -0.024 A 
HETATM   17  C   UNL     1      43.630 -13.194   6.085  1.00  0.00     0.074 A 
HETATM   18  C   UNL     1      42.579  -9.764   7.370  1.00  0.00     0.048 C 
HETATM   19  C   UNL     1      41.871 -11.139   5.393  1.00  0.00     0.012 A 
HETATM   20  C   UNL     1      41.954 -12.293   4.610  1.00  0.00     0.037 A 
HETATM   21  C   UNL     1      42.829 -13.326   4.952  1.00  0.00     0.070 A 
BRANCH  21  22
HETATM   22  O   UNL     1      42.804 -14.397   4.103  1.00  0.00    -0.356 OA
HETATM   23  C   UNL     1      43.153 -15.664   4.649  1.00  0.00     0.210 C 
ENDBRANCH  21  22
ENDBRANCH  11  12
ENDBRANCH   3  11
BRANCH   1  24
HETATM   24  N   UNL     1      40.871 -10.841  12.902  1.00  0.00    -0.281 NA
HETATM   25  C   UNL     1      39.421 -10.733  12.826  1.00  0.00     0.114 C 
HETATM   26  H   UNL     1      41.174 -11.159  13.819  1.00  0.00     0.128 HD
ENDBRANCH   1  24
TORSDOF 4
ENDMDL
MODEL 10
REMARK VINA RESULT:      -6.9      3.587      8.119
REMARK  4 active torsions:
REMARK  status: ('A' for Active; 'I' for Inactive)
REMARK    1  A    between atoms: N_2  and  C_3 
REMARK    2  A    between atoms: C_5  and  C_6 
REMARK    3  A    between atoms: C_6  and  C_7 
REMARK    4  A    between atoms: C_14  and  O_15 
ROOT
HETATM    1  C   UNL     1      42.664 -17.005   3.775  1.00  0.00     0.113 A 
HETATM    2  N   UNL     1      41.974 -16.807   2.634  1.00  0.00    -0.223 NA
HETATM    3  C   UNL     1      40.725 -16.273   2.707  1.00  0.00     0.106 A 
HETATM    4  N   UNL     1      40.138 -15.936   3.866  1.00  0.00    -0.347 N 
HETATM    5  H   UNL     1      39.196 -15.552   3.878  1.00  0.00     0.167 HD
HETATM    6  C   UNL     1      40.825 -16.109   4.991  1.00  0.00     0.020 A 
HETATM    7  C   UNL     1      42.104 -16.637   4.977  1.00  0.00     0.005 A 
HETATM    8  C   UNL     1      42.647 -16.729   6.367  1.00  0.00     0.044 C 
HETATM    9  C   UNL     1      41.697 -15.782   7.124  1.00  0.00     0.011 C 
HETATM   10  C   UNL     1      40.355 -15.803   6.377  1.00  0.00     0.058 C 
ENDROOT
BRANCH   3  11
HETATM   11  C   UNL     1      39.968 -16.084   1.422  1.00  0.00     0.085 C 
BRANCH  11  12
HETATM   12  C   UNL     1      39.847 -14.611   1.014  1.00  0.00     0.021 C 
HETATM   13  C   UNL     1      39.981 -14.386  -0.495  1.00  0.00     0.181 C 
HETATM   14  O   UNL     1      39.702 -13.027  -0.836  1.00  0.00    -0.350 OA
HETATM   15  C   UNL     1      40.414 -12.105  -0.112  1.00  0.00     0.077 A 
HETATM   16  C   UNL     1      41.017 -12.402   1.115  1.00  0.00    -0.024 A 
HETATM   17  C   UNL     1      40.480 -10.817  -0.651  1.00  0.00     0.074 A 
HETATM   18  C   UNL     1      40.937 -13.779   1.703  1.00  0.00     0.048 C 
HETATM   19  C   UNL     1      41.731 -11.398   1.777  1.00  0.00     0.012 A 
HETATM   20  C   UNL     1      41.811 -10.116   1.229  1.00  0.00     0.037 A 
HETATM   21  C   UNL     1      41.185  -9.817   0.017  1.00  0.00     0.070 A 
BRANCH  21  22
HETATM   22  O   UNL     1      41.341  -8.525  -0.400  1.00  0.00    -0.356 OA
HETATM   23  C   UNL     1      42.493  -8.231  -1.181  1.00  0.00     0.210 C 
ENDBRANCH  21  22
ENDBRANCH  11  12
ENDBRANCH   3  11
BRANCH   1  24
HETATM   24  N   UNL     1      43.967 -17.489   3.738  1.00  0.00    -0.281 NA
HETATM   25  C   UNL     1      44.121 -18.906   3.439  1.00  0.00     0.114 C 
HETATM   26  H   UNL     1      44.498 -17.221   4.563  1.00  0.00     0.128 HD
ENDBRANCH   1  24
TORSDOF 4
ENDMDL
