MODEL 1
REMARK VINA RESULT:      -8.5      0.000      0.000
REMARK  9 active torsions:
REMARK  status: ('A' for Active; 'I' for Inactive)
REMARK    1  A    between atoms: C_5  and  N_6 
REMARK       I    between atoms: N_6  and  C_7 
REMARK    2  A    between atoms: C_7  and  C_8 
REMARK    3  A    between atoms: C_8  and  S_9 
REMARK    4  A    between atoms: S_9  and  C_10 
REMARK    5  A    between atoms: C_11  and  C_12 
REMARK       I    between atoms: C_12  and  N_13 
REMARK    6  A    between atoms: N_13  and  C_14 
REMARK    7  A    between atoms: C_14  and  C_15 
REMARK    8  A    between atoms: C_15  and  N_16 
REMARK    9  A    between atoms: C_15  and  C_22 
ROOT
HETATM    1  C   UNL     1      40.646 -14.633   3.584  1.00  0.00     0.016 A 
HETATM    2  C   UNL     1      41.424 -13.747   2.795  1.00  0.00     0.048 A 
HETATM    3  C   UNL     1      41.462 -13.885   1.394  1.00  0.00     0.018 A 
HETATM    4  C   UNL     1      40.786 -14.924   0.764  1.00  0.00     0.001 A 
HETATM    5  C   UNL     1      40.067 -15.832   1.528  1.00  0.00     0.001 A 
HETATM    6  C   UNL     1      39.997 -15.686   2.919  1.00  0.00     0.019 A 
ENDROOT
BRANCH   2   7
HETATM    7  C   UNL     1      42.341 -12.698   3.338  1.00  0.00     0.253 C 
HETATM    8  N   UNL     1      41.728 -11.626   3.933  1.00  0.00    -0.354 N 
HETATM    9  H   UNL     1      40.722 -11.534   3.816  1.00  0.00     0.162 HD
HETATM   10  O   UNL     1      43.557 -12.856   3.408  1.00  0.00    -0.268 OA
BRANCH   8  11
HETATM   11  C   UNL     1      42.438 -10.569   4.618  1.00  0.00     0.161 C 
BRANCH  11  12
HETATM   12  C   UNL     1      42.404 -10.594   6.178  1.00  0.00     0.245 C 
BRANCH  12  13
HETATM   13  N   UNL     1      41.336  -9.676   6.773  1.00  0.00    -0.061 N 
HETATM   14  H   UNL     1      41.692  -9.425   7.708  1.00  0.00     0.280 HD
HETATM   15  C   UNL     1      39.953 -10.220   7.071  1.00  0.00     0.236 C 
HETATM   16  C   UNL     1      39.034  -9.481   6.119  1.00  0.00     0.029 C 
HETATM   17  C   UNL     1      39.658  -8.102   6.068  1.00  0.00     0.029 C 
HETATM   18  C   UNL     1      41.139  -8.403   5.969  1.00  0.00     0.236 C 
ENDBRANCH  12  13
BRANCH  12  19
HETATM   19  C   UNL     1      43.769 -10.575   6.846  1.00  0.00     0.015 A 
HETATM   20  S   UNL     1      44.082  -9.715   8.302  1.00  0.00    -0.104 SA
HETATM   21  C   UNL     1      45.721 -10.177   8.328  1.00  0.00     0.050 A 
HETATM   22  C   UNL     1      46.050 -10.950   7.241  1.00  0.00     0.008 A 
HETATM   23  C   UNL     1      44.932 -11.178   6.388  1.00  0.00     0.017 A 
ENDBRANCH  12  19
ENDBRANCH  11  12
ENDBRANCH   8  11
ENDBRANCH   2   7
BRANCH   1  24
HETATM   24  S   UNL     1      40.504 -14.406   5.372  1.00  0.00    -0.120 SA
BRANCH  24  25
HETATM   25  C   UNL     1      41.587 -15.669   6.143  1.00  0.00     0.182 C 
BRANCH  25  26
HETATM   26  C   UNL     1      43.069 -15.337   6.017  1.00  0.00     0.231 C 
HETATM   27  N   UNL     1      43.935 -16.216   5.430  1.00  0.00    -0.327 N 
HETATM   28  H   UNL     1      44.894 -16.031   5.708  1.00  0.00     0.169 HD
HETATM   29  O   UNL     1      43.567 -14.362   6.586  1.00  0.00    -0.272 OA
BRANCH  27  30
HETATM   30  C   UNL     1      43.766 -17.237   4.484  1.00  0.00     0.034 A 
HETATM   31  C   UNL     1      43.305 -17.027   3.186  1.00  0.00     0.030 A 
HETATM   32  C   UNL     1      43.232 -18.094   2.280  1.00  0.00     0.009 A 
HETATM   33  C   UNL     1      43.622 -19.382   2.660  1.00  0.00    -0.062 A 
HETATM   34  C   UNL     1      43.592 -20.518   1.680  1.00  0.00     0.048 C 
HETATM   35  C   UNL     1      44.117 -19.583   3.951  1.00  0.00     0.009 A 
HETATM   36  C   UNL     1      44.198 -18.517   4.850  1.00  0.00     0.030 A 
ENDBRANCH  27  30
ENDBRANCH  25  26
ENDBRANCH  24  25
ENDBRANCH   1  24
TORSDOF 9
ENDMDL
MODEL 2
REMARK VINA RESULT:      -8.2      2.399      4.506
REMARK  9 active torsions:
REMARK  status: ('A' for Active; 'I' for Inactive)
REMARK    1  A    between atoms: C_5  and  N_6 
REMARK       I    between atoms: N_6  and  C_7 
REMARK    2  A    between atoms: C_7  and  C_8 
REMARK    3  A    between atoms: C_8  and  S_9 
REMARK    4  A    between atoms: S_9  and  C_10 
REMARK    5  A    between atoms: C_11  and  C_12 
REMARK       I    between atoms: C_12  and  N_13 
REMARK    6  A    between atoms: N_13  and  C_14 
REMARK    7  A    between atoms: C_14  and  C_15 
REMARK    8  A    between atoms: C_15  and  N_16 
REMARK    9  A    between atoms: C_15  and  C_22 
ROOT
HETATM    1  C   UNL     1      41.251 -14.197   5.735  1.00  0.00     0.016 A 
HETATM    2  C   UNL     1      42.618 -13.863   5.920  1.00  0.00     0.048 A 
HETATM    3  C   UNL     1      43.585 -14.875   6.073  1.00  0.00     0.018 A 
HETATM    4  C   UNL     1      43.213 -16.215   6.102  1.00  0.00     0.001 A 
HETATM    5  C   UNL     1      41.873 -16.553   5.978  1.00  0.00     0.001 A 
HETATM    6  C   UNL     1      40.906 -15.557   5.796  1.00  0.00     0.019 A 
ENDROOT
BRANCH   2   7
HETATM    7  C   UNL     1      43.144 -12.474   6.090  1.00  0.00     0.253 C 
HETATM    8  N   UNL     1      43.124 -11.985   7.371  1.00  0.00    -0.354 N 
HETATM    9  H   UNL     1      42.609 -12.516   8.069  1.00  0.00     0.162 HD
HETATM   10  O   UNL     1      43.717 -11.870   5.187  1.00  0.00    -0.268 OA
BRANCH   8  11
HETATM   11  C   UNL     1      43.694 -10.714   7.758  1.00  0.00     0.161 C 
BRANCH  11  12
HETATM   12  C   UNL     1      42.696  -9.608   8.223  1.00  0.00     0.245 C 
BRANCH  12  13
HETATM   13  N   UNL     1      42.370  -9.678   9.715  1.00  0.00    -0.061 N 
HETATM   14  H   UNL     1      41.519 -10.258   9.775  1.00  0.00     0.280 HD
HETATM   15  C   UNL     1      41.975  -8.419  10.462  1.00  0.00     0.236 C 
HETATM   16  C   UNL     1      43.099  -8.189  11.451  1.00  0.00     0.029 C 
HETATM   17  C   UNL     1      43.478  -9.600  11.850  1.00  0.00     0.029 C 
HETATM   18  C   UNL     1      43.468 -10.340  10.528  1.00  0.00     0.236 C 
ENDBRANCH  12  13
BRANCH  12  19
HETATM   19  C   UNL     1      41.529  -9.364   7.280  1.00  0.00     0.015 A 
HETATM   20  S   UNL     1      39.897  -9.690   7.713  1.00  0.00    -0.104 SA
HETATM   21  C   UNL     1      39.302  -9.194   6.197  1.00  0.00     0.050 A 
HETATM   22  C   UNL     1      40.315  -8.809   5.352  1.00  0.00     0.008 A 
HETATM   23  C   UNL     1      41.594  -8.908   5.971  1.00  0.00     0.017 A 
ENDBRANCH  12  19
ENDBRANCH  11  12
ENDBRANCH   8  11
ENDBRANCH   2   7
BRANCH   1  24
HETATM   24  S   UNL     1      40.012 -12.914   5.435  1.00  0.00    -0.120 SA
BRANCH  24  25
HETATM   25  C   UNL     1      40.449 -12.136   3.833  1.00  0.00     0.182 C 
BRANCH  25  26
HETATM   26  C   UNL     1      39.605 -12.651   2.673  1.00  0.00     0.231 C 
HETATM   27  N   UNL     1      40.086 -13.616   1.833  1.00  0.00    -0.327 N 
HETATM   28  H   UNL     1      39.586 -13.618   0.948  1.00  0.00     0.169 HD
HETATM   29  O   UNL     1      38.548 -12.104   2.345  1.00  0.00    -0.272 OA
BRANCH  27  30
HETATM   30  C   UNL     1      41.047 -14.625   1.987  1.00  0.00     0.034 A 
HETATM   31  C   UNL     1      42.416 -14.386   2.099  1.00  0.00     0.030 A 
HETATM   32  C   UNL     1      43.303 -15.448   2.322  1.00  0.00     0.009 A 
HETATM   33  C   UNL     1      42.832 -16.760   2.438  1.00  0.00    -0.062 A 
HETATM   34  C   UNL     1      43.771 -17.894   2.726  1.00  0.00     0.048 C 
HETATM   35  C   UNL     1      41.456 -16.992   2.360  1.00  0.00     0.009 A 
HETATM   36  C   UNL     1      40.573 -15.932   2.148  1.00  0.00     0.030 A 
ENDBRANCH  27  30
ENDBRANCH  25  26
ENDBRANCH  24  25
ENDBRANCH   1  24
TORSDOF 9
ENDMDL
MODEL 3
REMARK VINA RESULT:      -8.1      1.503      3.222
REMARK  9 active torsions:
REMARK  status: ('A' for Active; 'I' for Inactive)
REMARK    1  A    between atoms: C_5  and  N_6 
REMARK       I    between atoms: N_6  and  C_7 
REMARK    2  A    between atoms: C_7  and  C_8 
REMARK    3  A    between atoms: C_8  and  S_9 
REMARK    4  A    between atoms: S_9  and  C_10 
REMARK    5  A    between atoms: C_11  and  C_12 
REMARK       I    between atoms: C_12  and  N_13 
REMARK    6  A    between atoms: N_13  and  C_14 
REMARK    7  A    between atoms: C_14  and  C_15 
REMARK    8  A    between atoms: C_15  and  N_16 
REMARK    9  A    between atoms: C_15  and  C_22 
ROOT
HETATM    1  C   UNL     1      41.019 -15.038   4.236  1.00  0.00     0.016 A 
HETATM    2  C   UNL     1      41.968 -14.142   3.680  1.00  0.00     0.048 A 
HETATM    3  C   UNL     1      42.237 -14.155   2.297  1.00  0.00     0.018 A 
HETATM    4  C   UNL     1      41.621 -15.082   1.462  1.00  0.00     0.001 A 
HETATM    5  C   UNL     1      40.733 -16.001   2.002  1.00  0.00     0.001 A 
HETATM    6  C   UNL     1      40.435 -15.978   3.370  1.00  0.00     0.019 A 
ENDROOT
BRANCH   2   7
HETATM    7  C   UNL     1      42.836 -13.216   4.470  1.00  0.00     0.253 C 
HETATM    8  N   UNL     1      42.517 -11.885   4.381  1.00  0.00    -0.354 N 
HETATM    9  H   UNL     1      41.842 -11.610   3.671  1.00  0.00     0.162 HD
HETATM   10  O   UNL     1      43.667 -13.618   5.280  1.00  0.00    -0.268 OA
BRANCH   8  11
HETATM   11  C   UNL     1      43.159 -10.849   5.157  1.00  0.00     0.161 C 
BRANCH  11  12
HETATM   12  C   UNL     1      42.270 -10.087   6.188  1.00  0.00     0.245 C 
BRANCH  12  13
HETATM   13  N   UNL     1      42.619 -10.411   7.641  1.00  0.00    -0.061 N 
HETATM   14  H   UNL     1      41.903 -11.089   7.943  1.00  0.00     0.280 HD
HETATM   15  C   UNL     1      42.530  -9.329   8.699  1.00  0.00     0.236 C 
HETATM   16  C   UNL     1      43.959  -9.116   9.155  1.00  0.00     0.029 C 
HETATM   17  C   UNL     1      44.533 -10.517   9.097  1.00  0.00     0.029 C 
HETATM   18  C   UNL     1      43.988 -11.052   7.789  1.00  0.00     0.236 C 
ENDBRANCH  12  13
BRANCH  12  19
HETATM   19  C   UNL     1      40.792 -10.032   5.838  1.00  0.00     0.015 A 
HETATM   20  S   UNL     1      39.634 -11.110   6.512  1.00  0.00    -0.104 SA
HETATM   21  C   UNL     1      38.348 -10.418   5.637  1.00  0.00     0.050 A 
HETATM   22  C   UNL     1      38.777  -9.401   4.819  1.00  0.00     0.008 A 
HETATM   23  C   UNL     1      40.180  -9.179   4.931  1.00  0.00     0.017 A 
ENDBRANCH  12  19
ENDBRANCH  11  12
ENDBRANCH   8  11
ENDBRANCH   2   7
BRANCH   1  24
HETATM   24  S   UNL     1      40.586 -14.965   5.990  1.00  0.00    -0.120 SA
BRANCH  24  25
HETATM   25  C   UNL     1      41.297 -16.468   6.763  1.00  0.00     0.182 C 
BRANCH  25  26
HETATM   26  C   UNL     1      42.759 -16.298   7.159  1.00  0.00     0.231 C 
HETATM   27  N   UNL     1      43.713 -17.162   6.700  1.00  0.00    -0.327 N 
HETATM   28  H   UNL     1      44.543 -17.141   7.286  1.00  0.00     0.169 HD
HETATM   29  O   UNL     1      43.106 -15.499   8.033  1.00  0.00    -0.272 OA
BRANCH  27  30
HETATM   30  C   UNL     1      43.794 -17.981   5.565  1.00  0.00     0.034 A 
HETATM   31  C   UNL     1      43.873 -19.371   5.611  1.00  0.00     0.030 A 
HETATM   32  C   UNL     1      43.879 -20.118   4.425  1.00  0.00     0.009 A 
HETATM   33  C   UNL     1      43.804 -19.485   3.181  1.00  0.00    -0.062 A 
HETATM   34  C   UNL     1      43.761 -20.283   1.910  1.00  0.00     0.048 C 
HETATM   35  C   UNL     1      43.690 -18.093   3.138  1.00  0.00     0.009 A 
HETATM   36  C   UNL     1      43.674 -17.350   4.321  1.00  0.00     0.030 A 
ENDBRANCH  27  30
ENDBRANCH  25  26
ENDBRANCH  24  25
ENDBRANCH   1  24
TORSDOF 9
ENDMDL
MODEL 4
REMARK VINA RESULT:      -8.1      2.371      5.599
REMARK  9 active torsions:
REMARK  status: ('A' for Active; 'I' for Inactive)
REMARK    1  A    between atoms: C_5  and  N_6 
REMARK       I    between atoms: N_6  and  C_7 
REMARK    2  A    between atoms: C_7  and  C_8 
REMARK    3  A    between atoms: C_8  and  S_9 
REMARK    4  A    between atoms: S_9  and  C_10 
REMARK    5  A    between atoms: C_11  and  C_12 
REMARK       I    between atoms: C_12  and  N_13 
REMARK    6  A    between atoms: N_13  and  C_14 
REMARK    7  A    between atoms: C_14  and  C_15 
REMARK    8  A    between atoms: C_15  and  N_16 
REMARK    9  A    between atoms: C_15  and  C_22 
ROOT
HETATM    1  C   UNL     1      42.299 -17.211   3.369  1.00  0.00     0.016 A 
HETATM    2  C   UNL     1      43.231 -17.225   4.438  1.00  0.00     0.048 A 
HETATM    3  C   UNL     1      44.330 -18.105   4.417  1.00  0.00     0.018 A 
HETATM    4  C   UNL     1      44.490 -19.016   3.378  1.00  0.00     0.001 A 
HETATM    5  C   UNL     1      43.556 -19.053   2.353  1.00  0.00     0.001 A 
HETATM    6  C   UNL     1      42.476 -18.161   2.349  1.00  0.00     0.019 A 
ENDROOT
BRANCH   2   7
HETATM    7  C   UNL     1      43.096 -16.436   5.702  1.00  0.00     0.253 C 
HETATM    8  N   UNL     1      43.256 -15.080   5.574  1.00  0.00    -0.354 N 
HETATM    9  H   UNL     1      43.615 -14.730   4.689  1.00  0.00     0.162 HD
HETATM   10  O   UNL     1      42.698 -16.934   6.752  1.00  0.00    -0.268 OA
BRANCH   8  11
HETATM   11  C   UNL     1      43.049 -14.139   6.651  1.00  0.00     0.161 C 
BRANCH  11  12
HETATM   12  C   UNL     1      42.804 -12.651   6.249  1.00  0.00     0.245 C 
BRANCH  12  13
HETATM   13  N   UNL     1      42.503 -12.470   4.761  1.00  0.00    -0.061 N 
HETATM   14  H   UNL     1      42.816 -13.347   4.317  1.00  0.00     0.280 HD
HETATM   15  C   UNL     1      43.235 -11.407   3.966  1.00  0.00     0.236 C 
HETATM   16  C   UNL     1      42.162 -10.414   3.569  1.00  0.00     0.029 C 
HETATM   17  C   UNL     1      40.966 -11.309   3.319  1.00  0.00     0.029 C 
HETATM   18  C   UNL     1      41.023 -12.283   4.477  1.00  0.00     0.236 C 
ENDBRANCH  12  13
BRANCH  12  19
HETATM   19  C   UNL     1      43.764 -11.654   6.877  1.00  0.00     0.015 A 
HETATM   20  S   UNL     1      43.243 -10.174   7.579  1.00  0.00    -0.104 SA
HETATM   21  C   UNL     1      44.828  -9.704   7.985  1.00  0.00     0.050 A 
HETATM   22  C   UNL     1      45.755 -10.632   7.576  1.00  0.00     0.008 A 
HETATM   23  C   UNL     1      45.147 -11.752   6.938  1.00  0.00     0.017 A 
ENDBRANCH  12  19
ENDBRANCH  11  12
ENDBRANCH   8  11
ENDBRANCH   2   7
BRANCH   1  24
HETATM   24  S   UNL     1      40.943 -16.016   3.332  1.00  0.00    -0.120 SA
BRANCH  24  25
HETATM   25  C   UNL     1      40.734 -15.523   1.578  1.00  0.00     0.182 C 
BRANCH  25  26
HETATM   26  C   UNL     1      41.527 -14.274   1.213  1.00  0.00     0.231 C 
HETATM   27  N   UNL     1      41.199 -13.534   0.112  1.00  0.00    -0.327 N 
HETATM   28  H   UNL     1      41.979 -12.959  -0.192  1.00  0.00     0.169 HD
HETATM   29  O   UNL     1      42.583 -13.986   1.783  1.00  0.00    -0.272 OA
BRANCH  27  30
HETATM   30  C   UNL     1      40.005 -13.362  -0.603  1.00  0.00     0.034 A 
HETATM   31  C   UNL     1      39.050 -12.393  -0.302  1.00  0.00     0.030 A 
HETATM   32  C   UNL     1      37.916 -12.242  -1.112  1.00  0.00     0.009 A 
HETATM   33  C   UNL     1      37.726 -13.056  -2.234  1.00  0.00    -0.062 A 
HETATM   34  C   UNL     1      36.539 -12.866  -3.132  1.00  0.00     0.048 C 
HETATM   35  C   UNL     1      38.702 -14.003  -2.553  1.00  0.00     0.009 A 
HETATM   36  C   UNL     1      39.836 -14.146  -1.751  1.00  0.00     0.030 A 
ENDBRANCH  27  30
ENDBRANCH  25  26
ENDBRANCH  24  25
ENDBRANCH   1  24
TORSDOF 9
ENDMDL
MODEL 5
REMARK VINA RESULT:      -8.0      3.256      9.094
REMARK  9 active torsions:
REMARK  status: ('A' for Active; 'I' for Inactive)
REMARK    1  A    between atoms: C_5  and  N_6 
REMARK       I    between atoms: N_6  and  C_7 
REMARK    2  A    between atoms: C_7  and  C_8 
REMARK    3  A    between atoms: C_8  and  S_9 
REMARK    4  A    between atoms: S_9  and  C_10 
REMARK    5  A    between atoms: C_11  and  C_12 
REMARK       I    between atoms: C_12  and  N_13 
REMARK    6  A    between atoms: N_13  and  C_14 
REMARK    7  A    between atoms: C_14  and  C_15 
REMARK    8  A    between atoms: C_15  and  N_16 
REMARK    9  A    between atoms: C_15  and  C_22 
ROOT
HETATM    1  C   UNL     1      43.350  -9.559   7.640  1.00  0.00     0.016 A 
HETATM    2  C   UNL     1      44.388 -10.518   7.519  1.00  0.00     0.048 A 
HETATM    3  C   UNL     1      45.562 -10.401   8.288  1.00  0.00     0.018 A 
HETATM    4  C   UNL     1      45.750  -9.314   9.136  1.00  0.00     0.001 A 
HETATM    5  C   UNL     1      44.768  -8.339   9.223  1.00  0.00     0.001 A 
HETATM    6  C   UNL     1      43.583  -8.461   8.486  1.00  0.00     0.019 A 
ENDROOT
BRANCH   2   7
HETATM    7  C   UNL     1      44.409 -11.636   6.526  1.00  0.00     0.253 C 
HETATM    8  N   UNL     1      43.937 -12.840   6.979  1.00  0.00    -0.354 N 
HETATM    9  H   UNL     1      43.771 -12.935   7.979  1.00  0.00     0.162 HD
HETATM   10  O   UNL     1      44.664 -11.459   5.337  1.00  0.00    -0.268 OA
BRANCH   8  11
HETATM   11  C   UNL     1      43.767 -14.007   6.143  1.00  0.00     0.161 C 
BRANCH  11  12
HETATM   12  C   UNL     1      42.324 -14.590   6.031  1.00  0.00     0.245 C 
BRANCH  12  13
HETATM   13  N   UNL     1      42.289 -16.012   5.473  1.00  0.00    -0.061 N 
HETATM   14  H   UNL     1      41.294 -16.197   5.274  1.00  0.00     0.280 HD
HETATM   15  C   UNL     1      42.682 -17.181   6.355  1.00  0.00     0.236 C 
HETATM   16  C   UNL     1      43.945 -17.733   5.727  1.00  0.00     0.029 C 
HETATM   17  C   UNL     1      43.682 -17.546   4.247  1.00  0.00     0.029 C 
HETATM   18  C   UNL     1      43.078 -16.159   4.183  1.00  0.00     0.236 C 
ENDBRANCH  12  13
BRANCH  12  19
HETATM   19  C   UNL     1      41.284 -13.620   5.494  1.00  0.00     0.015 A 
HETATM   20  S   UNL     1      41.485 -12.762   4.018  1.00  0.00    -0.104 SA
HETATM   21  C   UNL     1      39.992 -11.960   4.177  1.00  0.00     0.050 A 
HETATM   22  C   UNL     1      39.349 -12.305   5.341  1.00  0.00     0.008 A 
HETATM   23  C   UNL     1      40.090 -13.257   6.100  1.00  0.00     0.017 A 
ENDBRANCH  12  19
ENDBRANCH  11  12
ENDBRANCH   8  11
ENDBRANCH   2   7
BRANCH   1  24
HETATM   24  S   UNL     1      41.795  -9.751   6.739  1.00  0.00    -0.120 SA
BRANCH  24  25
HETATM   25  C   UNL     1      40.532  -8.808   7.675  1.00  0.00     0.182 C 
BRANCH  25  26
HETATM   26  C   UNL     1      39.715  -9.683   8.618  1.00  0.00     0.231 C 
HETATM   27  N   UNL     1      40.129  -9.905   9.901  1.00  0.00    -0.327 N 
HETATM   28  H   UNL     1      39.697 -10.739  10.290  1.00  0.00     0.169 HD
HETATM   29  O   UNL     1      38.761 -10.356   8.217  1.00  0.00    -0.272 OA
BRANCH  27  30
HETATM   30  C   UNL     1      40.942  -9.178  10.782  1.00  0.00     0.034 A 
HETATM   31  C   UNL     1      40.699  -7.859  11.158  1.00  0.00     0.030 A 
HETATM   32  C   UNL     1      41.524  -7.228  12.100  1.00  0.00     0.009 A 
HETATM   33  C   UNL     1      42.598  -7.911  12.679  1.00  0.00    -0.062 A 
HETATM   34  C   UNL     1      43.454  -7.257  13.724  1.00  0.00     0.048 C 
HETATM   35  C   UNL     1      42.818  -9.245  12.327  1.00  0.00     0.009 A 
HETATM   36  C   UNL     1      41.990  -9.875  11.396  1.00  0.00     0.030 A 
ENDBRANCH  27  30
ENDBRANCH  25  26
ENDBRANCH  24  25
ENDBRANCH   1  24
TORSDOF 9
ENDMDL
MODEL 6
REMARK VINA RESULT:      -8.0      2.711      7.034
REMARK  9 active torsions:
REMARK  status: ('A' for Active; 'I' for Inactive)
REMARK    1  A    between atoms: C_5  and  N_6 
REMARK       I    between atoms: N_6  and  C_7 
REMARK    2  A    between atoms: C_7  and  C_8 
REMARK    3  A    between atoms: C_8  and  S_9 
REMARK    4  A    between atoms: S_9  and  C_10 
REMARK    5  A    between atoms: C_11  and  C_12 
REMARK       I    between atoms: C_12  and  N_13 
REMARK    6  A    between atoms: N_13  and  C_14 
REMARK    7  A    between atoms: C_14  and  C_15 
REMARK    8  A    between atoms: C_15  and  N_16 
REMARK    9  A    between atoms: C_15  and  C_22 
ROOT
HETATM    1  C   UNL     1      42.503 -16.698   4.396  1.00  0.00     0.016 A 
HETATM    2  C   UNL     1      42.109 -16.915   3.051  1.00  0.00     0.048 A 
HETATM    3  C   UNL     1      42.730 -17.915   2.277  1.00  0.00     0.018 A 
HETATM    4  C   UNL     1      43.778 -18.667   2.799  1.00  0.00     0.001 A 
HETATM    5  C   UNL     1      44.211 -18.427   4.094  1.00  0.00     0.001 A 
HETATM    6  C   UNL     1      43.580 -17.457   4.883  1.00  0.00     0.019 A 
ENDROOT
BRANCH   2   7
HETATM    7  C   UNL     1      41.129 -16.072   2.299  1.00  0.00     0.253 C 
HETATM    8  N   UNL     1      41.656 -15.308   1.290  1.00  0.00    -0.354 N 
HETATM    9  H   UNL     1      42.670 -15.235   1.235  1.00  0.00     0.162 HD
HETATM   10  O   UNL     1      39.914 -16.179   2.448  1.00  0.00    -0.268 OA
BRANCH   8  11
HETATM   11  C   UNL     1      40.861 -14.518   0.377  1.00  0.00     0.161 C 
BRANCH  11  12
HETATM   12  C   UNL     1      41.029 -12.969   0.456  1.00  0.00     0.245 C 
BRANCH  12  13
HETATM   13  N   UNL     1      40.733 -12.399   1.844  1.00  0.00    -0.061 N 
HETATM   14  H   UNL     1      41.391 -12.881   2.476  1.00  0.00     0.280 HD
HETATM   15  C   UNL     1      39.388 -12.656   2.495  1.00  0.00     0.236 C 
HETATM   16  C   UNL     1      38.735 -11.292   2.583  1.00  0.00     0.029 C 
HETATM   17  C   UNL     1      39.913 -10.384   2.873  1.00  0.00     0.029 C 
HETATM   18  C   UNL     1      40.980 -10.904   1.932  1.00  0.00     0.236 C 
ENDBRANCH  12  13
BRANCH  12  19
HETATM   19  C   UNL     1      40.463 -12.204  -0.730  1.00  0.00     0.015 A 
HETATM   20  S   UNL     1      38.799 -12.248  -1.159  1.00  0.00    -0.104 SA
HETATM   21  C   UNL     1      39.024 -11.221  -2.497  1.00  0.00     0.050 A 
HETATM   22  C   UNL     1      40.342 -10.861  -2.648  1.00  0.00     0.008 A 
HETATM   23  C   UNL     1      41.170 -11.426  -1.636  1.00  0.00     0.017 A 
ENDBRANCH  12  19
ENDBRANCH  11  12
ENDBRANCH   8  11
ENDBRANCH   2   7
BRANCH   1  24
HETATM   24  S   UNL     1      41.646 -15.490   5.433  1.00  0.00    -0.120 SA
BRANCH  24  25
HETATM   25  C   UNL     1      42.885 -14.213   5.876  1.00  0.00     0.182 C 
BRANCH  25  26
HETATM   26  C   UNL     1      43.102 -13.186   4.770  1.00  0.00     0.231 C 
HETATM   27  N   UNL     1      43.314 -11.870   5.070  1.00  0.00    -0.327 N 
HETATM   28  H   UNL     1      43.109 -11.272   4.275  1.00  0.00     0.169 HD
HETATM   29  O   UNL     1      42.920 -13.464   3.581  1.00  0.00    -0.272 OA
BRANCH  27  30
HETATM   30  C   UNL     1      43.826 -11.218   6.201  1.00  0.00     0.034 A 
HETATM   31  C   UNL     1      43.038 -10.574   7.152  1.00  0.00     0.030 A 
HETATM   32  C   UNL     1      43.626 -10.007   8.291  1.00  0.00     0.009 A 
HETATM   33  C   UNL     1      45.008 -10.081   8.494  1.00  0.00    -0.062 A 
HETATM   34  C   UNL     1      45.637  -9.520   9.736  1.00  0.00     0.048 C 
HETATM   35  C   UNL     1      45.792 -10.759   7.557  1.00  0.00     0.009 A 
HETATM   36  C   UNL     1      45.203 -11.331   6.427  1.00  0.00     0.030 A 
ENDBRANCH  27  30
ENDBRANCH  25  26
ENDBRANCH  24  25
ENDBRANCH   1  24
TORSDOF 9
ENDMDL
MODEL 7
REMARK VINA RESULT:      -8.0      3.331      9.145
REMARK  9 active torsions:
REMARK  status: ('A' for Active; 'I' for Inactive)
REMARK    1  A    between atoms: C_5  and  N_6 
REMARK       I    between atoms: N_6  and  C_7 
REMARK    2  A    between atoms: C_7  and  C_8 
REMARK    3  A    between atoms: C_8  and  S_9 
REMARK    4  A    between atoms: S_9  and  C_10 
REMARK    5  A    between atoms: C_11  and  C_12 
REMARK       I    between atoms: C_12  and  N_13 
REMARK    6  A    between atoms: N_13  and  C_14 
REMARK    7  A    between atoms: C_14  and  C_15 
REMARK    8  A    between atoms: C_15  and  N_16 
REMARK    9  A    between atoms: C_15  and  C_22 
ROOT
HETATM    1  C   UNL     1      43.095  -9.183   7.492  1.00  0.00     0.016 A 
HETATM    2  C   UNL     1      43.637 -10.450   7.157  1.00  0.00     0.048 A 
HETATM    3  C   UNL     1      44.816 -10.909   7.776  1.00  0.00     0.018 A 
HETATM    4  C   UNL     1      45.500 -10.106   8.683  1.00  0.00     0.001 A 
HETATM    5  C   UNL     1      45.012  -8.842   8.978  1.00  0.00     0.001 A 
HETATM    6  C   UNL     1      43.824  -8.388   8.392  1.00  0.00     0.019 A 
ENDROOT
BRANCH   2   7
HETATM    7  C   UNL     1      43.119 -11.345   6.076  1.00  0.00     0.253 C 
HETATM    8  N   UNL     1      42.064 -12.148   6.428  1.00  0.00    -0.354 N 
HETATM    9  H   UNL     1      41.825 -12.206   7.415  1.00  0.00     0.162 HD
HETATM   10  O   UNL     1      43.486 -11.252   4.908  1.00  0.00    -0.268 OA
BRANCH   8  11
HETATM   11  C   UNL     1      41.350 -12.994   5.498  1.00  0.00     0.161 C 
BRANCH  11  12
HETATM   12  C   UNL     1      41.836 -14.472   5.375  1.00  0.00     0.245 C 
BRANCH  12  13
HETATM   13  N   UNL     1      42.704 -14.921   6.551  1.00  0.00    -0.061 N 
HETATM   14  H   UNL     1      42.547 -14.214   7.284  1.00  0.00     0.280 HD
HETATM   15  C   UNL     1      44.214 -14.938   6.413  1.00  0.00     0.236 C 
HETATM   16  C   UNL     1      44.594 -16.401   6.502  1.00  0.00     0.029 C 
HETATM   17  C   UNL     1      43.603 -16.936   7.515  1.00  0.00     0.029 C 
HETATM   18  C   UNL     1      42.303 -16.282   7.094  1.00  0.00     0.236 C 
ENDBRANCH  12  13
BRANCH  12  19
HETATM   19  C   UNL     1      42.305 -14.877   3.987  1.00  0.00     0.015 A 
HETATM   20  S   UNL     1      42.130 -16.473   3.373  1.00  0.00    -0.104 SA
HETATM   21  C   UNL     1      42.876 -16.081   1.893  1.00  0.00     0.050 A 
HETATM   22  C   UNL     1      43.283 -14.769   1.859  1.00  0.00     0.008 A 
HETATM   23  C   UNL     1      42.958 -14.076   3.061  1.00  0.00     0.017 A 
ENDBRANCH  12  19
ENDBRANCH  11  12
ENDBRANCH   8  11
ENDBRANCH   2   7
BRANCH   1  24
HETATM   24  S   UNL     1      41.528  -8.624   6.783  1.00  0.00    -0.120 SA
BRANCH  24  25
HETATM   25  C   UNL     1      40.459  -8.152   8.196  1.00  0.00     0.182 C 
BRANCH  25  26
HETATM   26  C   UNL     1      39.805  -9.350   8.874  1.00  0.00     0.231 C 
HETATM   27  N   UNL     1      40.311  -9.857  10.038  1.00  0.00    -0.327 N 
HETATM   28  H   UNL     1      40.005 -10.814  10.188  1.00  0.00     0.169 HD
HETATM   29  O   UNL     1      38.922 -10.009   8.318  1.00  0.00    -0.272 OA
BRANCH  27  30
HETATM   30  C   UNL     1      41.075  -9.296  11.072  1.00  0.00     0.034 A 
HETATM   31  C   UNL     1      42.385  -9.669  11.362  1.00  0.00     0.030 A 
HETATM   32  C   UNL     1      43.102  -9.008  12.368  1.00  0.00     0.009 A 
HETATM   33  C   UNL     1      42.519  -7.964  13.094  1.00  0.00    -0.062 A 
HETATM   34  C   UNL     1      43.298  -7.220  14.138  1.00  0.00     0.048 C 
HETATM   35  C   UNL     1      41.217  -7.568  12.777  1.00  0.00     0.009 A 
HETATM   36  C   UNL     1      40.507  -8.222  11.767  1.00  0.00     0.030 A 
ENDBRANCH  27  30
ENDBRANCH  25  26
ENDBRANCH  24  25
ENDBRANCH   1  24
TORSDOF 9
ENDMDL
MODEL 8
REMARK VINA RESULT:      -8.0      2.710      4.362
REMARK  9 active torsions:
REMARK  status: ('A' for Active; 'I' for Inactive)
REMARK    1  A    between atoms: C_5  and  N_6 
REMARK       I    between atoms: N_6  and  C_7 
REMARK    2  A    between atoms: C_7  and  C_8 
REMARK    3  A    between atoms: C_8  and  S_9 
REMARK    4  A    between atoms: S_9  and  C_10 
REMARK    5  A    between atoms: C_11  and  C_12 
REMARK       I    between atoms: C_12  and  N_13 
REMARK    6  A    between atoms: N_13  and  C_14 
REMARK    7  A    between atoms: C_14  and  C_15 
REMARK    8  A    between atoms: C_15  and  N_16 
REMARK    9  A    between atoms: C_15  and  C_22 
ROOT
HETATM    1  C   UNL     1      41.205 -13.945   6.010  1.00  0.00     0.016 A 
HETATM    2  C   UNL     1      42.590 -13.674   6.152  1.00  0.00     0.048 A 
HETATM    3  C   UNL     1      43.513 -14.728   6.303  1.00  0.00     0.018 A 
HETATM    4  C   UNL     1      43.078 -16.047   6.373  1.00  0.00     0.001 A 
HETATM    5  C   UNL     1      41.721 -16.323   6.292  1.00  0.00     0.001 A 
HETATM    6  C   UNL     1      40.798 -15.286   6.111  1.00  0.00     0.019 A 
ENDROOT
BRANCH   2   7
HETATM    7  C   UNL     1      43.187 -12.308   6.276  1.00  0.00     0.253 C 
HETATM    8  N   UNL     1      43.020 -11.697   7.492  1.00  0.00    -0.354 N 
HETATM    9  H   UNL     1      42.373 -12.126   8.150  1.00  0.00     0.162 HD
HETATM   10  O   UNL     1      43.925 -11.829   5.419  1.00  0.00    -0.268 OA
BRANCH   8  11
HETATM   11  C   UNL     1      43.619 -10.430   7.847  1.00  0.00     0.161 C 
BRANCH  11  12
HETATM   12  C   UNL     1      42.709  -9.406   8.594  1.00  0.00     0.245 C 
BRANCH  12  13
HETATM   13  N   UNL     1      42.959  -7.957   8.173  1.00  0.00    -0.061 N 
HETATM   14  H   UNL     1      43.638  -8.018   7.399  1.00  0.00     0.280 HD
HETATM   15  C   UNL     1      43.627  -6.995   9.136  1.00  0.00     0.236 C 
HETATM   16  C   UNL     1      42.562  -5.965   9.452  1.00  0.00     0.029 C 
HETATM   17  C   UNL     1      41.835  -5.829   8.131  1.00  0.00     0.029 C 
HETATM   18  C   UNL     1      41.706  -7.266   7.667  1.00  0.00     0.236 C 
ENDBRANCH  12  13
BRANCH  12  19
HETATM   19  C   UNL     1      42.546  -9.664  10.083  1.00  0.00     0.015 A 
HETATM   20  S   UNL     1      43.790 -10.349  11.052  1.00  0.00    -0.104 SA
HETATM   21  C   UNL     1      42.836 -10.311  12.462  1.00  0.00     0.050 A 
HETATM   22  C   UNL     1      41.580  -9.815  12.214  1.00  0.00     0.008 A 
HETATM   23  C   UNL     1      41.410  -9.444  10.849  1.00  0.00     0.017 A 
ENDBRANCH  12  19
ENDBRANCH  11  12
ENDBRANCH   8  11
ENDBRANCH   2   7
BRANCH   1  24
HETATM   24  S   UNL     1      40.021 -12.612   5.712  1.00  0.00    -0.120 SA
BRANCH  24  25
HETATM   25  C   UNL     1      40.496 -11.843   4.116  1.00  0.00     0.182 C 
BRANCH  25  26
HETATM   26  C   UNL     1      39.640 -12.318   2.949  1.00  0.00     0.231 C 
HETATM   27  N   UNL     1      40.089 -13.295   2.105  1.00  0.00    -0.327 N 
HETATM   28  H   UNL     1      39.594 -13.273   1.218  1.00  0.00     0.169 HD
HETATM   29  O   UNL     1      38.606 -11.730   2.620  1.00  0.00    -0.272 OA
BRANCH  27  30
HETATM   30  C   UNL     1      41.011 -14.340   2.257  1.00  0.00     0.034 A 
HETATM   31  C   UNL     1      42.386 -14.152   2.388  1.00  0.00     0.030 A 
HETATM   32  C   UNL     1      43.231 -15.249   2.607  1.00  0.00     0.009 A 
HETATM   33  C   UNL     1      42.712 -16.544   2.700  1.00  0.00    -0.062 A 
HETATM   34  C   UNL     1      43.607 -17.715   2.984  1.00  0.00     0.048 C 
HETATM   35  C   UNL     1      41.330 -16.725   2.604  1.00  0.00     0.009 A 
HETATM   36  C   UNL     1      40.488 -15.631   2.395  1.00  0.00     0.030 A 
ENDBRANCH  27  30
ENDBRANCH  25  26
ENDBRANCH  24  25
ENDBRANCH   1  24
TORSDOF 9
ENDMDL
MODEL 9
REMARK VINA RESULT:      -7.9      2.649      4.846
REMARK  9 active torsions:
REMARK  status: ('A' for Active; 'I' for Inactive)
REMARK    1  A    between atoms: C_5  and  N_6 
REMARK       I    between atoms: N_6  and  C_7 
REMARK    2  A    between atoms: C_7  and  C_8 
REMARK    3  A    between atoms: C_8  and  S_9 
REMARK    4  A    between atoms: S_9  and  C_10 
REMARK    5  A    between atoms: C_11  and  C_12 
REMARK       I    between atoms: C_12  and  N_13 
REMARK    6  A    between atoms: N_13  and  C_14 
REMARK    7  A    between atoms: C_14  and  C_15 
REMARK    8  A    between atoms: C_15  and  N_16 
REMARK    9  A    between atoms: C_15  and  C_22 
ROOT
HETATM    1  C   UNL     1      41.285 -13.582   5.345  1.00  0.00     0.016 A 
HETATM    2  C   UNL     1      42.263 -12.750   5.948  1.00  0.00     0.048 A 
HETATM    3  C   UNL     1      43.431 -13.308   6.503  1.00  0.00     0.018 A 
HETATM    4  C   UNL     1      43.620 -14.686   6.522  1.00  0.00     0.001 A 
HETATM    5  C   UNL     1      42.645 -15.515   5.987  1.00  0.00     0.001 A 
HETATM    6  C   UNL     1      41.494 -14.970   5.405  1.00  0.00     0.019 A 
ENDROOT
BRANCH   2   7
HETATM    7  C   UNL     1      42.120 -11.277   6.162  1.00  0.00     0.253 C 
HETATM    8  N   UNL     1      41.262 -10.905   7.165  1.00  0.00    -0.354 N 
HETATM    9  H   UNL     1      40.668 -11.626   7.568  1.00  0.00     0.162 HD
HETATM   10  O   UNL     1      42.843 -10.454   5.606  1.00  0.00    -0.268 OA
BRANCH   8  11
HETATM   11  C   UNL     1      41.077  -9.540   7.603  1.00  0.00     0.161 C 
BRANCH  11  12
HETATM   12  C   UNL     1      42.015  -9.031   8.741  1.00  0.00     0.245 C 
BRANCH  12  13
HETATM   13  N   UNL     1      43.365  -9.749   8.775  1.00  0.00    -0.061 N 
HETATM   14  H   UNL     1      43.275 -10.520   8.097  1.00  0.00     0.280 HD
HETATM   15  C   UNL     1      43.812 -10.458  10.038  1.00  0.00     0.236 C 
HETATM   16  C   UNL     1      45.023  -9.680  10.510  1.00  0.00     0.029 C 
HETATM   17  C   UNL     1      45.688  -9.287   9.207  1.00  0.00     0.029 C 
HETATM   18  C   UNL     1      44.517  -8.857   8.346  1.00  0.00     0.236 C 
ENDBRANCH  12  13
BRANCH  12  19
HETATM   19  C   UNL     1      41.330  -8.803  10.079  1.00  0.00     0.015 A 
HETATM   20  S   UNL     1      41.781  -7.537  11.152  1.00  0.00    -0.104 SA
HETATM   21  C   UNL     1      40.619  -7.987  12.312  1.00  0.00     0.050 A 
HETATM   22  C   UNL     1      39.909  -9.096  11.920  1.00  0.00     0.008 A 
HETATM   23  C   UNL     1      40.317  -9.568  10.639  1.00  0.00     0.017 A 
ENDBRANCH  12  19
ENDBRANCH  11  12
ENDBRANCH   8  11
ENDBRANCH   2   7
BRANCH   1  24
HETATM   24  S   UNL     1      39.831 -12.874   4.537  1.00  0.00    -0.120 SA
BRANCH  24  25
HETATM   25  C   UNL     1      40.437 -12.026   3.028  1.00  0.00     0.182 C 
BRANCH  25  26
HETATM   26  C   UNL     1      39.829 -12.585   1.747  1.00  0.00     0.231 C 
HETATM   27  N   UNL     1      40.422 -13.624   1.087  1.00  0.00    -0.327 N 
HETATM   28  H   UNL     1      40.120 -13.667   0.118  1.00  0.00     0.169 HD
HETATM   29  O   UNL     1      38.896 -12.019   1.171  1.00  0.00    -0.272 OA
BRANCH  27  30
HETATM   30  C   UNL     1      41.273 -14.658   1.502  1.00  0.00     0.034 A 
HETATM   31  C   UNL     1      42.645 -14.508   1.694  1.00  0.00     0.030 A 
HETATM   32  C   UNL     1      43.412 -15.577   2.179  1.00  0.00     0.009 A 
HETATM   33  C   UNL     1      42.816 -16.806   2.479  1.00  0.00    -0.062 A 
HETATM   34  C   UNL     1      43.624 -17.937   3.045  1.00  0.00     0.048 C 
HETATM   35  C   UNL     1      41.435 -16.942   2.319  1.00  0.00     0.009 A 
HETATM   36  C   UNL     1      40.670 -15.874   1.845  1.00  0.00     0.030 A 
ENDBRANCH  27  30
ENDBRANCH  25  26
ENDBRANCH  24  25
ENDBRANCH   1  24
TORSDOF 9
ENDMDL
MODEL 10
REMARK VINA RESULT:      -7.8      3.169      6.306
REMARK  9 active torsions:
REMARK  status: ('A' for Active; 'I' for Inactive)
REMARK    1  A    between atoms: C_5  and  N_6 
REMARK       I    between atoms: N_6  and  C_7 
REMARK    2  A    between atoms: C_7  and  C_8 
REMARK    3  A    between atoms: C_8  and  S_9 
REMARK    4  A    between atoms: S_9  and  C_10 
REMARK    5  A    between atoms: C_11  and  C_12 
REMARK       I    between atoms: C_12  and  N_13 
REMARK    6  A    between atoms: N_13  and  C_14 
REMARK    7  A    between atoms: C_14  and  C_15 
REMARK    8  A    between atoms: C_15  and  N_16 
REMARK    9  A    between atoms: C_15  and  C_22 
ROOT
HETATM    1  C   UNL     1      42.009 -13.001   5.081  1.00  0.00     0.016 A 
HETATM    2  C   UNL     1      42.614 -11.849   4.517  1.00  0.00     0.048 A 
HETATM    3  C   UNL     1      43.857 -11.389   4.995  1.00  0.00     0.018 A 
HETATM    4  C   UNL     1      44.485 -12.020   6.063  1.00  0.00     0.001 A 
HETATM    5  C   UNL     1      43.877 -13.115   6.661  1.00  0.00     0.001 A 
HETATM    6  C   UNL     1      42.657 -13.599   6.174  1.00  0.00     0.019 A 
ENDROOT
BRANCH   2   7
HETATM    7  C   UNL     1      41.981 -10.965   3.491  1.00  0.00     0.253 C 
HETATM    8  N   UNL     1      42.221 -11.307   2.185  1.00  0.00    -0.354 N 
HETATM    9  H   UNL     1      42.932 -12.013   2.006  1.00  0.00     0.162 HD
HETATM   10  O   UNL     1      41.161 -10.097   3.781  1.00  0.00    -0.268 OA
BRANCH   8  11
HETATM   11  C   UNL     1      41.607 -10.650   1.053  1.00  0.00     0.161 C 
BRANCH  11  12
HETATM   12  C   UNL     1      40.487 -11.438   0.305  1.00  0.00     0.245 C 
BRANCH  12  13
HETATM   13  N   UNL     1      41.027 -12.375  -0.775  1.00  0.00    -0.061 N 
HETATM   14  H   UNL     1      41.943 -12.691  -0.421  1.00  0.00     0.280 HD
HETATM   15  C   UNL     1      41.363 -11.831  -2.150  1.00  0.00     0.236 C 
HETATM   16  C   UNL     1      40.371 -12.495  -3.082  1.00  0.00     0.029 C 
HETATM   17  C   UNL     1      40.231 -13.878  -2.479  1.00  0.00     0.029 C 
HETATM   18  C   UNL     1      40.146 -13.593  -0.994  1.00  0.00     0.236 C 
ENDBRANCH  12  13
BRANCH  12  19
HETATM   19  C   UNL     1      39.261 -10.615  -0.058  1.00  0.00     0.015 A 
HETATM   20  S   UNL     1      37.656 -11.207   0.115  1.00  0.00    -0.104 SA
HETATM   21  C   UNL     1      36.966  -9.773  -0.488  1.00  0.00     0.050 A 
HETATM   22  C   UNL     1      37.925  -8.857  -0.847  1.00  0.00     0.008 A 
HETATM   23  C   UNL     1      39.244  -9.339  -0.603  1.00  0.00     0.017 A 
ENDBRANCH  12  19
ENDBRANCH  11  12
ENDBRANCH   8  11
ENDBRANCH   2   7
BRANCH   1  24
HETATM   24  S   UNL     1      40.466 -13.665   4.410  1.00  0.00    -0.120 SA
BRANCH  24  25
HETATM   25  C   UNL     1      40.914 -15.178   3.476  1.00  0.00     0.182 C 
BRANCH  25  26
HETATM   26  C   UNL     1      42.131 -14.984   2.580  1.00  0.00     0.231 C 
HETATM   27  N   UNL     1      43.298 -15.650   2.831  1.00  0.00    -0.327 N 
HETATM   28  H   UNL     1      44.088 -15.191   2.387  1.00  0.00     0.169 HD
HETATM   29  O   UNL     1      42.167 -14.104   1.716  1.00  0.00    -0.272 OA
BRANCH  27  30
HETATM   30  C   UNL     1      43.590 -16.851   3.491  1.00  0.00     0.034 A 
HETATM   31  C   UNL     1      43.761 -16.962   4.870  1.00  0.00     0.030 A 
HETATM   32  C   UNL     1      43.980 -18.215   5.457  1.00  0.00     0.009 A 
HETATM   33  C   UNL     1      44.028 -19.373   4.675  1.00  0.00    -0.062 A 
HETATM   34  C   UNL     1      44.214 -20.722   5.304  1.00  0.00     0.048 C 
HETATM   35  C   UNL     1      43.821 -19.264   3.297  1.00  0.00     0.009 A 
HETATM   36  C   UNL     1      43.593 -18.016   2.714  1.00  0.00     0.030 A 
ENDBRANCH  27  30
ENDBRANCH  25  26
ENDBRANCH  24  25
ENDBRANCH   1  24
TORSDOF 9
ENDMDL
