MODEL 1
REMARK VINA RESULT:      -8.9      0.000      0.000
REMARK  3 active torsions:
REMARK  status: ('A' for Active; 'I' for Inactive)
REMARK    1  A    between atoms: C_6  and  N_7 
REMARK       I    between atoms: N_7  and  C_8 
REMARK    2  A    between atoms: C_8  and  C_9 
REMARK    3  A    between atoms: C_9  and  C_10 
ROOT
HETATM    1  N   UNL     1      41.497 -14.237   0.769  1.00  0.00    -0.325 N 
HETATM    2  C   UNL     1      41.488 -15.499   1.331  1.00  0.00     0.228 C 
HETATM    3  O   UNL     1      40.500 -16.096   1.748  1.00  0.00    -0.273 OA
HETATM    4  H   UNL     1      42.245 -14.091   0.085  1.00  0.00     0.169 HD
ENDROOT
BRANCH   2   5
HETATM    5  C   UNL     1      42.865 -16.126   1.437  1.00  0.00     0.165 C 
BRANCH   5   6
HETATM    6  C   UNL     1      43.246 -16.585   2.833  1.00  0.00     0.074 A 
HETATM    7  N   UNL     1      43.299 -15.652   3.740  1.00  0.00    -0.175 NA
HETATM    8  N   UNL     1      43.598 -15.999   5.017  1.00  0.00    -0.243 N 
HETATM    9  C   UNL     1      43.809 -17.274   5.479  1.00  0.00     0.272 A 
HETATM   10  H   UNL     1      43.636 -15.248   5.701  1.00  0.00     0.192 HD
HETATM   11  O   UNL     1      44.037 -17.512   6.659  1.00  0.00    -0.266 OA
HETATM   12  C   UNL     1      43.750 -18.344   4.471  1.00  0.00     0.046 A 
HETATM   13  C   UNL     1      43.495 -18.020   3.137  1.00  0.00     0.006 A 
HETATM   14  C   UNL     1      43.958 -19.674   4.862  1.00  0.00     0.018 A 
HETATM   15  C   UNL     1      43.473 -19.044   2.184  1.00  0.00     0.014 A 
HETATM   16  C   UNL     1      43.680 -20.374   2.574  1.00  0.00     0.001 A 
HETATM   17  C   UNL     1      43.918 -20.689   3.910  1.00  0.00     0.001 A 
ENDBRANCH   5   6
ENDBRANCH   2   5
BRANCH   1  18
HETATM   18  C   UNL     1      40.381 -13.375   0.620  1.00  0.00     0.062 A 
HETATM   19  C   UNL     1      39.994 -12.612   1.742  1.00  0.00     0.061 A 
HETATM   20  C   UNL     1      38.910 -11.732   1.686  1.00  0.00     0.033 A 
HETATM   21 CL   UNL     1      40.872 -12.700   3.235  1.00  0.00    -0.082 Cl
HETATM   22  C   UNL     1      38.164 -11.614   0.514  1.00  0.00    -0.060 A 
HETATM   23  C   UNL     1      37.023 -10.645   0.427  1.00  0.00     0.048 C 
HETATM   24  C   UNL     1      38.524 -12.389  -0.595  1.00  0.00     0.016 A 
HETATM   25  C   UNL     1      39.603 -13.299  -0.550  1.00  0.00    -0.033 A 
HETATM   26  C   UNL     1      39.808 -14.168  -1.761  1.00  0.00     0.050 C 
ENDBRANCH   1  18
TORSDOF 3
ENDMDL
MODEL 2
REMARK VINA RESULT:      -8.8      1.170      1.859
REMARK  3 active torsions:
REMARK  status: ('A' for Active; 'I' for Inactive)
REMARK    1  A    between atoms: C_6  and  N_7 
REMARK       I    between atoms: N_7  and  C_8 
REMARK    2  A    between atoms: C_8  and  C_9 
REMARK    3  A    between atoms: C_9  and  C_10 
ROOT
HETATM    1  N   UNL     1      41.280 -13.980   1.221  1.00  0.00    -0.325 N 
HETATM    2  C   UNL     1      41.274 -15.348   1.416  1.00  0.00     0.228 C 
HETATM    3  O   UNL     1      40.279 -16.053   1.556  1.00  0.00    -0.273 OA
HETATM    4  H   UNL     1      42.079 -13.640   0.679  1.00  0.00     0.169 HD
ENDROOT
BRANCH   2   5
HETATM    5  C   UNL     1      42.661 -15.957   1.483  1.00  0.00     0.165 C 
BRANCH   5   6
HETATM    6  C   UNL     1      43.107 -16.367   2.875  1.00  0.00     0.074 A 
HETATM    7  N   UNL     1      43.152 -15.411   3.759  1.00  0.00    -0.175 NA
HETATM    8  N   UNL     1      43.507 -15.715   5.032  1.00  0.00    -0.243 N 
HETATM    9  C   UNL     1      43.783 -16.970   5.516  1.00  0.00     0.272 A 
HETATM   10  H   UNL     1      43.538 -14.948   5.697  1.00  0.00     0.192 HD
HETATM   11  O   UNL     1      44.060 -17.171   6.692  1.00  0.00    -0.266 OA
HETATM   12  C   UNL     1      43.733 -18.066   4.535  1.00  0.00     0.046 A 
HETATM   13  C   UNL     1      43.421 -17.783   3.204  1.00  0.00     0.006 A 
HETATM   14  C   UNL     1      44.006 -19.376   4.949  1.00  0.00     0.018 A 
HETATM   15  C   UNL     1      43.408 -18.831   2.275  1.00  0.00     0.014 A 
HETATM   16  C   UNL     1      43.681 -20.141   2.688  1.00  0.00     0.001 A 
HETATM   17  C   UNL     1      43.974 -20.415   4.022  1.00  0.00     0.001 A 
ENDBRANCH   5   6
ENDBRANCH   2   5
BRANCH   1  18
HETATM   18  C   UNL     1      40.146 -13.129   1.202  1.00  0.00     0.062 A 
HETATM   19  C   UNL     1      39.615 -12.781  -0.059  1.00  0.00     0.061 A 
HETATM   20  C   UNL     1      38.495 -11.953  -0.174  1.00  0.00     0.033 A 
HETATM   21 CL   UNL     1      40.303 -13.399  -1.526  1.00  0.00    -0.082 Cl
HETATM   22  C   UNL     1      37.895 -11.424   0.968  1.00  0.00    -0.060 A 
HETATM   23  C   UNL     1      36.669 -10.567   0.861  1.00  0.00     0.048 C 
HETATM   24  C   UNL     1      38.433 -11.742   2.220  1.00  0.00     0.016 A 
HETATM   25  C   UNL     1      39.576 -12.560   2.355  1.00  0.00    -0.033 A 
HETATM   26  C   UNL     1      40.135 -12.720   3.743  1.00  0.00     0.050 C 
ENDBRANCH   1  18
TORSDOF 3
ENDMDL
MODEL 3
REMARK VINA RESULT:      -8.6      3.423      7.000
REMARK  3 active torsions:
REMARK  status: ('A' for Active; 'I' for Inactive)
REMARK    1  A    between atoms: C_6  and  N_7 
REMARK       I    between atoms: N_7  and  C_8 
REMARK    2  A    between atoms: C_8  and  C_9 
REMARK    3  A    between atoms: C_9  and  C_10 
ROOT
HETATM    1  N   UNL     1      42.495 -16.060   5.080  1.00  0.00    -0.325 N 
HETATM    2  C   UNL     1      41.264 -15.844   5.670  1.00  0.00     0.228 C 
HETATM    3  O   UNL     1      40.284 -16.578   5.586  1.00  0.00    -0.273 OA
HETATM    4  H   UNL     1      43.280 -15.655   5.597  1.00  0.00     0.169 HD
ENDROOT
BRANCH   2   5
HETATM    5  C   UNL     1      41.184 -14.546   6.450  1.00  0.00     0.165 C 
BRANCH   5   6
HETATM    6  C   UNL     1      42.257 -13.530   6.102  1.00  0.00     0.074 A 
HETATM    7  N   UNL     1      43.261 -13.461   6.929  1.00  0.00    -0.175 NA
HETATM    8  N   UNL     1      44.273 -12.600   6.658  1.00  0.00    -0.243 N 
HETATM    9  C   UNL     1      44.380 -11.805   5.545  1.00  0.00     0.272 A 
HETATM   10  H   UNL     1      45.039 -12.566   7.325  1.00  0.00     0.192 HD
HETATM   11  O   UNL     1      45.348 -11.078   5.351  1.00  0.00    -0.266 OA
HETATM   12  C   UNL     1      43.259 -11.870   4.594  1.00  0.00     0.046 A 
HETATM   13  C   UNL     1      42.175 -12.707   4.865  1.00  0.00     0.006 A 
HETATM   14  C   UNL     1      43.291 -11.085   3.434  1.00  0.00     0.018 A 
HETATM   15  C   UNL     1      41.101 -12.736   3.968  1.00  0.00     0.014 A 
HETATM   16  C   UNL     1      41.132 -11.952   2.807  1.00  0.00     0.001 A 
HETATM   17  C   UNL     1      42.226 -11.132   2.538  1.00  0.00     0.001 A 
ENDBRANCH   5   6
ENDBRANCH   2   5
BRANCH   1  18
HETATM   18  C   UNL     1      42.839 -17.137   4.225  1.00  0.00     0.062 A 
HETATM   19  C   UNL     1      43.446 -18.267   4.814  1.00  0.00     0.061 A 
HETATM   20  C   UNL     1      43.813 -19.378   4.050  1.00  0.00     0.033 A 
HETATM   21 CL   UNL     1      43.727 -18.348   6.523  1.00  0.00    -0.082 Cl
HETATM   22  C   UNL     1      43.612 -19.376   2.670  1.00  0.00    -0.060 A 
HETATM   23  C   UNL     1      43.964 -20.577   1.843  1.00  0.00     0.048 C 
HETATM   24  C   UNL     1      43.037 -18.247   2.074  1.00  0.00     0.016 A 
HETATM   25  C   UNL     1      42.678 -17.108   2.827  1.00  0.00    -0.033 A 
HETATM   26  C   UNL     1      42.193 -15.911   2.056  1.00  0.00     0.050 C 
ENDBRANCH   1  18
TORSDOF 3
ENDMDL
MODEL 4
REMARK VINA RESULT:      -8.4      1.821      2.275
REMARK  3 active torsions:
REMARK  status: ('A' for Active; 'I' for Inactive)
REMARK    1  A    between atoms: C_6  and  N_7 
REMARK       I    between atoms: N_7  and  C_8 
REMARK    2  A    between atoms: C_8  and  C_9 
REMARK    3  A    between atoms: C_9  and  C_10 
ROOT
HETATM    1  N   UNL     1      39.400 -14.205   0.441  1.00  0.00    -0.325 N 
HETATM    2  C   UNL     1      40.552 -14.710   1.015  1.00  0.00     0.228 C 
HETATM    3  O   UNL     1      41.700 -14.366   0.752  1.00  0.00    -0.273 OA
HETATM    4  H   UNL     1      38.583 -14.233   1.055  1.00  0.00     0.169 HD
ENDROOT
BRANCH   2   5
HETATM    5  C   UNL     1      40.293 -15.807   2.030  1.00  0.00     0.165 C 
BRANCH   5   6
HETATM    6  C   UNL     1      41.236 -15.806   3.220  1.00  0.00     0.074 A 
HETATM    7  N   UNL     1      41.009 -14.892   4.119  1.00  0.00    -0.175 NA
HETATM    8  N   UNL     1      41.792 -14.858   5.227  1.00  0.00    -0.243 N 
HETATM    9  C   UNL     1      42.796 -15.741   5.533  1.00  0.00     0.272 A 
HETATM   10  H   UNL     1      41.594 -14.130   5.908  1.00  0.00     0.192 HD
HETATM   11  O   UNL     1      43.436 -15.668   6.576  1.00  0.00    -0.266 OA
HETATM   12  C   UNL     1      43.066 -16.785   4.532  1.00  0.00     0.046 A 
HETATM   13  C   UNL     1      42.314 -16.821   3.356  1.00  0.00     0.006 A 
HETATM   14  C   UNL     1      44.079 -17.724   4.769  1.00  0.00     0.018 A 
HETATM   15  C   UNL     1      42.603 -17.799   2.397  1.00  0.00     0.014 A 
HETATM   16  C   UNL     1      43.615 -18.739   2.633  1.00  0.00     0.001 A 
HETATM   17  C   UNL     1      44.348 -18.705   3.818  1.00  0.00     0.001 A 
ENDBRANCH   5   6
ENDBRANCH   2   5
BRANCH   1  18
HETATM   18  C   UNL     1      39.332 -13.240  -0.596  1.00  0.00     0.062 A 
HETATM   19  C   UNL     1      39.359 -11.880  -0.220  1.00  0.00     0.061 A 
HETATM   20  C   UNL     1      39.303 -10.859  -1.173  1.00  0.00     0.033 A 
HETATM   21 CL   UNL     1      39.506 -11.410   1.443  1.00  0.00    -0.082 Cl
HETATM   22  C   UNL     1      39.186 -11.172  -2.527  1.00  0.00    -0.060 A 
HETATM   23  C   UNL     1      39.166 -10.088  -3.563  1.00  0.00     0.048 C 
HETATM   24  C   UNL     1      39.130 -12.518  -2.905  1.00  0.00     0.016 A 
HETATM   25  C   UNL     1      39.165 -13.562  -1.955  1.00  0.00    -0.033 A 
HETATM   26  C   UNL     1      38.964 -14.959  -2.475  1.00  0.00     0.050 C 
ENDBRANCH   1  18
TORSDOF 3
ENDMDL
MODEL 5
REMARK VINA RESULT:      -8.4      4.439      7.819
REMARK  3 active torsions:
REMARK  status: ('A' for Active; 'I' for Inactive)
REMARK    1  A    between atoms: C_6  and  N_7 
REMARK       I    between atoms: N_7  and  C_8 
REMARK    2  A    between atoms: C_8  and  C_9 
REMARK    3  A    between atoms: C_9  and  C_10 
ROOT
HETATM    1  N   UNL     1      42.956 -14.719   4.009  1.00  0.00    -0.325 N 
HETATM    2  C   UNL     1      41.838 -14.201   4.637  1.00  0.00     0.228 C 
HETATM    3  O   UNL     1      40.879 -14.846   5.049  1.00  0.00    -0.273 OA
HETATM    4  H   UNL     1      43.807 -14.169   4.155  1.00  0.00     0.169 HD
ENDROOT
BRANCH   2   5
HETATM    5  C   UNL     1      41.857 -12.690   4.761  1.00  0.00     0.165 C 
BRANCH   5   6
HETATM    6  C   UNL     1      42.797 -12.153   5.826  1.00  0.00     0.074 A 
HETATM    7  N   UNL     1      43.821 -12.906   6.108  1.00  0.00    -0.175 NA
HETATM    8  N   UNL     1      44.721 -12.470   7.025  1.00  0.00    -0.243 N 
HETATM    9  C   UNL     1      44.692 -11.258   7.670  1.00  0.00     0.272 A 
HETATM   10  H   UNL     1      45.506 -13.081   7.227  1.00  0.00     0.192 HD
HETATM   11  O   UNL     1      45.565 -10.918   8.460  1.00  0.00    -0.266 OA
HETATM   12  C   UNL     1      43.545 -10.389   7.363  1.00  0.00     0.046 A 
HETATM   13  C   UNL     1      42.572 -10.828   6.462  1.00  0.00     0.006 A 
HETATM   14  C   UNL     1      43.441  -9.138   7.983  1.00  0.00     0.018 A 
HETATM   15  C   UNL     1      41.470 -10.004   6.203  1.00  0.00     0.014 A 
HETATM   16  C   UNL     1      41.366  -8.752   6.823  1.00  0.00     0.001 A 
HETATM   17  C   UNL     1      42.351  -8.318   7.707  1.00  0.00     0.001 A 
ENDBRANCH   5   6
ENDBRANCH   2   5
BRANCH   1  18
HETATM   18  C   UNL     1      43.178 -16.079   3.676  1.00  0.00     0.062 A 
HETATM   19  C   UNL     1      42.678 -16.535   2.438  1.00  0.00     0.061 A 
HETATM   20  C   UNL     1      42.855 -17.857   2.022  1.00  0.00     0.033 A 
HETATM   21 CL   UNL     1      41.854 -15.463   1.351  1.00  0.00    -0.082 Cl
HETATM   22  C   UNL     1      43.511 -18.769   2.850  1.00  0.00    -0.060 A 
HETATM   23  C   UNL     1      43.743 -20.180   2.401  1.00  0.00     0.048 C 
HETATM   24  C   UNL     1      43.984 -18.331   4.092  1.00  0.00     0.016 A 
HETATM   25  C   UNL     1      43.797 -17.004   4.537  1.00  0.00    -0.033 A 
HETATM   26  C   UNL     1      44.234 -16.691   5.942  1.00  0.00     0.050 C 
ENDBRANCH   1  18
TORSDOF 3
ENDMDL
MODEL 6
REMARK VINA RESULT:      -8.3      4.818      7.557
REMARK  3 active torsions:
REMARK  status: ('A' for Active; 'I' for Inactive)
REMARK    1  A    between atoms: C_6  and  N_7 
REMARK       I    between atoms: N_7  and  C_8 
REMARK    2  A    between atoms: C_8  and  C_9 
REMARK    3  A    between atoms: C_9  and  C_10 
ROOT
HETATM    1  N   UNL     1      43.059 -14.321   4.070  1.00  0.00    -0.325 N 
HETATM    2  C   UNL     1      41.892 -13.702   4.475  1.00  0.00     0.228 C 
HETATM    3  O   UNL     1      40.901 -14.261   4.936  1.00  0.00    -0.273 OA
HETATM    4  H   UNL     1      43.894 -13.738   4.164  1.00  0.00     0.169 HD
ENDROOT
BRANCH   2   5
HETATM    5  C   UNL     1      41.901 -12.199   4.273  1.00  0.00     0.165 C 
BRANCH   5   6
HETATM    6  C   UNL     1      42.046 -11.388   5.548  1.00  0.00     0.074 A 
HETATM    7  N   UNL     1      40.935 -10.958   6.074  1.00  0.00    -0.175 NA
HETATM    8  N   UNL     1      40.990 -10.257   7.234  1.00  0.00    -0.243 N 
HETATM    9  C   UNL     1      42.122  -9.989   7.962  1.00  0.00     0.272 A 
HETATM   10  H   UNL     1      40.108  -9.930   7.617  1.00  0.00     0.192 HD
HETATM   11  O   UNL     1      42.087  -9.380   9.025  1.00  0.00    -0.266 OA
HETATM   12  C   UNL     1      43.389 -10.470   7.388  1.00  0.00     0.046 A 
HETATM   13  C   UNL     1      43.377 -11.151   6.169  1.00  0.00     0.006 A 
HETATM   14  C   UNL     1      44.590 -10.232   8.069  1.00  0.00     0.018 A 
HETATM   15  C   UNL     1      44.592 -11.575   5.618  1.00  0.00     0.014 A 
HETATM   16  C   UNL     1      45.793 -11.338   6.299  1.00  0.00     0.001 A 
HETATM   17  C   UNL     1      45.793 -10.673   7.523  1.00  0.00     0.001 A 
ENDBRANCH   5   6
ENDBRANCH   2   5
BRANCH   1  18
HETATM   18  C   UNL     1      43.309 -15.717   4.057  1.00  0.00     0.062 A 
HETATM   19  C   UNL     1      43.758 -16.309   5.257  1.00  0.00     0.061 A 
HETATM   20  C   UNL     1      44.023 -17.678   5.340  1.00  0.00     0.033 A 
HETATM   21 CL   UNL     1      43.963 -15.369   6.700  1.00  0.00    -0.082 Cl
HETATM   22  C   UNL     1      43.876 -18.489   4.214  1.00  0.00    -0.060 A 
HETATM   23  C   UNL     1      44.119 -19.966   4.299  1.00  0.00     0.048 C 
HETATM   24  C   UNL     1      43.459 -17.904   3.013  1.00  0.00     0.016 A 
HETATM   25  C   UNL     1      43.205 -16.519   2.905  1.00  0.00    -0.033 A 
HETATM   26  C   UNL     1      42.891 -15.992   1.532  1.00  0.00     0.050 C 
ENDBRANCH   1  18
TORSDOF 3
ENDMDL
MODEL 7
REMARK VINA RESULT:      -8.2      1.403      2.407
REMARK  3 active torsions:
REMARK  status: ('A' for Active; 'I' for Inactive)
REMARK    1  A    between atoms: C_6  and  N_7 
REMARK       I    between atoms: N_7  and  C_8 
REMARK    2  A    between atoms: C_8  and  C_9 
REMARK    3  A    between atoms: C_9  and  C_10 
ROOT
HETATM    1  N   UNL     1      41.706 -14.068   1.005  1.00  0.00    -0.325 N 
HETATM    2  C   UNL     1      41.772 -15.373   1.456  1.00  0.00     0.228 C 
HETATM    3  O   UNL     1      40.816 -16.077   1.770  1.00  0.00    -0.273 OA
HETATM    4  H   UNL     1      42.470 -13.807   0.375  1.00  0.00     0.169 HD
ENDROOT
BRANCH   2   5
HETATM    5  C   UNL     1      43.187 -15.902   1.579  1.00  0.00     0.165 C 
BRANCH   5   6
HETATM    6  C   UNL     1      43.389 -16.924   2.684  1.00  0.00     0.074 A 
HETATM    7  N   UNL     1      43.549 -18.156   2.292  1.00  0.00    -0.175 NA
HETATM    8  N   UNL     1      43.770 -19.115   3.225  1.00  0.00    -0.243 N 
HETATM    9  C   UNL     1      43.897 -18.912   4.576  1.00  0.00     0.272 A 
HETATM   10  H   UNL     1      43.886 -20.067   2.889  1.00  0.00     0.192 HD
HETATM   11  O   UNL     1      44.136 -19.827   5.356  1.00  0.00    -0.266 OA
HETATM   12  C   UNL     1      43.724 -17.526   5.041  1.00  0.00     0.046 A 
HETATM   13  C   UNL     1      43.445 -16.520   4.114  1.00  0.00     0.006 A 
HETATM   14  C   UNL     1      43.835 -17.237   6.407  1.00  0.00     0.018 A 
HETATM   15  C   UNL     1      43.251 -15.212   4.573  1.00  0.00     0.014 A 
HETATM   16  C   UNL     1      43.362 -14.922   5.939  1.00  0.00     0.001 A 
HETATM   17  C   UNL     1      43.658 -15.930   6.853  1.00  0.00     0.001 A 
ENDBRANCH   5   6
ENDBRANCH   2   5
BRANCH   1  18
HETATM   18  C   UNL     1      40.533 -13.283   0.872  1.00  0.00     0.062 A 
HETATM   19  C   UNL     1      40.074 -12.602   2.020  1.00  0.00     0.061 A 
HETATM   20  C   UNL     1      38.930 -11.800   1.982  1.00  0.00     0.033 A 
HETATM   21 CL   UNL     1      40.932 -12.695   3.524  1.00  0.00    -0.082 Cl
HETATM   22  C   UNL     1      38.196 -11.682   0.802  1.00  0.00    -0.060 A 
HETATM   23  C   UNL     1      36.990 -10.793   0.736  1.00  0.00     0.048 C 
HETATM   24  C   UNL     1      38.629 -12.378  -0.333  1.00  0.00     0.016 A 
HETATM   25  C   UNL     1      39.771 -13.209  -0.308  1.00  0.00    -0.033 A 
HETATM   26  C   UNL     1      40.058 -14.005  -1.552  1.00  0.00     0.050 C 
ENDBRANCH   1  18
TORSDOF 3
ENDMDL
MODEL 8
REMARK VINA RESULT:      -8.1      2.494      2.803
REMARK  3 active torsions:
REMARK  status: ('A' for Active; 'I' for Inactive)
REMARK    1  A    between atoms: C_6  and  N_7 
REMARK       I    between atoms: N_7  and  C_8 
REMARK    2  A    between atoms: C_8  and  C_9 
REMARK    3  A    between atoms: C_9  and  C_10 
ROOT
HETATM    1  N   UNL     1      42.220 -13.796   3.563  1.00  0.00    -0.325 N 
HETATM    2  C   UNL     1      42.015 -14.832   2.672  1.00  0.00     0.228 C 
HETATM    3  O   UNL     1      40.995 -15.031   2.018  1.00  0.00    -0.273 OA
HETATM    4  H   UNL     1      43.199 -13.509   3.648  1.00  0.00     0.169 HD
ENDROOT
BRANCH   2   5
HETATM    5  C   UNL     1      43.188 -15.788   2.572  1.00  0.00     0.165 C 
BRANCH   5   6
HETATM    6  C   UNL     1      43.377 -16.689   3.779  1.00  0.00     0.074 A 
HETATM    7  N   UNL     1      43.324 -16.099   4.939  1.00  0.00    -0.175 NA
HETATM    8  N   UNL     1      43.449 -16.852   6.060  1.00  0.00    -0.243 N 
HETATM    9  C   UNL     1      43.578 -18.217   6.106  1.00  0.00     0.272 A 
HETATM   10  H   UNL     1      43.409 -16.362   6.950  1.00  0.00     0.192 HD
HETATM   11  O   UNL     1      43.647 -18.833   7.164  1.00  0.00    -0.266 OA
HETATM   12  C   UNL     1      43.635 -18.905   4.806  1.00  0.00     0.046 A 
HETATM   13  C   UNL     1      43.561 -18.157   3.629  1.00  0.00     0.006 A 
HETATM   14  C   UNL     1      43.770 -20.299   4.768  1.00  0.00     0.018 A 
HETATM   15  C   UNL     1      43.649 -18.821   2.400  1.00  0.00     0.014 A 
HETATM   16  C   UNL     1      43.783 -20.215   2.360  1.00  0.00     0.001 A 
HETATM   17  C   UNL     1      43.839 -20.953   3.540  1.00  0.00     0.001 A 
ENDBRANCH   5   6
ENDBRANCH   2   5
BRANCH   1  18
HETATM   18  C   UNL     1      41.277 -12.803   3.929  1.00  0.00     0.062 A 
HETATM   19  C   UNL     1      40.392 -13.105   4.985  1.00  0.00     0.061 A 
HETATM   20  C   UNL     1      39.433 -12.185   5.419  1.00  0.00     0.033 A 
HETATM   21 CL   UNL     1      40.479 -14.619   5.826  1.00  0.00    -0.082 Cl
HETATM   22  C   UNL     1      39.312 -10.949   4.785  1.00  0.00    -0.060 A 
HETATM   23  C   UNL     1      38.315  -9.937   5.265  1.00  0.00     0.048 C 
HETATM   24  C   UNL     1      40.168 -10.653   3.717  1.00  0.00     0.016 A 
HETATM   25  C   UNL     1      41.129 -11.578   3.252  1.00  0.00    -0.033 A 
HETATM   26  C   UNL     1      41.896 -11.195   2.017  1.00  0.00     0.050 C 
ENDBRANCH   1  18
TORSDOF 3
ENDMDL
MODEL 9
REMARK VINA RESULT:      -8.0      9.410     11.239
REMARK  3 active torsions:
REMARK  status: ('A' for Active; 'I' for Inactive)
REMARK    1  A    between atoms: C_6  and  N_7 
REMARK       I    between atoms: N_7  and  C_8 
REMARK    2  A    between atoms: C_8  and  C_9 
REMARK    3  A    between atoms: C_9  and  C_10 
ROOT
HETATM    1  N   UNL     1      43.668  -9.955   8.766  1.00  0.00    -0.325 N 
HETATM    2  C   UNL     1      43.749  -8.639   9.180  1.00  0.00     0.228 C 
HETATM    3  O   UNL     1      43.719  -7.650   8.453  1.00  0.00    -0.273 OA
HETATM    4  H   UNL     1      43.249 -10.583   9.457  1.00  0.00     0.169 HD
ENDROOT
BRANCH   2   5
HETATM    5  C   UNL     1      43.922  -8.484  10.679  1.00  0.00     0.165 C 
BRANCH   5   6
HETATM    6  C   UNL     1      42.745  -8.968  11.507  1.00  0.00     0.074 A 
HETATM    7  N   UNL     1      42.008  -9.889  10.956  1.00  0.00    -0.175 NA
HETATM    8  N   UNL     1      40.961 -10.393  11.656  1.00  0.00    -0.243 N 
HETATM    9  C   UNL     1      40.616 -10.061  12.943  1.00  0.00     0.272 A 
HETATM   10  H   UNL     1      40.401 -11.107  11.198  1.00  0.00     0.192 HD
HETATM   11  O   UNL     1      39.675 -10.589  13.524  1.00  0.00    -0.266 OA
HETATM   12  C   UNL     1      41.439  -9.025  13.586  1.00  0.00     0.046 A 
HETATM   13  C   UNL     1      42.494  -8.447  12.877  1.00  0.00     0.006 A 
HETATM   14  C   UNL     1      41.149  -8.627  14.897  1.00  0.00     0.018 A 
HETATM   15  C   UNL     1      43.250  -7.440  13.489  1.00  0.00     0.014 A 
HETATM   16  C   UNL     1      42.960  -7.042  14.801  1.00  0.00     0.001 A 
HETATM   17  C   UNL     1      41.916  -7.637  15.505  1.00  0.00     0.001 A 
ENDBRANCH   5   6
ENDBRANCH   2   5
BRANCH   1  18
HETATM   18  C   UNL     1      43.591 -10.410   7.425  1.00  0.00     0.062 A 
HETATM   19  C   UNL     1      42.320 -10.414   6.812  1.00  0.00     0.061 A 
HETATM   20  C   UNL     1      42.149 -10.840   5.492  1.00  0.00     0.033 A 
HETATM   21 CL   UNL     1      40.913  -9.851   7.655  1.00  0.00    -0.082 Cl
HETATM   22  C   UNL     1      43.241 -11.304   4.759  1.00  0.00    -0.060 A 
HETATM   23  C   UNL     1      43.080 -11.726   3.329  1.00  0.00     0.048 C 
HETATM   24  C   UNL     1      44.500 -11.330   5.370  1.00  0.00     0.016 A 
HETATM   25  C   UNL     1      44.688 -10.922   6.709  1.00  0.00    -0.033 A 
HETATM   26  C   UNL     1      46.061 -11.121   7.292  1.00  0.00     0.050 C 
ENDBRANCH   1  18
TORSDOF 3
ENDMDL
MODEL 10
REMARK VINA RESULT:      -8.0      3.083      7.771
REMARK  3 active torsions:
REMARK  status: ('A' for Active; 'I' for Inactive)
REMARK    1  A    between atoms: C_6  and  N_7 
REMARK       I    between atoms: N_7  and  C_8 
REMARK    2  A    between atoms: C_8  and  C_9 
REMARK    3  A    between atoms: C_9  and  C_10 
ROOT
HETATM    1  N   UNL     1      43.030 -15.381   4.635  1.00  0.00    -0.325 N 
HETATM    2  C   UNL     1      41.895 -14.955   5.299  1.00  0.00     0.228 C 
HETATM    3  O   UNL     1      40.897 -15.632   5.527  1.00  0.00    -0.273 OA
HETATM    4  H   UNL     1      43.887 -14.904   4.929  1.00  0.00     0.169 HD
ENDROOT
BRANCH   2   5
HETATM    5  C   UNL     1      41.950 -13.501   5.723  1.00  0.00     0.165 C 
BRANCH   5   6
HETATM    6  C   UNL     1      41.918 -12.504   4.578  1.00  0.00     0.074 A 
HETATM    7  N   UNL     1      42.890 -12.602   3.717  1.00  0.00    -0.175 NA
HETATM    8  N   UNL     1      42.903 -11.766   2.649  1.00  0.00    -0.243 N 
HETATM    9  C   UNL     1      41.944 -10.833   2.343  1.00  0.00     0.272 A 
HETATM   10  H   UNL     1      43.677 -11.863   1.997  1.00  0.00     0.192 HD
HETATM   11  O   UNL     1      42.006 -10.138   1.335  1.00  0.00    -0.266 OA
HETATM   12  C   UNL     1      40.834 -10.709   3.300  1.00  0.00     0.046 A 
HETATM   13  C   UNL     1      40.814 -11.518   4.438  1.00  0.00     0.006 A 
HETATM   14  C   UNL     1      39.817  -9.776   3.061  1.00  0.00     0.018 A 
HETATM   15  C   UNL     1      39.769 -11.367   5.357  1.00  0.00     0.014 A 
HETATM   16  C   UNL     1      38.751 -10.434   5.119  1.00  0.00     0.001 A 
HETATM   17  C   UNL     1      38.771  -9.644   3.972  1.00  0.00     0.001 A 
ENDBRANCH   5   6
ENDBRANCH   2   5
BRANCH   1  18
HETATM   18  C   UNL     1      43.233 -16.656   4.048  1.00  0.00     0.062 A 
HETATM   19  C   UNL     1      43.739 -17.680   4.876  1.00  0.00     0.061 A 
HETATM   20  C   UNL     1      43.963 -18.969   4.386  1.00  0.00     0.033 A 
HETATM   21 CL   UNL     1      44.067 -17.398   6.556  1.00  0.00    -0.082 Cl
HETATM   22  C   UNL     1      43.718 -19.260   3.045  1.00  0.00    -0.060 A 
HETATM   23  C   UNL     1      43.916 -20.649   2.514  1.00  0.00     0.048 C 
HETATM   24  C   UNL     1      43.243 -18.242   2.210  1.00  0.00     0.016 A 
HETATM   25  C   UNL     1      43.029 -16.929   2.683  1.00  0.00    -0.033 A 
HETATM   26  C   UNL     1      42.644 -15.894   1.661  1.00  0.00     0.050 C 
ENDBRANCH   1  18
TORSDOF 3
ENDMDL
