MODEL 1
REMARK VINA RESULT:      -9.5      0.000      0.000
REMARK  7 active torsions:
REMARK  status: ('A' for Active; 'I' for Inactive)
REMARK    1  A    between atoms: C_2  and  C_3 
REMARK    2  A    between atoms: C_8  and  N_9 
REMARK    3  A    between atoms: N_9  and  C_10 
REMARK    4  A    between atoms: C_10  and  C_11 
REMARK       I    between atoms: C_11  and  N_12 
REMARK    5  A    between atoms: N_12  and  C_13 
REMARK    6  A    between atoms: C_24  and  N_25 
REMARK    7  A    between atoms: N_25  and  C_26 
ROOT
HETATM    1  N   UNL     1      42.803 -13.065   2.739  1.00  0.00    -0.282 NA
HETATM    2  H   UNL     1      43.677 -13.330   2.279  1.00  0.00     0.128 HD
ENDROOT
BRANCH   1   3
HETATM    3  C   UNL     1      41.804 -13.940   2.227  1.00  0.00     0.036 A 
HETATM    4  C   UNL     1      41.226 -13.795   0.958  1.00  0.00     0.042 A 
HETATM    5  C   UNL     1      40.262 -14.703   0.490  1.00  0.00     0.049 A 
HETATM    6  C   UNL     1      39.885 -15.770   1.310  1.00  0.00     0.018 A 
HETATM    7  C   UNL     1      40.456 -15.928   2.576  1.00  0.00     0.032 A 
HETATM    8  C   UNL     1      41.421 -15.039   3.053  1.00  0.00     0.049 A 
BRANCH   5   9
HETATM    9  C   UNL     1      39.659 -14.516  -0.880  1.00  0.00     0.417 C 
HETATM   10  F   UNL     1      40.573 -14.210  -1.841  1.00  0.00    -0.166 F 
HETATM   11  F   UNL     1      39.009 -15.628  -1.322  1.00  0.00    -0.166 F 
HETATM   12  F   UNL     1      38.740 -13.512  -0.906  1.00  0.00    -0.166 F 
ENDBRANCH   5   9
BRANCH   8  13
HETATM   13  N   UNL     1      41.963 -15.108   4.340  1.00  0.00    -0.384 N 
HETATM   14  H   UNL     1      42.191 -14.170   4.667  1.00  0.00     0.160 HD
BRANCH  13  15
HETATM   15  C   UNL     1      42.883 -16.132   4.840  1.00  0.00     0.081 C 
HETATM   16  C   UNL     1      43.345 -17.128   3.770  1.00  0.00     0.025 C 
HETATM   17  C   UNL     1      44.344 -18.133   4.343  1.00  0.00     0.002 C 
HETATM   18  C   UNL     1      43.789 -18.830   5.583  1.00  0.00     0.000 C 
HETATM   19  C   UNL     1      43.361 -17.826   6.651  1.00  0.00     0.002 C 
HETATM   20  C   UNL     1      42.355 -16.813   6.107  1.00  0.00     0.025 C 
ENDBRANCH  13  15
ENDBRANCH   8  13
ENDBRANCH   1   3
BRANCH   1  21
HETATM   21  C   UNL     1      42.618 -11.599   2.634  1.00  0.00     0.195 C 
BRANCH  21  22
HETATM   22  C   UNL     1      42.818 -10.863   3.970  1.00  0.00     0.235 C 
HETATM   23  N   UNL     1      43.745 -11.481   4.789  1.00  0.00    -0.326 N 
HETATM   24  H   UNL     1      44.118 -12.346   4.401  1.00  0.00     0.169 HD
HETATM   25  O   UNL     1      42.214  -9.820   4.205  1.00  0.00    -0.272 OA
BRANCH  23  26
HETATM   26  C   UNL     1      44.119 -11.142   6.100  1.00  0.00     0.037 A 
HETATM   27  C   UNL     1      43.197 -10.866   7.117  1.00  0.00     0.061 A 
HETATM   28  C   UNL     1      43.709 -10.579   8.362  1.00  0.00     0.065 A 
HETATM   29  C   UNL     1      45.076 -10.547   8.621  1.00  0.00     0.063 A 
HETATM   30  N   UNL     1      43.043 -10.291   9.550  1.00  0.00    -0.306 N 
HETATM   31  N   UNL     1      45.253 -10.236   9.963  1.00  0.00    -0.307 N 
HETATM   32  C   UNL     1      46.008 -10.802   7.647  1.00  0.00     0.034 A 
HETATM   33  C   UNL     1      43.992 -10.078  10.558  1.00  0.00     0.325 A 
HETATM   34  H   UNL     1      46.122 -10.144  10.462  1.00  0.00     0.170 HD
HETATM   35  O   UNL     1      43.770  -9.810  11.726  1.00  0.00    -0.247 OA
HETATM   36  C   UNL     1      45.513 -11.107   6.372  1.00  0.00     0.032 A 
HETATM   37  H   UNL     1      42.047 -10.249   9.693  1.00  0.00     0.170 HD
ENDBRANCH  23  26
ENDBRANCH  21  22
ENDBRANCH   1  21
TORSDOF 7
ENDMDL
MODEL 2
REMARK VINA RESULT:      -9.5      0.955      1.200
REMARK  7 active torsions:
REMARK  status: ('A' for Active; 'I' for Inactive)
REMARK    1  A    between atoms: C_2  and  C_3 
REMARK    2  A    between atoms: C_8  and  N_9 
REMARK    3  A    between atoms: N_9  and  C_10 
REMARK    4  A    between atoms: C_10  and  C_11 
REMARK       I    between atoms: C_11  and  N_12 
REMARK    5  A    between atoms: N_12  and  C_13 
REMARK    6  A    between atoms: C_24  and  N_25 
REMARK    7  A    between atoms: N_25  and  C_26 
ROOT
HETATM    1  N   UNL     1      43.229 -13.716   2.386  1.00  0.00    -0.282 NA
HETATM    2  H   UNL     1      43.889 -13.682   1.605  1.00  0.00     0.128 HD
ENDROOT
BRANCH   1   3
HETATM    3  C   UNL     1      42.056 -14.348   1.887  1.00  0.00     0.036 A 
HETATM    4  C   UNL     1      41.424 -13.974   0.693  1.00  0.00     0.042 A 
HETATM    5  C   UNL     1      40.282 -14.649   0.232  1.00  0.00     0.049 A 
HETATM    6  C   UNL     1      39.780 -15.716   0.982  1.00  0.00     0.018 A 
HETATM    7  C   UNL     1      40.402 -16.102   2.173  1.00  0.00     0.032 A 
HETATM    8  C   UNL     1      41.543 -15.446   2.641  1.00  0.00     0.049 A 
BRANCH   5   9
HETATM    9  C   UNL     1      39.626 -14.219  -1.056  1.00  0.00     0.417 C 
HETATM   10  F   UNL     1      38.720 -13.215  -0.899  1.00  0.00    -0.166 F 
HETATM   11  F   UNL     1      40.523 -13.774  -1.978  1.00  0.00    -0.166 F 
HETATM   12  F   UNL     1      38.952 -15.239  -1.655  1.00  0.00    -0.166 F 
ENDBRANCH   5   9
BRANCH   8  13
HETATM   13  N   UNL     1      42.154 -15.742   3.863  1.00  0.00    -0.384 N 
HETATM   14  H   UNL     1      42.379 -14.877   4.351  1.00  0.00     0.160 HD
BRANCH  13  15
HETATM   15  C   UNL     1      43.120 -16.814   4.112  1.00  0.00     0.081 C 
HETATM   16  C   UNL     1      43.270 -17.798   2.947  1.00  0.00     0.025 C 
HETATM   17  C   UNL     1      44.331 -18.856   3.251  1.00  0.00     0.002 C 
HETATM   18  C   UNL     1      44.056 -19.564   4.575  1.00  0.00     0.000 C 
HETATM   19  C   UNL     1      43.938 -18.573   5.731  1.00  0.00     0.002 C 
HETATM   20  C   UNL     1      42.878 -17.507   5.458  1.00  0.00     0.025 C 
ENDBRANCH  13  15
ENDBRANCH   8  13
ENDBRANCH   1   3
BRANCH   1  21
HETATM   21  C   UNL     1      43.133 -12.375   3.007  1.00  0.00     0.195 C 
BRANCH  21  22
HETATM   22  C   UNL     1      43.274 -12.402   4.538  1.00  0.00     0.235 C 
HETATM   23  N   UNL     1      43.762 -11.215   5.053  1.00  0.00    -0.326 N 
HETATM   24  H   UNL     1      43.991 -10.525   4.338  1.00  0.00     0.169 HD
HETATM   25  O   UNL     1      42.934 -13.393   5.179  1.00  0.00    -0.272 OA
BRANCH  23  26
HETATM   26  C   UNL     1      44.091 -10.908   6.383  1.00  0.00     0.037 A 
HETATM   27  C   UNL     1      43.140 -10.575   7.356  1.00  0.00     0.061 A 
HETATM   28  C   UNL     1      43.608 -10.330   8.627  1.00  0.00     0.065 A 
HETATM   29  C   UNL     1      44.959 -10.391   8.953  1.00  0.00     0.063 A 
HETATM   30  N   UNL     1      42.904 -10.003   9.783  1.00  0.00    -0.306 N 
HETATM   31  N   UNL     1      45.090 -10.100  10.306  1.00  0.00    -0.307 N 
HETATM   32  C   UNL     1      45.919 -10.704   8.025  1.00  0.00     0.034 A 
HETATM   33  C   UNL     1      43.814  -9.859  10.838  1.00  0.00     0.325 A 
HETATM   34  H   UNL     1      45.936 -10.069  10.847  1.00  0.00     0.170 HD
HETATM   35  O   UNL     1      43.552  -9.582  11.995  1.00  0.00    -0.247 OA
HETATM   36  C   UNL     1      45.469 -10.969   6.724  1.00  0.00     0.032 A 
HETATM   37  H   UNL     1      41.908  -9.894   9.876  1.00  0.00     0.170 HD
ENDBRANCH  23  26
ENDBRANCH  21  22
ENDBRANCH   1  21
TORSDOF 7
ENDMDL
MODEL 3
REMARK VINA RESULT:      -9.5      3.574      8.359
REMARK  7 active torsions:
REMARK  status: ('A' for Active; 'I' for Inactive)
REMARK    1  A    between atoms: C_2  and  C_3 
REMARK    2  A    between atoms: C_8  and  N_9 
REMARK    3  A    between atoms: N_9  and  C_10 
REMARK    4  A    between atoms: C_10  and  C_11 
REMARK       I    between atoms: C_11  and  N_12 
REMARK    5  A    between atoms: N_12  and  C_13 
REMARK    6  A    between atoms: C_24  and  N_25 
REMARK    7  A    between atoms: N_25  and  C_26 
ROOT
HETATM    1  N   UNL     1      41.935 -12.372   4.269  1.00  0.00    -0.282 NA
HETATM    2  H   UNL     1      41.819 -11.859   5.146  1.00  0.00     0.128 HD
ENDROOT
BRANCH   1   3
HETATM    3  C   UNL     1      42.481 -13.638   4.620  1.00  0.00     0.036 A 
HETATM    4  C   UNL     1      42.483 -14.745   3.760  1.00  0.00     0.042 A 
HETATM    5  C   UNL     1      43.059 -15.966   4.146  1.00  0.00     0.049 A 
HETATM    6  C   UNL     1      43.645 -16.065   5.411  1.00  0.00     0.018 A 
HETATM    7  C   UNL     1      43.653 -14.969   6.278  1.00  0.00     0.032 A 
HETATM    8  C   UNL     1      43.091 -13.746   5.906  1.00  0.00     0.049 A 
BRANCH   5   9
HETATM    9  C   UNL     1      43.043 -17.137   3.196  1.00  0.00     0.417 C 
HETATM   10  F   UNL     1      43.516 -18.291   3.743  1.00  0.00    -0.166 F 
HETATM   11  F   UNL     1      41.793 -17.424   2.739  1.00  0.00    -0.166 F 
HETATM   12  F   UNL     1      43.802 -16.912   2.088  1.00  0.00    -0.166 F 
ENDBRANCH   5   9
BRANCH   8  13
HETATM   13  N   UNL     1      43.004 -12.646   6.764  1.00  0.00    -0.384 N 
HETATM   14  H   UNL     1      42.281 -12.009   6.432  1.00  0.00     0.160 HD
BRANCH  13  15
HETATM   15  C   UNL     1      44.124 -11.959   7.411  1.00  0.00     0.081 C 
HETATM   16  C   UNL     1      43.701 -10.801   8.322  1.00  0.00     0.025 C 
HETATM   17  C   UNL     1      44.910 -10.165   9.006  1.00  0.00     0.002 C 
HETATM   18  C   UNL     1      45.972  -9.745   7.992  1.00  0.00     0.000 C 
HETATM   19  C   UNL     1      46.405 -10.916   7.112  1.00  0.00     0.002 C 
HETATM   20  C   UNL     1      45.216 -11.567   6.409  1.00  0.00     0.025 C 
ENDBRANCH  13  15
ENDBRANCH   8  13
ENDBRANCH   1   3
BRANCH   1  21
HETATM   21  C   UNL     1      42.639 -11.516   3.287  1.00  0.00     0.195 C 
BRANCH  21  22
HETATM   22  C   UNL     1      41.877 -11.358   1.960  1.00  0.00     0.235 C 
HETATM   23  N   UNL     1      40.949 -12.361   1.752  1.00  0.00    -0.326 N 
HETATM   24  H   UNL     1      40.944 -13.069   2.485  1.00  0.00     0.169 HD
HETATM   25  O   UNL     1      42.093 -10.396   1.227  1.00  0.00    -0.272 OA
BRANCH  23  26
HETATM   26  C   UNL     1      40.138 -12.583   0.627  1.00  0.00     0.037 A 
HETATM   27  C   UNL     1      40.434 -13.530  -0.361  1.00  0.00     0.061 A 
HETATM   28  C   UNL     1      39.530 -13.661  -1.391  1.00  0.00     0.065 A 
HETATM   29  C   UNL     1      38.374 -12.890  -1.475  1.00  0.00     0.063 A 
HETATM   30  N   UNL     1      39.549 -14.521  -2.484  1.00  0.00    -0.306 N 
HETATM   31  N   UNL     1      37.684 -13.272  -2.619  1.00  0.00    -0.307 N 
HETATM   32  C   UNL     1      38.057 -11.946  -0.531  1.00  0.00     0.034 A 
HETATM   33  C   UNL     1      38.404 -14.293  -3.258  1.00  0.00     0.325 A 
HETATM   34  H   UNL     1      36.809 -12.909  -2.957  1.00  0.00     0.170 HD
HETATM   35  O   UNL     1      38.089 -14.869  -4.284  1.00  0.00    -0.247 OA
HETATM   36  C   UNL     1      38.956 -11.801   0.534  1.00  0.00     0.032 A 
HETATM   37  H   UNL     1      40.250 -15.211  -2.701  1.00  0.00     0.170 HD
ENDBRANCH  23  26
ENDBRANCH  21  22
ENDBRANCH   1  21
TORSDOF 7
ENDMDL
MODEL 4
REMARK VINA RESULT:      -9.2      3.121      5.235
REMARK  7 active torsions:
REMARK  status: ('A' for Active; 'I' for Inactive)
REMARK    1  A    between atoms: C_2  and  C_3 
REMARK    2  A    between atoms: C_8  and  N_9 
REMARK    3  A    between atoms: N_9  and  C_10 
REMARK    4  A    between atoms: C_10  and  C_11 
REMARK       I    between atoms: C_11  and  N_12 
REMARK    5  A    between atoms: N_12  and  C_13 
REMARK    6  A    between atoms: C_24  and  N_25 
REMARK    7  A    between atoms: N_25  and  C_26 
ROOT
HETATM    1  N   UNL     1      40.305 -15.109   3.968  1.00  0.00    -0.282 NA
HETATM    2  H   UNL     1      39.567 -15.817   3.986  1.00  0.00     0.128 HD
ENDROOT
BRANCH   1   3
HETATM    3  C   UNL     1      41.418 -15.712   3.318  1.00  0.00     0.036 A 
HETATM    4  C   UNL     1      42.044 -16.878   3.780  1.00  0.00     0.042 A 
HETATM    5  C   UNL     1      43.124 -17.448   3.085  1.00  0.00     0.049 A 
HETATM    6  C   UNL     1      43.568 -16.836   1.910  1.00  0.00     0.018 A 
HETATM    7  C   UNL     1      42.951 -15.675   1.436  1.00  0.00     0.032 A 
HETATM    8  C   UNL     1      41.871 -15.101   2.111  1.00  0.00     0.049 A 
BRANCH   5   9
HETATM    9  C   UNL     1      43.775 -18.702   3.611  1.00  0.00     0.417 C 
HETATM   10  F   UNL     1      43.551 -18.920   4.936  1.00  0.00    -0.166 F 
HETATM   11  F   UNL     1      43.347 -19.824   2.969  1.00  0.00    -0.166 F 
HETATM   12  F   UNL     1      45.129 -18.681   3.460  1.00  0.00    -0.166 F 
ENDBRANCH   5   9
BRANCH   8  13
HETATM   13  N   UNL     1      41.272 -13.899   1.723  1.00  0.00    -0.384 N 
HETATM   14  H   UNL     1      40.731 -13.520   2.498  1.00  0.00     0.160 HD
BRANCH  13  15
HETATM   15  C   UNL     1      40.686 -13.605   0.413  1.00  0.00     0.081 C 
HETATM   16  C   UNL     1      39.955 -12.260   0.347  1.00  0.00     0.025 C 
HETATM   17  C   UNL     1      39.416 -11.991  -1.058  1.00  0.00     0.002 C 
HETATM   18  C   UNL     1      38.551 -13.146  -1.558  1.00  0.00     0.000 C 
HETATM   19  C   UNL     1      39.303 -14.474  -1.514  1.00  0.00     0.002 C 
HETATM   20  C   UNL     1      39.847 -14.772  -0.118  1.00  0.00     0.025 C 
ENDBRANCH  13  15
ENDBRANCH   8  13
ENDBRANCH   1   3
BRANCH   1  21
HETATM   21  C   UNL     1      40.469 -14.537   5.325  1.00  0.00     0.195 C 
BRANCH  21  22
HETATM   22  C   UNL     1      41.325 -13.259   5.346  1.00  0.00     0.235 C 
HETATM   23  N   UNL     1      42.212 -13.225   6.406  1.00  0.00    -0.326 N 
HETATM   24  H   UNL     1      42.133 -14.028   7.029  1.00  0.00     0.169 HD
HETATM   25  O   UNL     1      41.208 -12.414   4.462  1.00  0.00    -0.272 OA
BRANCH  23  26
HETATM   26  C   UNL     1      43.084 -12.191   6.785  1.00  0.00     0.037 A 
HETATM   27  C   UNL     1      42.646 -10.949   7.259  1.00  0.00     0.061 A 
HETATM   28  C   UNL     1      43.615 -10.043   7.624  1.00  0.00     0.065 A 
HETATM   29  C   UNL     1      44.976 -10.320   7.525  1.00  0.00     0.063 A 
HETATM   30  N   UNL     1      43.479  -8.758   8.141  1.00  0.00    -0.306 N 
HETATM   31  N   UNL     1      45.676  -9.209   7.976  1.00  0.00    -0.307 N 
HETATM   32  C   UNL     1      45.441 -11.523   7.057  1.00  0.00     0.034 A 
HETATM   33  C   UNL     1      44.755  -8.225   8.369  1.00  0.00     0.325 A 
HETATM   34  H   UNL     1      46.674  -9.096   8.038  1.00  0.00     0.170 HD
HETATM   35  O   UNL     1      45.017  -7.126   8.822  1.00  0.00    -0.247 OA
HETATM   36  C   UNL     1      44.474 -12.467   6.688  1.00  0.00     0.032 A 
HETATM   37  H   UNL     1      42.620  -8.271   8.340  1.00  0.00     0.170 HD
ENDBRANCH  23  26
ENDBRANCH  21  22
ENDBRANCH   1  21
TORSDOF 7
ENDMDL
MODEL 5
REMARK VINA RESULT:      -9.1      4.529      8.829
REMARK  7 active torsions:
REMARK  status: ('A' for Active; 'I' for Inactive)
REMARK    1  A    between atoms: C_2  and  C_3 
REMARK    2  A    between atoms: C_8  and  N_9 
REMARK    3  A    between atoms: N_9  and  C_10 
REMARK    4  A    between atoms: C_10  and  C_11 
REMARK       I    between atoms: C_11  and  N_12 
REMARK    5  A    between atoms: N_12  and  C_13 
REMARK    6  A    between atoms: C_24  and  N_25 
REMARK    7  A    between atoms: N_25  and  C_26 
ROOT
HETATM    1  N   UNL     1      42.269 -15.450   2.770  1.00  0.00    -0.282 NA
HETATM    2  H   UNL     1      42.722 -14.655   3.227  1.00  0.00     0.128 HD
ENDROOT
BRANCH   1   3
HETATM    3  C   UNL     1      42.890 -16.617   3.296  1.00  0.00     0.036 A 
HETATM    4  C   UNL     1      42.904 -17.851   2.633  1.00  0.00     0.042 A 
HETATM    5  C   UNL     1      43.555 -18.967   3.184  1.00  0.00     0.049 A 
HETATM    6  C   UNL     1      44.202 -18.829   4.415  1.00  0.00     0.018 A 
HETATM    7  C   UNL     1      44.199 -17.604   5.087  1.00  0.00     0.032 A 
HETATM    8  C   UNL     1      43.564 -16.483   4.547  1.00  0.00     0.049 A 
BRANCH   5   9
HETATM    9  C   UNL     1      43.549 -20.281   2.444  1.00  0.00     0.417 C 
HETATM   10  F   UNL     1      42.369 -20.552   1.822  1.00  0.00    -0.166 F 
HETATM   11  F   UNL     1      44.505 -20.341   1.477  1.00  0.00    -0.166 F 
HETATM   12  F   UNL     1      43.786 -21.338   3.269  1.00  0.00    -0.166 F 
ENDBRANCH   5   9
BRANCH   8  13
HETATM   13  N   UNL     1      43.465 -15.259   5.215  1.00  0.00    -0.384 N 
HETATM   14  H   UNL     1      43.870 -15.343   6.146  1.00  0.00     0.160 HD
BRANCH  13  15
HETATM   15  C   UNL     1      42.333 -14.331   5.161  1.00  0.00     0.081 C 
HETATM   16  C   UNL     1      42.743 -12.855   5.101  1.00  0.00     0.025 C 
HETATM   17  C   UNL     1      41.520 -11.945   4.990  1.00  0.00     0.002 C 
HETATM   18  C   UNL     1      40.512 -12.222   6.104  1.00  0.00     0.000 C 
HETATM   19  C   UNL     1      40.091 -13.689   6.133  1.00  0.00     0.002 C 
HETATM   20  C   UNL     1      41.295 -14.622   6.250  1.00  0.00     0.025 C 
ENDBRANCH  13  15
ENDBRANCH   8  13
ENDBRANCH   1   3
BRANCH   1  21
HETATM   21  C   UNL     1      42.246 -15.227   1.306  1.00  0.00     0.195 C 
BRANCH  21  22
HETATM   22  C   UNL     1      40.827 -15.054   0.739  1.00  0.00     0.235 C 
HETATM   23  N   UNL     1      40.799 -14.289  -0.413  1.00  0.00    -0.326 N 
HETATM   24  H   UNL     1      41.713 -13.926  -0.682  1.00  0.00     0.169 HD
HETATM   25  O   UNL     1      39.868 -15.597   1.280  1.00  0.00    -0.272 OA
BRANCH  23  26
HETATM   26  C   UNL     1      39.685 -13.860  -1.152  1.00  0.00     0.037 A 
HETATM   27  C   UNL     1      39.068 -12.616  -0.964  1.00  0.00     0.061 A 
HETATM   28  C   UNL     1      38.004 -12.317  -1.784  1.00  0.00     0.065 A 
HETATM   29  C   UNL     1      37.535 -13.198  -2.755  1.00  0.00     0.063 A 
HETATM   30  N   UNL     1      37.223 -11.167  -1.840  1.00  0.00    -0.306 N 
HETATM   31  N   UNL     1      36.466 -12.594  -3.405  1.00  0.00    -0.307 N 
HETATM   32  C   UNL     1      38.108 -14.428  -2.960  1.00  0.00     0.034 A 
HETATM   33  C   UNL     1      36.262 -11.322  -2.847  1.00  0.00     0.325 A 
HETATM   34  H   UNL     1      35.917 -12.968  -4.159  1.00  0.00     0.170 HD
HETATM   35  O   UNL     1      35.415 -10.513  -3.180  1.00  0.00    -0.247 OA
HETATM   36  C   UNL     1      39.201 -14.753  -2.145  1.00  0.00     0.032 A 
HETATM   37  H   UNL     1      37.319 -10.340  -1.273  1.00  0.00     0.170 HD
ENDBRANCH  23  26
ENDBRANCH  21  22
ENDBRANCH   1  21
TORSDOF 7
ENDMDL
MODEL 6
REMARK VINA RESULT:      -9.1      4.288      8.739
REMARK  7 active torsions:
REMARK  status: ('A' for Active; 'I' for Inactive)
REMARK    1  A    between atoms: C_2  and  C_3 
REMARK    2  A    between atoms: C_8  and  N_9 
REMARK    3  A    between atoms: N_9  and  C_10 
REMARK    4  A    between atoms: C_10  and  C_11 
REMARK       I    between atoms: C_11  and  N_12 
REMARK    5  A    between atoms: N_12  and  C_13 
REMARK    6  A    between atoms: C_24  and  N_25 
REMARK    7  A    between atoms: N_25  and  C_26 
ROOT
HETATM    1  N   UNL     1      41.422 -15.790   2.559  1.00  0.00    -0.282 NA
HETATM    2  H   UNL     1      41.382 -15.027   3.239  1.00  0.00     0.128 HD
ENDROOT
BRANCH   1   3
HETATM    3  C   UNL     1      42.277 -16.778   3.122  1.00  0.00     0.036 A 
HETATM    4  C   UNL     1      42.560 -18.001   2.499  1.00  0.00     0.042 A 
HETATM    5  C   UNL     1      43.432 -18.932   3.086  1.00  0.00     0.049 A 
HETATM    6  C   UNL     1      44.029 -18.619   4.310  1.00  0.00     0.018 A 
HETATM    7  C   UNL     1      43.759 -17.401   4.941  1.00  0.00     0.032 A 
HETATM    8  C   UNL     1      42.900 -16.462   4.367  1.00  0.00     0.049 A 
BRANCH   5   9
HETATM    9  C   UNL     1      43.713 -20.240   2.389  1.00  0.00     0.417 C 
HETATM   10  F   UNL     1      43.994 -21.264   3.242  1.00  0.00    -0.166 F 
HETATM   11  F   UNL     1      42.668 -20.663   1.627  1.00  0.00    -0.166 F 
HETATM   12  F   UNL     1      44.780 -20.155   1.546  1.00  0.00    -0.166 F 
ENDBRANCH   5   9
BRANCH   8  13
HETATM   13  N   UNL     1      42.537 -15.267   4.994  1.00  0.00    -0.384 N 
HETATM   14  H   UNL     1      41.567 -15.045   4.773  1.00  0.00     0.160 HD
BRANCH  13  15
HETATM   15  C   UNL     1      43.378 -14.078   5.150  1.00  0.00     0.081 C 
HETATM   16  C   UNL     1      43.611 -13.669   6.609  1.00  0.00     0.025 C 
HETATM   17  C   UNL     1      44.539 -12.458   6.702  1.00  0.00     0.002 C 
HETATM   18  C   UNL     1      44.034 -11.297   5.849  1.00  0.00     0.000 C 
HETATM   19  C   UNL     1      43.835 -11.712   4.393  1.00  0.00     0.002 C 
HETATM   20  C   UNL     1      42.904 -12.917   4.269  1.00  0.00     0.025 C 
ENDBRANCH  13  15
ENDBRANCH   8  13
ENDBRANCH   1   3
BRANCH   1  21
HETATM   21  C   UNL     1      41.722 -15.238   1.218  1.00  0.00     0.195 C 
BRANCH  21  22
HETATM   22  C   UNL     1      40.691 -14.200   0.743  1.00  0.00     0.235 C 
HETATM   23  N   UNL     1      40.715 -14.008  -0.626  1.00  0.00    -0.326 N 
HETATM   24  H   UNL     1      41.437 -14.548  -1.100  1.00  0.00     0.169 HD
HETATM   25  O   UNL     1      39.930 -13.664   1.544  1.00  0.00    -0.272 OA
BRANCH  23  26
HETATM   26  C   UNL     1      39.980 -13.089  -1.394  1.00  0.00     0.037 A 
HETATM   27  C   UNL     1      40.540 -11.940  -1.966  1.00  0.00     0.061 A 
HETATM   28  C   UNL     1      39.705 -11.148  -2.720  1.00  0.00     0.065 A 
HETATM   29  C   UNL     1      38.359 -11.448  -2.913  1.00  0.00     0.063 A 
HETATM   30  N   UNL     1      39.984  -9.975  -3.415  1.00  0.00    -0.306 N 
HETATM   31  N   UNL     1      37.809 -10.461  -3.721  1.00  0.00    -0.307 N 
HETATM   32  C   UNL     1      37.775 -12.560  -2.361  1.00  0.00     0.034 A 
HETATM   33  C   UNL     1      38.813  -9.536  -4.047  1.00  0.00     0.325 A 
HETATM   34  H   UNL     1      36.860 -10.395  -4.048  1.00  0.00     0.170 HD
HETATM   35  O   UNL     1      38.687  -8.547  -4.746  1.00  0.00    -0.247 OA
HETATM   36  C   UNL     1      38.606 -13.389  -1.596  1.00  0.00     0.032 A 
HETATM   37  H   UNL     1      40.872  -9.505  -3.481  1.00  0.00     0.170 HD
ENDBRANCH  23  26
ENDBRANCH  21  22
ENDBRANCH   1  21
TORSDOF 7
ENDMDL
MODEL 7
REMARK VINA RESULT:      -9.0      2.908      5.043
REMARK  7 active torsions:
REMARK  status: ('A' for Active; 'I' for Inactive)
REMARK    1  A    between atoms: C_2  and  C_3 
REMARK    2  A    between atoms: C_8  and  N_9 
REMARK    3  A    between atoms: N_9  and  C_10 
REMARK    4  A    between atoms: C_10  and  C_11 
REMARK       I    between atoms: C_11  and  N_12 
REMARK    5  A    between atoms: N_12  and  C_13 
REMARK    6  A    between atoms: C_24  and  N_25 
REMARK    7  A    between atoms: N_25  and  C_26 
ROOT
HETATM    1  N   UNL     1      41.908 -13.045   3.463  1.00  0.00    -0.282 NA
HETATM    2  H   UNL     1      41.789 -12.931   4.472  1.00  0.00     0.128 HD
ENDROOT
BRANCH   1   3
HETATM    3  C   UNL     1      42.042 -14.443   3.234  1.00  0.00     0.036 A 
HETATM    4  C   UNL     1      42.893 -15.270   3.979  1.00  0.00     0.042 A 
HETATM    5  C   UNL     1      42.968 -16.650   3.730  1.00  0.00     0.049 A 
HETATM    6  C   UNL     1      42.168 -17.198   2.723  1.00  0.00     0.018 A 
HETATM    7  C   UNL     1      41.313 -16.386   1.975  1.00  0.00     0.032 A 
HETATM    8  C   UNL     1      41.221 -15.013   2.216  1.00  0.00     0.049 A 
BRANCH   5   9
HETATM    9  C   UNL     1      43.896 -17.511   4.550  1.00  0.00     0.417 C 
HETATM   10  F   UNL     1      44.849 -16.804   5.219  1.00  0.00    -0.166 F 
HETATM   11  F   UNL     1      43.239 -18.239   5.494  1.00  0.00    -0.166 F 
HETATM   12  F   UNL     1      44.570 -18.414   3.785  1.00  0.00    -0.166 F 
ENDBRANCH   5   9
BRANCH   8  13
HETATM   13  N   UNL     1      40.441 -14.147   1.444  1.00  0.00    -0.384 N 
HETATM   14  H   UNL     1      39.456 -14.280   1.669  1.00  0.00     0.160 HD
BRANCH  13  15
HETATM   15  C   UNL     1      40.668 -13.792   0.041  1.00  0.00     0.081 C 
HETATM   16  C   UNL     1      40.822 -12.287  -0.202  1.00  0.00     0.025 C 
HETATM   17  C   UNL     1      41.110 -11.990  -1.673  1.00  0.00     0.002 C 
HETATM   18  C   UNL     1      40.063 -12.621  -2.589  1.00  0.00     0.000 C 
HETATM   19  C   UNL     1      39.943 -14.125  -2.356  1.00  0.00     0.002 C 
HETATM   20  C   UNL     1      39.647 -14.451  -0.892  1.00  0.00     0.025 C 
ENDBRANCH  13  15
ENDBRANCH   8  13
ENDBRANCH   1   3
BRANCH   1  21
HETATM   21  C   UNL     1      42.962 -12.119   2.985  1.00  0.00     0.195 C 
BRANCH  21  22
HETATM   22  C   UNL     1      43.877 -11.606   4.110  1.00  0.00     0.235 C 
HETATM   23  N   UNL     1      43.233 -11.529   5.331  1.00  0.00    -0.326 N 
HETATM   24  H   UNL     1      42.247 -11.782   5.289  1.00  0.00     0.169 HD
HETATM   25  O   UNL     1      45.056 -11.346   3.886  1.00  0.00    -0.272 OA
BRANCH  23  26
HETATM   26  C   UNL     1      43.726 -11.034   6.550  1.00  0.00     0.037 A 
HETATM   27  C   UNL     1      42.927 -10.373   7.492  1.00  0.00     0.061 A 
HETATM   28  C   UNL     1      43.540  -9.971   8.657  1.00  0.00     0.065 A 
HETATM   29  C   UNL     1      44.892 -10.189   8.906  1.00  0.00     0.063 A 
HETATM   30  N   UNL     1      43.002  -9.322   9.764  1.00  0.00    -0.306 N 
HETATM   31  N   UNL     1      45.188  -9.672  10.162  1.00  0.00    -0.307 N 
HETATM   32  C   UNL     1      45.706 -10.824   8.003  1.00  0.00     0.034 A 
HETATM   33  C   UNL     1      44.016  -9.131  10.712  1.00  0.00     0.325 A 
HETATM   34  H   UNL     1      46.076  -9.678  10.634  1.00  0.00     0.170 HD
HETATM   35  O   UNL     1      43.905  -8.602  11.804  1.00  0.00    -0.247 OA
HETATM   36  C   UNL     1      45.105 -11.253   6.812  1.00  0.00     0.032 A 
HETATM   37  H   UNL     1      42.045  -9.037   9.895  1.00  0.00     0.170 HD
ENDBRANCH  23  26
ENDBRANCH  21  22
ENDBRANCH   1  21
TORSDOF 7
ENDMDL
MODEL 8
REMARK VINA RESULT:      -8.9      3.302      5.024
REMARK  7 active torsions:
REMARK  status: ('A' for Active; 'I' for Inactive)
REMARK    1  A    between atoms: C_2  and  C_3 
REMARK    2  A    between atoms: C_8  and  N_9 
REMARK    3  A    between atoms: N_9  and  C_10 
REMARK    4  A    between atoms: C_10  and  C_11 
REMARK       I    between atoms: C_11  and  N_12 
REMARK    5  A    between atoms: N_12  and  C_13 
REMARK    6  A    between atoms: C_24  and  N_25 
REMARK    7  A    between atoms: N_25  and  C_26 
ROOT
HETATM    1  N   UNL     1      40.392 -15.387   4.717  1.00  0.00    -0.282 NA
HETATM    2  H   UNL     1      39.495 -15.769   4.408  1.00  0.00     0.128 HD
ENDROOT
BRANCH   1   3
HETATM    3  C   UNL     1      41.368 -15.888   3.811  1.00  0.00     0.036 A 
HETATM    4  C   UNL     1      42.205 -16.976   4.100  1.00  0.00     0.042 A 
HETATM    5  C   UNL     1      43.135 -17.448   3.160  1.00  0.00     0.049 A 
HETATM    6  C   UNL     1      43.214 -16.818   1.915  1.00  0.00     0.018 A 
HETATM    7  C   UNL     1      42.385 -15.735   1.612  1.00  0.00     0.032 A 
HETATM    8  C   UNL     1      41.449 -15.259   2.533  1.00  0.00     0.049 A 
BRANCH   5   9
HETATM    9  C   UNL     1      44.021 -18.619   3.504  1.00  0.00     0.417 C 
HETATM   10  F   UNL     1      44.511 -18.578   4.774  1.00  0.00    -0.166 F 
HETATM   11  F   UNL     1      43.378 -19.813   3.389  1.00  0.00    -0.166 F 
HETATM   12  F   UNL     1      45.107 -18.700   2.687  1.00  0.00    -0.166 F 
ENDBRANCH   5   9
BRANCH   8  13
HETATM   13  N   UNL     1      40.653 -14.132   2.308  1.00  0.00    -0.384 N 
HETATM   14  H   UNL     1      40.080 -14.277   1.478  1.00  0.00     0.160 HD
BRANCH  13  15
HETATM   15  C   UNL     1      41.054 -12.736   2.494  1.00  0.00     0.081 C 
HETATM   16  C   UNL     1      42.515 -12.562   2.925  1.00  0.00     0.025 C 
HETATM   17  C   UNL     1      42.883 -11.083   3.047  1.00  0.00     0.002 C 
HETATM   18  C   UNL     1      41.916 -10.338   3.965  1.00  0.00     0.000 C 
HETATM   19  C   UNL     1      40.468 -10.497   3.506  1.00  0.00     0.002 C 
HETATM   20  C   UNL     1      40.070 -11.967   3.382  1.00  0.00     0.025 C 
ENDBRANCH  13  15
ENDBRANCH   8  13
ENDBRANCH   1   3
BRANCH   1  21
HETATM   21  C   UNL     1      40.551 -15.620   6.171  1.00  0.00     0.195 C 
BRANCH  21  22
HETATM   22  C   UNL     1      41.736 -14.854   6.783  1.00  0.00     0.235 C 
HETATM   23  N   UNL     1      41.801 -13.540   6.361  1.00  0.00    -0.326 N 
HETATM   24  H   UNL     1      41.083 -13.295   5.680  1.00  0.00     0.169 HD
HETATM   25  O   UNL     1      42.485 -15.403   7.587  1.00  0.00    -0.272 OA
BRANCH  23  26
HETATM   26  C   UNL     1      42.783 -12.576   6.646  1.00  0.00     0.037 A 
HETATM   27  C   UNL     1      42.497 -11.330   7.218  1.00  0.00     0.061 A 
HETATM   28  C   UNL     1      43.564 -10.500   7.471  1.00  0.00     0.065 A 
HETATM   29  C   UNL     1      44.877 -10.854   7.171  1.00  0.00     0.063 A 
HETATM   30  N   UNL     1      43.586  -9.231   8.044  1.00  0.00    -0.306 N 
HETATM   31  N   UNL     1      45.704  -9.805   7.554  1.00  0.00    -0.307 N 
HETATM   32  C   UNL     1      45.193 -12.061   6.602  1.00  0.00     0.034 A 
HETATM   33  C   UNL     1      44.912  -8.786   8.106  1.00  0.00     0.325 A 
HETATM   34  H   UNL     1      46.706  -9.755   7.477  1.00  0.00     0.170 HD
HETATM   35  O   UNL     1      45.307  -7.724   8.552  1.00  0.00    -0.247 OA
HETATM   36  C   UNL     1      44.125 -12.930   6.343  1.00  0.00     0.032 A 
HETATM   37  H   UNL     1      42.796  -8.704   8.379  1.00  0.00     0.170 HD
ENDBRANCH  23  26
ENDBRANCH  21  22
ENDBRANCH   1  21
TORSDOF 7
ENDMDL
MODEL 9
REMARK VINA RESULT:      -8.8      4.812      8.580
REMARK  7 active torsions:
REMARK  status: ('A' for Active; 'I' for Inactive)
REMARK    1  A    between atoms: C_2  and  C_3 
REMARK    2  A    between atoms: C_8  and  N_9 
REMARK    3  A    between atoms: N_9  and  C_10 
REMARK    4  A    between atoms: C_10  and  C_11 
REMARK       I    between atoms: C_11  and  N_12 
REMARK    5  A    between atoms: N_12  and  C_13 
REMARK    6  A    between atoms: C_24  and  N_25 
REMARK    7  A    between atoms: N_25  and  C_26 
ROOT
HETATM    1  N   UNL     1      41.216 -11.316   6.631  1.00  0.00    -0.282 NA
HETATM    2  H   UNL     1      40.840 -10.975   7.519  1.00  0.00     0.128 HD
ENDROOT
BRANCH   1   3
HETATM    3  C   UNL     1      42.630 -11.345   6.785  1.00  0.00     0.036 A 
HETATM    4  C   UNL     1      43.359 -10.335   7.427  1.00  0.00     0.042 A 
HETATM    5  C   UNL     1      44.752 -10.424   7.575  1.00  0.00     0.049 A 
HETATM    6  C   UNL     1      45.413 -11.550   7.075  1.00  0.00     0.018 A 
HETATM    7  C   UNL     1      44.699 -12.567   6.436  1.00  0.00     0.032 A 
HETATM    8  C   UNL     1      43.312 -12.497   6.288  1.00  0.00     0.049 A 
BRANCH   5   9
HETATM    9  C   UNL     1      45.506  -9.318   8.270  1.00  0.00     0.417 C 
HETATM   10  F   UNL     1      44.821  -8.142   8.325  1.00  0.00    -0.166 F 
HETATM   11  F   UNL     1      45.823  -9.627   9.557  1.00  0.00    -0.166 F 
HETATM   12  F   UNL     1      46.686  -9.033   7.653  1.00  0.00    -0.166 F 
ENDBRANCH   5   9
BRANCH   8  13
HETATM   13  N   UNL     1      42.563 -13.447   5.588  1.00  0.00    -0.384 N 
HETATM   14  H   UNL     1      41.847 -13.837   6.200  1.00  0.00     0.160 HD
BRANCH  13  15
HETATM   15  C   UNL     1      43.079 -14.414   4.616  1.00  0.00     0.081 C 
HETATM   16  C   UNL     1      42.614 -14.157   3.178  1.00  0.00     0.025 C 
HETATM   17  C   UNL     1      43.231 -15.166   2.209  1.00  0.00     0.002 C 
HETATM   18  C   UNL     1      42.971 -16.603   2.654  1.00  0.00     0.000 C 
HETATM   19  C   UNL     1      43.466 -16.851   4.077  1.00  0.00     0.002 C 
HETATM   20  C   UNL     1      42.859 -15.861   5.070  1.00  0.00     0.025 C 
ENDBRANCH  13  15
ENDBRANCH   8  13
ENDBRANCH   1   3
BRANCH   1  21
HETATM   21  C   UNL     1      40.614 -10.551   5.515  1.00  0.00     0.195 C 
BRANCH  21  22
HETATM   22  C   UNL     1      40.164 -11.437   4.342  1.00  0.00     0.235 C 
HETATM   23  N   UNL     1      40.320 -10.821   3.114  1.00  0.00    -0.326 N 
HETATM   24  H   UNL     1      40.666  -9.865   3.179  1.00  0.00     0.169 HD
HETATM   25  O   UNL     1      39.755 -12.578   4.542  1.00  0.00    -0.272 OA
BRANCH  23  26
HETATM   26  C   UNL     1      39.944 -11.292   1.845  1.00  0.00     0.037 A 
HETATM   27  C   UNL     1      40.834 -11.912   0.958  1.00  0.00     0.061 A 
HETATM   28  C   UNL     1      40.317 -12.351  -0.239  1.00  0.00     0.065 A 
HETATM   29  C   UNL     1      38.978 -12.190  -0.581  1.00  0.00     0.063 A 
HETATM   30  N   UNL     1      40.949 -13.011  -1.289  1.00  0.00    -0.306 N 
HETATM   31  N   UNL     1      38.785 -12.745  -1.840  1.00  0.00    -0.307 N 
HETATM   32  C   UNL     1      38.080 -11.580   0.258  1.00  0.00     0.034 A 
HETATM   33  C   UNL     1      40.007 -13.266  -2.294  1.00  0.00     0.325 A 
HETATM   34  H   UNL     1      37.928 -12.794  -2.364  1.00  0.00     0.170 HD
HETATM   35  O   UNL     1      40.204 -13.832  -3.354  1.00  0.00    -0.247 OA
HETATM   36  C   UNL     1      38.579 -11.132   1.488  1.00  0.00     0.032 A 
HETATM   37  H   UNL     1      41.917 -13.283  -1.340  1.00  0.00     0.170 HD
ENDBRANCH  23  26
ENDBRANCH  21  22
ENDBRANCH   1  21
TORSDOF 7
ENDMDL
MODEL 10
REMARK VINA RESULT:      -8.7     16.492     18.392
REMARK  7 active torsions:
REMARK  status: ('A' for Active; 'I' for Inactive)
REMARK    1  A    between atoms: C_2  and  C_3 
REMARK    2  A    between atoms: C_8  and  N_9 
REMARK    3  A    between atoms: N_9  and  C_10 
REMARK    4  A    between atoms: C_10  and  C_11 
REMARK       I    between atoms: C_11  and  N_12 
REMARK    5  A    between atoms: N_12  and  C_13 
REMARK    6  A    between atoms: C_24  and  N_25 
REMARK    7  A    between atoms: N_25  and  C_26 
ROOT
HETATM    1  N   UNL     1      44.479 -29.163   1.284  1.00  0.00    -0.282 NA
HETATM    2  H   UNL     1      43.855 -28.372   1.457  1.00  0.00     0.128 HD
ENDROOT
BRANCH   1   3
HETATM    3  C   UNL     1      45.294 -28.792   0.177  1.00  0.00     0.036 A 
HETATM    4  C   UNL     1      44.846 -28.805  -1.151  1.00  0.00     0.042 A 
HETATM    5  C   UNL     1      45.683 -28.403  -2.205  1.00  0.00     0.049 A 
HETATM    6  C   UNL     1      46.982 -27.979  -1.910  1.00  0.00     0.018 A 
HETATM    7  C   UNL     1      47.441 -27.958  -0.590  1.00  0.00     0.032 A 
HETATM    8  C   UNL     1      46.618 -28.346   0.469  1.00  0.00     0.049 A 
BRANCH   5   9
HETATM    9  C   UNL     1      45.170 -28.430  -3.622  1.00  0.00     0.417 C 
HETATM   10  F   UNL     1      45.278 -27.235  -4.265  1.00  0.00    -0.166 F 
HETATM   11  F   UNL     1      45.826 -29.334  -4.400  1.00  0.00    -0.166 F 
HETATM   12  F   UNL     1      43.853 -28.770  -3.686  1.00  0.00    -0.166 F 
ENDBRANCH   5   9
BRANCH   8  13
HETATM   13  N   UNL     1      47.054 -28.419   1.796  1.00  0.00    -0.384 N 
HETATM   14  H   UNL     1      47.146 -27.478   2.178  1.00  0.00     0.160 HD
BRANCH  13  15
HETATM   15  C   UNL     1      48.038 -29.359   2.335  1.00  0.00     0.081 C 
HETATM   16  C   UNL     1      47.487 -30.769   2.570  1.00  0.00     0.025 C 
HETATM   17  C   UNL     1      48.577 -31.712   3.079  1.00  0.00     0.002 C 
HETATM   18  C   UNL     1      49.272 -31.149   4.317  1.00  0.00     0.000 C 
HETATM   19  C   UNL     1      49.842 -29.756   4.059  1.00  0.00     0.002 C 
HETATM   20  C   UNL     1      48.771 -28.790   3.555  1.00  0.00     0.025 C 
ENDBRANCH  13  15
ENDBRANCH   8  13
ENDBRANCH   1   3
BRANCH   1  21
HETATM   21  C   UNL     1      43.685 -30.412   1.224  1.00  0.00     0.195 C 
BRANCH  21  22
HETATM   22  C   UNL     1      42.473 -30.408   2.171  1.00  0.00     0.235 C 
HETATM   23  N   UNL     1      42.368 -31.570   2.913  1.00  0.00    -0.326 N 
HETATM   24  H   UNL     1      43.081 -32.262   2.687  1.00  0.00     0.169 HD
HETATM   25  O   UNL     1      41.738 -29.426   2.240  1.00  0.00    -0.272 OA
BRANCH  23  26
HETATM   26  C   UNL     1      41.355 -31.948   3.810  1.00  0.00     0.037 A 
HETATM   27  C   UNL     1      40.054 -32.276   3.409  1.00  0.00     0.061 A 
HETATM   28  C   UNL     1      39.175 -32.659   4.396  1.00  0.00     0.065 A 
HETATM   29  C   UNL     1      39.535 -32.715   5.739  1.00  0.00     0.063 A 
HETATM   30  N   UNL     1      37.845 -33.056   4.294  1.00  0.00    -0.306 N 
HETATM   31  N   UNL     1      38.429 -33.142   6.464  1.00  0.00    -0.307 N 
HETATM   32  C   UNL     1      40.797 -32.392   6.169  1.00  0.00     0.034 A 
HETATM   33  C   UNL     1      37.367 -33.363   5.574  1.00  0.00     0.325 A 
HETATM   34  H   UNL     1      38.367 -33.290   7.457  1.00  0.00     0.170 HD
HETATM   35  O   UNL     1      36.249 -33.750   5.863  1.00  0.00    -0.247 OA
HETATM   36  C   UNL     1      41.715 -32.008   5.183  1.00  0.00     0.032 A 
HETATM   37  H   UNL     1      37.297 -33.132   3.453  1.00  0.00     0.170 HD
ENDBRANCH  23  26
ENDBRANCH  21  22
ENDBRANCH   1  21
TORSDOF 7
ENDMDL
