MODEL 1
REMARK VINA RESULT:      -9.0      0.000      0.000
REMARK  5 active torsions:
REMARK  status: ('A' for Active; 'I' for Inactive)
REMARK    1  A    between atoms: C_2  and  C_3 
REMARK    2  A    between atoms: C_2  and  C_9 
REMARK    3  A    between atoms: C_9  and  C_10 
REMARK       I    between atoms: C_10  and  N_11 
REMARK    4  A    between atoms: N_11  and  C_12 
REMARK    5  A    between atoms: C_19  and  C_20 
REMARK       I    between atoms: C_20  and  N_21 
ROOT
HETATM    1  C   UNL     1      40.712 -13.674   0.439  1.00  0.00     0.035 A 
HETATM    2  C   UNL     1      40.072 -14.257  -0.664  1.00  0.00     0.046 A 
HETATM    3  C   UNL     1      39.064 -13.539  -1.345  1.00  0.00     0.030 A 
HETATM    4  C   UNL     1      38.725 -12.268  -0.895  1.00  0.00     0.063 A 
HETATM    5  N   UNL     1      37.730 -11.843  -1.730  1.00  0.00    -0.277 N 
HETATM    6  H   UNL     1      37.237 -10.957  -1.694  1.00  0.00     0.189 HD
HETATM    7  N   UNL     1      37.397 -12.716  -2.693  1.00  0.00    -0.168 NA
HETATM    8  C   UNL     1      38.219 -13.769  -2.473  1.00  0.00     0.156 A 
HETATM    9  C   UNL     1      39.346 -11.655   0.193  1.00  0.00     0.034 A 
HETATM   10  C   UNL     1      40.351 -12.382   0.845  1.00  0.00     0.032 A 
ENDROOT
BRANCH   1  11
HETATM   11  N   UNL     1      41.745 -14.306   1.168  1.00  0.00    -0.327 N 
HETATM   12  C   UNL     1      41.660 -15.476   1.894  1.00  0.00     0.222 C 
HETATM   13  O   UNL     1      40.637 -16.129   2.083  1.00  0.00    -0.273 OA
HETATM   14  H   UNL     1      42.600 -13.775   1.251  1.00  0.00     0.169 HD
BRANCH  12  15
HETATM   15  C   UNL     1      42.988 -16.020   2.409  1.00  0.00     0.112 C 
BRANCH  15  16
HETATM   16  C   UNL     1      42.975 -16.853   3.701  1.00  0.00     0.023 C 
HETATM   17  C   UNL     1      43.891 -16.202   4.746  1.00  0.00     0.015 C 
BRANCH  16  18
HETATM   18  C   UNL     1      43.357 -18.313   3.532  1.00  0.00    -0.054 A 
HETATM   19  C   UNL     1      43.888 -19.072   4.586  1.00  0.00     0.007 A 
HETATM   20  C   UNL     1      44.214 -20.417   4.399  1.00  0.00     0.001 A 
HETATM   21  C   UNL     1      44.007 -21.024   3.162  1.00  0.00     0.000 A 
HETATM   22  C   UNL     1      43.470 -20.287   2.110  1.00  0.00     0.001 A 
HETATM   23  C   UNL     1      43.144 -18.942   2.294  1.00  0.00     0.007 A 
ENDBRANCH  16  18
ENDBRANCH  15  16
ENDBRANCH  12  15
ENDBRANCH   1  11
BRANCH   8  24
HETATM   24  C   UNL     1      38.182 -14.955  -3.340  1.00  0.00     0.270 C 
HETATM   25  N   UNL     1      38.232 -16.143  -2.664  1.00  0.00    -0.365 N 
HETATM   26  H   UNL     1      38.279 -16.124  -1.652  1.00  0.00     0.159 HD
HETATM   27  H   UNL     1      38.202 -17.010  -3.176  1.00  0.00     0.159 HD
HETATM   28  O   UNL     1      38.106 -14.926  -4.564  1.00  0.00    -0.266 OA
ENDBRANCH   8  24
TORSDOF 5
ENDMDL
MODEL 2
REMARK VINA RESULT:      -8.6      5.027      7.659
REMARK  5 active torsions:
REMARK  status: ('A' for Active; 'I' for Inactive)
REMARK    1  A    between atoms: C_2  and  C_3 
REMARK    2  A    between atoms: C_2  and  C_9 
REMARK    3  A    between atoms: C_9  and  C_10 
REMARK       I    between atoms: C_10  and  N_11 
REMARK    4  A    between atoms: N_11  and  C_12 
REMARK    5  A    between atoms: C_19  and  C_20 
REMARK       I    between atoms: C_20  and  N_21 
ROOT
HETATM    1  C   UNL     1      42.357 -12.650   5.046  1.00  0.00     0.035 A 
HETATM    2  C   UNL     1      43.398 -12.228   5.884  1.00  0.00     0.046 A 
HETATM    3  C   UNL     1      43.279 -11.006   6.583  1.00  0.00     0.030 A 
HETATM    4  C   UNL     1      42.129 -10.246   6.414  1.00  0.00     0.063 A 
HETATM    5  N   UNL     1      42.311  -9.136   7.191  1.00  0.00    -0.277 N 
HETATM    6  H   UNL     1      41.672  -8.357   7.307  1.00  0.00     0.189 HD
HETATM    7  N   UNL     1      43.472  -9.111   7.865  1.00  0.00    -0.168 NA
HETATM    8  C   UNL     1      44.080 -10.265   7.504  1.00  0.00     0.156 A 
HETATM    9  C   UNL     1      41.070 -10.638   5.594  1.00  0.00     0.034 A 
HETATM   10  C   UNL     1      41.207 -11.859   4.921  1.00  0.00     0.032 A 
ENDROOT
BRANCH   1  11
HETATM   11  N   UNL     1      42.376 -13.866   4.325  1.00  0.00    -0.327 N 
HETATM   12  C   UNL     1      41.707 -15.032   4.637  1.00  0.00     0.222 C 
HETATM   13  O   UNL     1      41.032 -15.223   5.645  1.00  0.00    -0.273 OA
HETATM   14  H   UNL     1      43.043 -13.907   3.569  1.00  0.00     0.169 HD
BRANCH  12  15
HETATM   15  C   UNL     1      41.760 -16.117   3.567  1.00  0.00     0.112 C 
BRANCH  15  16
HETATM   16  C   UNL     1      43.141 -16.572   3.068  1.00  0.00     0.023 C 
HETATM   17  C   UNL     1      43.324 -16.156   1.603  1.00  0.00     0.015 C 
BRANCH  16  18
HETATM   18  C   UNL     1      43.423 -18.057   3.212  1.00  0.00    -0.054 A 
HETATM   19  C   UNL     1      43.942 -18.607   4.393  1.00  0.00     0.007 A 
HETATM   20  C   UNL     1      44.174 -19.980   4.496  1.00  0.00     0.001 A 
HETATM   21  C   UNL     1      43.883 -20.823   3.425  1.00  0.00     0.000 A 
HETATM   22  C   UNL     1      43.357 -20.294   2.251  1.00  0.00     0.001 A 
HETATM   23  C   UNL     1      43.125 -18.921   2.145  1.00  0.00     0.007 A 
ENDBRANCH  16  18
ENDBRANCH  15  16
ENDBRANCH  12  15
ENDBRANCH   1  11
BRANCH   8  24
HETATM   24  C   UNL     1      45.395 -10.631   8.048  1.00  0.00     0.270 C 
HETATM   25  N   UNL     1      46.407 -10.605   7.128  1.00  0.00    -0.365 N 
HETATM   26  H   UNL     1      46.190 -10.335   6.175  1.00  0.00     0.159 HD
HETATM   27  H   UNL     1      47.347 -10.832   7.413  1.00  0.00     0.159 HD
HETATM   28  O   UNL     1      45.611 -10.932   9.218  1.00  0.00    -0.266 OA
ENDBRANCH   8  24
TORSDOF 5
ENDMDL
MODEL 3
REMARK VINA RESULT:      -8.4      6.014      9.279
REMARK  5 active torsions:
REMARK  status: ('A' for Active; 'I' for Inactive)
REMARK    1  A    between atoms: C_2  and  C_3 
REMARK    2  A    between atoms: C_2  and  C_9 
REMARK    3  A    between atoms: C_9  and  C_10 
REMARK       I    between atoms: C_10  and  N_11 
REMARK    4  A    between atoms: N_11  and  C_12 
REMARK    5  A    between atoms: C_19  and  C_20 
REMARK       I    between atoms: C_20  and  N_21 
ROOT
HETATM    1  C   UNL     1      44.092 -12.368   6.679  1.00  0.00     0.035 A 
HETATM    2  C   UNL     1      43.643 -11.917   7.929  1.00  0.00     0.046 A 
HETATM    3  C   UNL     1      44.372 -10.919   8.613  1.00  0.00     0.030 A 
HETATM    4  C   UNL     1      45.526 -10.412   8.029  1.00  0.00     0.063 A 
HETATM    5  N   UNL     1      46.007  -9.492   8.918  1.00  0.00    -0.277 N 
HETATM    6  H   UNL     1      46.844  -8.927   8.823  1.00  0.00     0.189 HD
HETATM    7  N   UNL     1      45.262  -9.343  10.025  1.00  0.00    -0.168 NA
HETATM    8  C   UNL     1      44.242 -10.214   9.849  1.00  0.00     0.156 A 
HETATM    9  C   UNL     1      45.997 -10.831   6.785  1.00  0.00     0.034 A 
HETATM   10  C   UNL     1      45.251 -11.814   6.120  1.00  0.00     0.032 A 
ENDROOT
BRANCH   1  11
HETATM   11  N   UNL     1      43.418 -13.345   5.912  1.00  0.00    -0.327 N 
HETATM   12  C   UNL     1      43.572 -14.715   5.983  1.00  0.00     0.222 C 
HETATM   13  O   UNL     1      44.384 -15.309   6.687  1.00  0.00    -0.273 OA
HETATM   14  H   UNL     1      42.851 -12.985   5.158  1.00  0.00     0.169 HD
BRANCH  12  15
HETATM   15  C   UNL     1      42.566 -15.524   5.172  1.00  0.00     0.112 C 
BRANCH  15  16
HETATM   16  C   UNL     1      42.957 -15.941   3.745  1.00  0.00     0.023 C 
HETATM   17  C   UNL     1      41.840 -15.552   2.768  1.00  0.00     0.015 C 
BRANCH  16  18
HETATM   18  C   UNL     1      43.293 -17.412   3.571  1.00  0.00    -0.054 A 
HETATM   19  C   UNL     1      43.851 -18.178   4.605  1.00  0.00     0.007 A 
HETATM   20  C   UNL     1      44.132 -19.532   4.414  1.00  0.00     0.001 A 
HETATM   21  C   UNL     1      43.853 -20.142   3.193  1.00  0.00     0.000 A 
HETATM   22  C   UNL     1      43.289 -19.398   2.161  1.00  0.00     0.001 A 
HETATM   23  C   UNL     1      43.007 -18.044   2.349  1.00  0.00     0.007 A 
ENDBRANCH  16  18
ENDBRANCH  15  16
ENDBRANCH  12  15
ENDBRANCH   1  11
BRANCH   8  24
HETATM   24  C   UNL     1      43.175 -10.347  10.850  1.00  0.00     0.270 C 
HETATM   25  N   UNL     1      43.462 -11.227  11.858  1.00  0.00    -0.365 N 
HETATM   26  H   UNL     1      44.358 -11.699  11.850  1.00  0.00     0.159 HD
HETATM   27  H   UNL     1      42.793 -11.374  12.597  1.00  0.00     0.159 HD
HETATM   28  O   UNL     1      42.112  -9.736  10.827  1.00  0.00    -0.266 OA
ENDBRANCH   8  24
TORSDOF 5
ENDMDL
MODEL 4
REMARK VINA RESULT:      -8.3      2.876      8.754
REMARK  5 active torsions:
REMARK  status: ('A' for Active; 'I' for Inactive)
REMARK    1  A    between atoms: C_2  and  C_3 
REMARK    2  A    between atoms: C_2  and  C_9 
REMARK    3  A    between atoms: C_9  and  C_10 
REMARK       I    between atoms: C_10  and  N_11 
REMARK    4  A    between atoms: N_11  and  C_12 
REMARK    5  A    between atoms: C_19  and  C_20 
REMARK       I    between atoms: C_20  and  N_21 
ROOT
HETATM    1  C   UNL     1      42.583 -15.700   2.053  1.00  0.00     0.035 A 
HETATM    2  C   UNL     1      42.880 -17.070   2.063  1.00  0.00     0.046 A 
HETATM    3  C   UNL     1      43.394 -17.663   3.237  1.00  0.00     0.030 A 
HETATM    4  C   UNL     1      43.600 -16.866   4.357  1.00  0.00     0.063 A 
HETATM    5  N   UNL     1      44.107 -17.705   5.310  1.00  0.00    -0.277 N 
HETATM    6  H   UNL     1      44.382 -17.463   6.255  1.00  0.00     0.189 HD
HETATM    7  N   UNL     1      44.238 -18.982   4.917  1.00  0.00    -0.168 NA
HETATM    8  C   UNL     1      43.795 -18.974   3.638  1.00  0.00     0.156 A 
HETATM    9  C   UNL     1      43.308 -15.502   4.384  1.00  0.00     0.034 A 
HETATM   10  C   UNL     1      42.789 -14.939   3.211  1.00  0.00     0.032 A 
ENDROOT
BRANCH   1  11
HETATM   11  N   UNL     1      42.046 -15.024   0.933  1.00  0.00    -0.327 N 
HETATM   12  C   UNL     1      40.720 -14.955   0.557  1.00  0.00     0.222 C 
HETATM   13  O   UNL     1      39.788 -15.538   1.106  1.00  0.00    -0.273 OA
HETATM   14  H   UNL     1      42.726 -14.653   0.286  1.00  0.00     0.169 HD
BRANCH  12  15
HETATM   15  C   UNL     1      40.417 -13.989  -0.583  1.00  0.00     0.112 C 
BRANCH  15  16
HETATM   16  C   UNL     1      39.070 -14.130  -1.310  1.00  0.00     0.023 C 
HETATM   17  C   UNL     1      39.293 -14.746  -2.697  1.00  0.00     0.015 C 
BRANCH  16  18
HETATM   18  C   UNL     1      38.274 -12.844  -1.449  1.00  0.00    -0.054 A 
HETATM   19  C   UNL     1      37.490 -12.571  -2.580  1.00  0.00     0.007 A 
HETATM   20  C   UNL     1      36.758 -11.385  -2.668  1.00  0.00     0.001 A 
HETATM   21  C   UNL     1      36.791 -10.461  -1.626  1.00  0.00     0.000 A 
HETATM   22  C   UNL     1      37.555 -10.723  -0.493  1.00  0.00     0.001 A 
HETATM   23  C   UNL     1      38.289 -11.907  -0.403  1.00  0.00     0.007 A 
ENDBRANCH  16  18
ENDBRANCH  15  16
ENDBRANCH  12  15
ENDBRANCH   1  11
BRANCH   8  24
HETATM   24  C   UNL     1      43.758 -20.208   2.841  1.00  0.00     0.270 C 
HETATM   25  N   UNL     1      44.017 -21.344   3.557  1.00  0.00    -0.365 N 
HETATM   26  H   UNL     1      44.199 -21.260   4.551  1.00  0.00     0.159 HD
HETATM   27  H   UNL     1      44.002 -22.239   3.095  1.00  0.00     0.159 HD
HETATM   28  O   UNL     1      43.512 -20.259   1.640  1.00  0.00    -0.266 OA
ENDBRANCH   8  24
TORSDOF 5
ENDMDL
MODEL 5
REMARK VINA RESULT:      -8.2      6.126      8.874
REMARK  5 active torsions:
REMARK  status: ('A' for Active; 'I' for Inactive)
REMARK    1  A    between atoms: C_2  and  C_3 
REMARK    2  A    between atoms: C_2  and  C_9 
REMARK    3  A    between atoms: C_9  and  C_10 
REMARK       I    between atoms: C_10  and  N_11 
REMARK    4  A    between atoms: N_11  and  C_12 
REMARK    5  A    between atoms: C_19  and  C_20 
REMARK       I    between atoms: C_20  and  N_21 
ROOT
HETATM    1  C   UNL     1      43.446 -11.862   6.849  1.00  0.00     0.035 A 
HETATM    2  C   UNL     1      43.005 -10.594   7.252  1.00  0.00     0.046 A 
HETATM    3  C   UNL     1      43.942  -9.644   7.715  1.00  0.00     0.030 A 
HETATM    4  C   UNL     1      45.285  -9.996   7.766  1.00  0.00     0.063 A 
HETATM    5  N   UNL     1      45.930  -8.896   8.260  1.00  0.00    -0.277 N 
HETATM    6  H   UNL     1      46.923  -8.796   8.437  1.00  0.00     0.189 HD
HETATM    7  N   UNL     1      45.129  -7.851   8.522  1.00  0.00    -0.168 NA
HETATM    8  C   UNL     1      43.896  -8.295   8.184  1.00  0.00     0.156 A 
HETATM    9  C   UNL     1      45.760 -11.245   7.366  1.00  0.00     0.034 A 
HETATM   10  C   UNL     1      44.813 -12.167   6.900  1.00  0.00     0.032 A 
ENDROOT
BRANCH   1  11
HETATM   11  N   UNL     1      42.587 -12.868   6.352  1.00  0.00    -0.327 N 
HETATM   12  C   UNL     1      42.535 -13.360   5.064  1.00  0.00     0.222 C 
HETATM   13  O   UNL     1      43.192 -12.946   4.112  1.00  0.00    -0.273 OA
HETATM   14  H   UNL     1      41.862 -13.168   6.988  1.00  0.00     0.169 HD
BRANCH  12  15
HETATM   15  C   UNL     1      41.644 -14.582   4.871  1.00  0.00     0.112 C 
BRANCH  15  16
HETATM   16  C   UNL     1      41.735 -15.338   3.535  1.00  0.00     0.023 C 
HETATM   17  C   UNL     1      40.328 -15.722   3.061  1.00  0.00     0.015 C 
BRANCH  16  18
HETATM   18  C   UNL     1      42.619 -16.573   3.550  1.00  0.00    -0.054 A 
HETATM   19  C   UNL     1      43.499 -16.848   4.607  1.00  0.00     0.007 A 
HETATM   20  C   UNL     1      44.286 -18.001   4.595  1.00  0.00     0.001 A 
HETATM   21  C   UNL     1      44.197 -18.900   3.534  1.00  0.00     0.000 A 
HETATM   22  C   UNL     1      43.320 -18.648   2.484  1.00  0.00     0.001 A 
HETATM   23  C   UNL     1      42.533 -17.494   2.493  1.00  0.00     0.007 A 
ENDBRANCH  16  18
ENDBRANCH  15  16
ENDBRANCH  12  15
ENDBRANCH   1  11
BRANCH   8  24
HETATM   24  C   UNL     1      42.716  -7.428   8.309  1.00  0.00     0.270 C 
HETATM   25  N   UNL     1      41.937  -7.700   9.400  1.00  0.00    -0.365 N 
HETATM   26  H   UNL     1      42.221  -8.444  10.027  1.00  0.00     0.159 HD
HETATM   27  H   UNL     1      41.111  -7.148   9.573  1.00  0.00     0.159 HD
HETATM   28  O   UNL     1      42.425  -6.525   7.532  1.00  0.00    -0.266 OA
ENDBRANCH   8  24
TORSDOF 5
ENDMDL
MODEL 6
REMARK VINA RESULT:      -8.2      1.814      3.195
REMARK  5 active torsions:
REMARK  status: ('A' for Active; 'I' for Inactive)
REMARK    1  A    between atoms: C_2  and  C_3 
REMARK    2  A    between atoms: C_2  and  C_9 
REMARK    3  A    between atoms: C_9  and  C_10 
REMARK       I    between atoms: C_10  and  N_11 
REMARK    4  A    between atoms: N_11  and  C_12 
REMARK    5  A    between atoms: C_19  and  C_20 
REMARK       I    between atoms: C_20  and  N_21 
ROOT
HETATM    1  C   UNL     1      40.661 -15.177   1.621  1.00  0.00     0.035 A 
HETATM    2  C   UNL     1      40.433 -14.870   0.272  1.00  0.00     0.046 A 
HETATM    3  C   UNL     1      39.814 -13.647  -0.069  1.00  0.00     0.030 A 
HETATM    4  C   UNL     1      39.438 -12.778   0.948  1.00  0.00     0.063 A 
HETATM    5  N   UNL     1      38.864 -11.709   0.318  1.00  0.00    -0.277 N 
HETATM    6  H   UNL     1      38.469 -10.882   0.751  1.00  0.00     0.189 HD
HETATM    7  N   UNL     1      38.844 -11.796  -1.021  1.00  0.00    -0.168 NA
HETATM    8  C   UNL     1      39.434 -12.987  -1.278  1.00  0.00     0.156 A 
HETATM    9  C   UNL     1      39.657 -13.048   2.299  1.00  0.00     0.034 A 
HETATM   10  C   UNL     1      40.283 -14.262   2.612  1.00  0.00     0.032 A 
ENDROOT
BRANCH   1  11
HETATM   11  N   UNL     1      41.292 -16.364   2.056  1.00  0.00    -0.327 N 
HETATM   12  C   UNL     1      42.647 -16.625   2.091  1.00  0.00     0.222 C 
HETATM   13  O   UNL     1      43.531 -15.880   1.676  1.00  0.00    -0.273 OA
HETATM   14  H   UNL     1      40.671 -17.136   2.253  1.00  0.00     0.169 HD
BRANCH  12  15
HETATM   15  C   UNL     1      43.042 -17.918   2.797  1.00  0.00     0.112 C 
BRANCH  15  16
HETATM   16  C   UNL     1      43.988 -17.820   4.005  1.00  0.00     0.023 C 
HETATM   17  C   UNL     1      44.342 -19.228   4.501  1.00  0.00     0.015 C 
BRANCH  16  18
HETATM   18  C   UNL     1      43.470 -16.990   5.166  1.00  0.00    -0.054 A 
HETATM   19  C   UNL     1      44.318 -16.201   5.958  1.00  0.00     0.007 A 
HETATM   20  C   UNL     1      43.804 -15.439   7.008  1.00  0.00     0.001 A 
HETATM   21  C   UNL     1      42.437 -15.445   7.277  1.00  0.00     0.000 A 
HETATM   22  C   UNL     1      41.581 -16.214   6.494  1.00  0.00     0.001 A 
HETATM   23  C   UNL     1      42.092 -16.978   5.444  1.00  0.00     0.007 A 
ENDBRANCH  16  18
ENDBRANCH  15  16
ENDBRANCH  12  15
ENDBRANCH   1  11
BRANCH   8  24
HETATM   24  C   UNL     1      39.626 -13.457  -2.656  1.00  0.00     0.270 C 
HETATM   25  N   UNL     1      38.514 -13.342  -3.445  1.00  0.00    -0.365 N 
HETATM   26  H   UNL     1      37.673 -12.946  -3.043  1.00  0.00     0.159 HD
HETATM   27  H   UNL     1      38.555 -13.630  -4.410  1.00  0.00     0.159 HD
HETATM   28  O   UNL     1      40.674 -13.912  -3.102  1.00  0.00    -0.266 OA
ENDBRANCH   8  24
TORSDOF 5
ENDMDL
MODEL 7
REMARK VINA RESULT:      -8.1      2.961      8.637
REMARK  5 active torsions:
REMARK  status: ('A' for Active; 'I' for Inactive)
REMARK    1  A    between atoms: C_2  and  C_3 
REMARK    2  A    between atoms: C_2  and  C_9 
REMARK    3  A    between atoms: C_9  and  C_10 
REMARK       I    between atoms: C_10  and  N_11 
REMARK    4  A    between atoms: N_11  and  C_12 
REMARK    5  A    between atoms: C_19  and  C_20 
REMARK       I    between atoms: C_20  and  N_21 
ROOT
HETATM    1  C   UNL     1      42.631 -15.348   2.438  1.00  0.00     0.035 A 
HETATM    2  C   UNL     1      42.375 -15.417   3.814  1.00  0.00     0.046 A 
HETATM    3  C   UNL     1      42.781 -16.557   4.543  1.00  0.00     0.030 A 
HETATM    4  C   UNL     1      43.422 -17.590   3.870  1.00  0.00     0.063 A 
HETATM    5  N   UNL     1      43.673 -18.540   4.820  1.00  0.00    -0.277 N 
HETATM    6  H   UNL     1      44.126 -19.437   4.685  1.00  0.00     0.189 HD
HETATM    7  N   UNL     1      43.266 -18.213   6.057  1.00  0.00    -0.168 NA
HETATM    8  C   UNL     1      42.718 -16.986   5.904  1.00  0.00     0.156 A 
HETATM    9  C   UNL     1      43.700 -17.551   2.503  1.00  0.00     0.034 A 
HETATM   10  C   UNL     1      43.297 -16.406   1.804  1.00  0.00     0.032 A 
ENDROOT
BRANCH   1  11
HETATM   11  N   UNL     1      42.283 -14.240   1.632  1.00  0.00    -0.327 N 
HETATM   12  C   UNL     1      41.061 -13.989   1.041  1.00  0.00     0.222 C 
HETATM   13  O   UNL     1      40.087 -14.737   1.064  1.00  0.00    -0.273 OA
HETATM   14  H   UNL     1      43.049 -13.635   1.376  1.00  0.00     0.169 HD
BRANCH  12  15
HETATM   15  C   UNL     1      40.922 -12.615   0.394  1.00  0.00     0.112 C 
BRANCH  15  16
HETATM   16  C   UNL     1      40.975 -12.531  -1.140  1.00  0.00     0.023 C 
HETATM   17  C   UNL     1      41.274 -11.089  -1.569  1.00  0.00     0.015 C 
BRANCH  16  18
HETATM   18  C   UNL     1      39.732 -13.025  -1.858  1.00  0.00    -0.054 A 
HETATM   19  C   UNL     1      39.712 -14.231  -2.573  1.00  0.00     0.007 A 
HETATM   20  C   UNL     1      38.546 -14.663  -3.208  1.00  0.00     0.001 A 
HETATM   21  C   UNL     1      37.382 -13.901  -3.130  1.00  0.00     0.000 A 
HETATM   22  C   UNL     1      37.382 -12.708  -2.414  1.00  0.00     0.001 A 
HETATM   23  C   UNL     1      38.547 -12.274  -1.780  1.00  0.00     0.007 A 
ENDBRANCH  16  18
ENDBRANCH  15  16
ENDBRANCH  12  15
ENDBRANCH   1  11
BRANCH   8  24
HETATM   24  C   UNL     1      42.159 -16.256   7.050  1.00  0.00     0.270 C 
HETATM   25  N   UNL     1      43.067 -15.984   8.036  1.00  0.00    -0.365 N 
HETATM   26  H   UNL     1      44.027 -16.284   7.907  1.00  0.00     0.159 HD
HETATM   27  H   UNL     1      42.776 -15.476   8.856  1.00  0.00     0.159 HD
HETATM   28  O   UNL     1      40.990 -15.896   7.150  1.00  0.00    -0.266 OA
ENDBRANCH   8  24
TORSDOF 5
ENDMDL
MODEL 8
REMARK VINA RESULT:      -7.9      3.185      8.264
REMARK  5 active torsions:
REMARK  status: ('A' for Active; 'I' for Inactive)
REMARK    1  A    between atoms: C_2  and  C_3 
REMARK    2  A    between atoms: C_2  and  C_9 
REMARK    3  A    between atoms: C_9  and  C_10 
REMARK       I    between atoms: C_10  and  N_11 
REMARK    4  A    between atoms: N_11  and  C_12 
REMARK    5  A    between atoms: C_19  and  C_20 
REMARK       I    between atoms: C_20  and  N_21 
ROOT
HETATM    1  C   UNL     1      42.416 -16.164   2.455  1.00  0.00     0.035 A 
HETATM    2  C   UNL     1      42.199 -15.997   3.829  1.00  0.00     0.046 A 
HETATM    3  C   UNL     1      42.751 -16.926   4.740  1.00  0.00     0.030 A 
HETATM    4  C   UNL     1      43.494 -17.990   4.245  1.00  0.00     0.063 A 
HETATM    5  N   UNL     1      43.875 -18.708   5.345  1.00  0.00    -0.277 N 
HETATM    6  H   UNL     1      44.427 -19.558   5.361  1.00  0.00     0.189 HD
HETATM    7  N   UNL     1      43.459 -18.199   6.515  1.00  0.00    -0.168 NA
HETATM    8  C   UNL     1      42.767 -17.091   6.159  1.00  0.00     0.156 A 
HETATM    9  C   UNL     1      43.737 -18.182   2.885  1.00  0.00     0.034 A 
HETATM   10  C   UNL     1      43.189 -17.242   2.002  1.00  0.00     0.032 A 
ENDROOT
BRANCH   1  11
HETATM   11  N   UNL     1      41.924 -15.276   1.472  1.00  0.00    -0.327 N 
HETATM   12  C   UNL     1      40.645 -15.229   0.954  1.00  0.00     0.222 C 
HETATM   13  O   UNL     1      39.736 -16.011   1.219  1.00  0.00    -0.273 OA
HETATM   14  H   UNL     1      42.620 -14.694   1.028  1.00  0.00     0.169 HD
BRANCH  12  15
HETATM   15  C   UNL     1      40.352 -14.035   0.052  1.00  0.00     0.112 C 
BRANCH  15  16
HETATM   16  C   UNL     1      39.623 -12.829   0.666  1.00  0.00     0.023 C 
HETATM   17  C   UNL     1      39.841 -11.591  -0.213  1.00  0.00     0.015 C 
BRANCH  16  18
HETATM   18  C   UNL     1      40.004 -12.505   2.100  1.00  0.00    -0.054 A 
HETATM   19  C   UNL     1      39.193 -12.863   3.187  1.00  0.00     0.007 A 
HETATM   20  C   UNL     1      39.583 -12.563   4.493  1.00  0.00     0.001 A 
HETATM   21  C   UNL     1      40.790 -11.910   4.734  1.00  0.00     0.000 A 
HETATM   22  C   UNL     1      41.611 -11.558   3.666  1.00  0.00     0.001 A 
HETATM   23  C   UNL     1      41.223 -11.856   2.359  1.00  0.00     0.007 A 
ENDBRANCH  16  18
ENDBRANCH  15  16
ENDBRANCH  12  15
ENDBRANCH   1  11
BRANCH   8  24
HETATM   24  C   UNL     1      42.150 -16.223   7.171  1.00  0.00     0.270 C 
HETATM   25  N   UNL     1      43.008 -15.819   8.157  1.00  0.00    -0.365 N 
HETATM   26  H   UNL     1      43.973 -16.126   8.117  1.00  0.00     0.159 HD
HETATM   27  H   UNL     1      42.676 -15.212   8.890  1.00  0.00     0.159 HD
HETATM   28  O   UNL     1      40.978 -15.862   7.165  1.00  0.00    -0.266 OA
ENDBRANCH   8  24
TORSDOF 5
ENDMDL
MODEL 9
REMARK VINA RESULT:      -7.8      2.053      2.794
REMARK  5 active torsions:
REMARK  status: ('A' for Active; 'I' for Inactive)
REMARK    1  A    between atoms: C_2  and  C_3 
REMARK    2  A    between atoms: C_2  and  C_9 
REMARK    3  A    between atoms: C_9  and  C_10 
REMARK       I    between atoms: C_10  and  N_11 
REMARK    4  A    between atoms: N_11  and  C_12 
REMARK    5  A    between atoms: C_19  and  C_20 
REMARK       I    between atoms: C_20  and  N_21 
ROOT
HETATM    1  C   UNL     1      41.814 -12.527   2.147  1.00  0.00     0.035 A 
HETATM    2  C   UNL     1      40.942 -13.068   1.193  1.00  0.00     0.046 A 
HETATM    3  C   UNL     1      40.378 -12.228   0.207  1.00  0.00     0.030 A 
HETATM    4  C   UNL     1      40.701 -10.876   0.213  1.00  0.00     0.063 A 
HETATM    5  N   UNL     1      40.004 -10.333  -0.830  1.00  0.00    -0.277 N 
HETATM    6  H   UNL     1      39.995  -9.362  -1.121  1.00  0.00     0.189 HD
HETATM    7  N   UNL     1      39.267 -11.212  -1.526  1.00  0.00    -0.168 NA
HETATM    8  C   UNL     1      39.492 -12.391  -0.902  1.00  0.00     0.156 A 
HETATM    9  C   UNL     1      41.571 -10.306   1.142  1.00  0.00     0.034 A 
HETATM   10  C   UNL     1      42.126 -11.162   2.103  1.00  0.00     0.032 A 
ENDROOT
BRANCH   1  11
HETATM   11  N   UNL     1      42.442 -13.293   3.155  1.00  0.00    -0.327 N 
HETATM   12  C   UNL     1      42.044 -13.429   4.470  1.00  0.00     0.222 C 
HETATM   13  O   UNL     1      41.104 -12.841   4.998  1.00  0.00    -0.273 OA
HETATM   14  H   UNL     1      43.339 -13.684   2.904  1.00  0.00     0.169 HD
BRANCH  12  15
HETATM   15  C   UNL     1      42.804 -14.479   5.273  1.00  0.00     0.112 C 
BRANCH  15  16
HETATM   16  C   UNL     1      42.187 -15.882   5.394  1.00  0.00     0.023 C 
HETATM   17  C   UNL     1      42.253 -16.352   6.853  1.00  0.00     0.015 C 
BRANCH  16  18
HETATM   18  C   UNL     1      42.803 -16.938   4.493  1.00  0.00    -0.054 A 
HETATM   19  C   UNL     1      42.463 -17.053   3.137  1.00  0.00     0.007 A 
HETATM   20  C   UNL     1      43.061 -18.027   2.335  1.00  0.00     0.001 A 
HETATM   21  C   UNL     1      44.012 -18.891   2.871  1.00  0.00     0.000 A 
HETATM   22  C   UNL     1      44.369 -18.782   4.212  1.00  0.00     0.001 A 
HETATM   23  C   UNL     1      43.772 -17.810   5.017  1.00  0.00     0.007 A 
ENDBRANCH  16  18
ENDBRANCH  15  16
ENDBRANCH  12  15
ENDBRANCH   1  11
BRANCH   8  24
HETATM   24  C   UNL     1      38.868 -13.634  -1.377  1.00  0.00     0.270 C 
HETATM   25  N   UNL     1      37.588 -13.476  -1.834  1.00  0.00    -0.365 N 
HETATM   26  H   UNL     1      37.179 -12.549  -1.822  1.00  0.00     0.159 HD
HETATM   27  H   UNL     1      37.084 -14.273  -2.190  1.00  0.00     0.159 HD
HETATM   28  O   UNL     1      39.414 -14.732  -1.389  1.00  0.00    -0.266 OA
ENDBRANCH   8  24
TORSDOF 5
ENDMDL
MODEL 10
REMARK VINA RESULT:      -7.7      2.092      3.423
REMARK  5 active torsions:
REMARK  status: ('A' for Active; 'I' for Inactive)
REMARK    1  A    between atoms: C_2  and  C_3 
REMARK    2  A    between atoms: C_2  and  C_9 
REMARK    3  A    between atoms: C_9  and  C_10 
REMARK       I    between atoms: C_10  and  N_11 
REMARK    4  A    between atoms: N_11  and  C_12 
REMARK    5  A    between atoms: C_19  and  C_20 
REMARK       I    between atoms: C_20  and  N_21 
ROOT
HETATM    1  C   UNL     1      39.691 -14.061  -0.809  1.00  0.00     0.035 A 
HETATM    2  C   UNL     1      39.653 -12.674  -0.606  1.00  0.00     0.046 A 
HETATM    3  C   UNL     1      38.917 -11.859  -1.494  1.00  0.00     0.030 A 
HETATM    4  C   UNL     1      38.251 -12.456  -2.557  1.00  0.00     0.063 A 
HETATM    5  N   UNL     1      37.653 -11.429  -3.232  1.00  0.00    -0.277 N 
HETATM    6  H   UNL     1      37.085 -11.494  -4.070  1.00  0.00     0.189 HD
HETATM    7  N   UNL     1      37.858 -10.215  -2.697  1.00  0.00    -0.168 NA
HETATM    8  C   UNL     1      38.633 -10.464  -1.616  1.00  0.00     0.156 A 
HETATM    9  C   UNL     1      38.260 -13.832  -2.784  1.00  0.00     0.034 A 
HETATM   10  C   UNL     1      38.987 -14.621  -1.884  1.00  0.00     0.032 A 
ENDROOT
BRANCH   1  11
HETATM   11  N   UNL     1      40.381 -14.957   0.038  1.00  0.00    -0.327 N 
HETATM   12  C   UNL     1      40.284 -15.050   1.412  1.00  0.00     0.222 C 
HETATM   13  O   UNL     1      39.624 -14.310   2.135  1.00  0.00    -0.273 OA
HETATM   14  H   UNL     1      41.102 -15.504  -0.409  1.00  0.00     0.169 HD
BRANCH  12  15
HETATM   15  C   UNL     1      40.999 -16.245   2.034  1.00  0.00     0.112 C 
BRANCH  15  16
HETATM   16  C   UNL     1      42.369 -16.006   2.689  1.00  0.00     0.023 C 
HETATM   17  C   UNL     1      43.332 -15.393   1.664  1.00  0.00     0.015 C 
BRANCH  16  18
HETATM   18  C   UNL     1      43.009 -17.233   3.314  1.00  0.00    -0.054 A 
HETATM   19  C   UNL     1      43.369 -18.356   2.554  1.00  0.00     0.007 A 
HETATM   20  C   UNL     1      43.971 -19.461   3.160  1.00  0.00     0.001 A 
HETATM   21  C   UNL     1      44.229 -19.456   4.529  1.00  0.00     0.000 A 
HETATM   22  C   UNL     1      43.888 -18.345   5.295  1.00  0.00     0.001 A 
HETATM   23  C   UNL     1      43.286 -17.239   4.691  1.00  0.00     0.007 A 
ENDBRANCH  16  18
ENDBRANCH  15  16
ENDBRANCH  12  15
ENDBRANCH   1  11
BRANCH   8  24
HETATM   24  C   UNL     1      39.074  -9.377  -0.731  1.00  0.00     0.270 C 
HETATM   25  N   UNL     1      38.081  -8.503  -0.383  1.00  0.00    -0.365 N 
HETATM   26  H   UNL     1      37.145  -8.666  -0.737  1.00  0.00     0.159 HD
HETATM   27  H   UNL     1      38.288  -7.731   0.231  1.00  0.00     0.159 HD
HETATM   28  O   UNL     1      40.218  -9.234  -0.312  1.00  0.00    -0.266 OA
ENDBRANCH   8  24
TORSDOF 5
ENDMDL
