MODEL 1
REMARK VINA RESULT:      -9.6      0.000      0.000
REMARK  8 active torsions:
REMARK  status: ('A' for Active; 'I' for Inactive)
REMARK    1  A    between atoms: C_4  and  S_5 
REMARK    2  A    between atoms: S_5  and  C_6 
REMARK    3  A    between atoms: C_6  and  C_7 
REMARK       I    between atoms: C_7  and  N_8 
REMARK    4  A    between atoms: N_8  and  C_9 
REMARK    5  A    between atoms: C_9  and  C_10 
REMARK    6  A    between atoms: C_20  and  C_21 
REMARK    7  A    between atoms: C_26  and  C_27 
REMARK       I    between atoms: C_27  and  N_28 
REMARK    8  A    between atoms: N_28  and  C_29 
ROOT
HETATM    1  C   UNL     1      44.116 -12.586   7.017  1.00  0.00     0.069 C 
HETATM    2  C   UNL     1      42.901 -11.984   6.354  1.00  0.00     0.019 C 
HETATM    3  N   UNL     1      42.597 -10.676   6.716  1.00  0.00    -0.353 N 
HETATM    4  C   UNL     1      41.349 -10.097   6.520  1.00  0.00     0.087 C 
HETATM    5  C   UNL     1      40.506 -10.684   5.629  1.00  0.00     0.057 C 
HETATM    6  C   UNL     1      39.088 -10.173   5.432  1.00  0.00     0.019 C 
HETATM    7  N   UNL     1      37.911  -9.749   5.268  1.00  0.00    -0.096 N 
HETATM    8  C   UNL     1      40.923 -11.919   4.839  1.00  0.00     0.129 C 
HETATM    9  C   UNL     1      42.102 -12.637   5.479  1.00  0.00     0.048 C 
HETATM   10  H   UNL     1      43.131 -10.324   7.504  1.00  0.00     0.166 HD
ENDROOT
BRANCH   4  11
HETATM   11  S   UNL     1      40.789  -8.676   7.401  1.00  0.00    -0.102 SA
BRANCH  11  12
HETATM   12  C   UNL     1      40.362  -9.296   9.045  1.00  0.00     0.183 C 
BRANCH  12  13
HETATM   13  C   UNL     1      41.570  -9.378   9.970  1.00  0.00     0.227 C 
HETATM   14  N   UNL     1      41.350  -9.978  11.191  1.00  0.00    -0.356 N 
HETATM   15  H   UNL     1      40.406  -9.919  11.554  1.00  0.00     0.162 HD
HETATM   16  O   UNL     1      42.685  -9.029   9.588  1.00  0.00    -0.273 OA
BRANCH  14  17
HETATM   17  C   UNL     1      42.428 -10.117  12.146  1.00  0.00     0.161 C 
BRANCH  17  18
HETATM   18  C   UNL     1      42.482  -9.034  13.199  1.00  0.00    -0.041 A 
HETATM   19  C   UNL     1      43.371  -7.950  13.150  1.00  0.00     0.009 A 
HETATM   20  C   UNL     1      43.354  -6.967  14.143  1.00  0.00     0.001 A 
HETATM   21  C   UNL     1      42.437  -7.042  15.189  1.00  0.00     0.000 A 
HETATM   22  C   UNL     1      41.535  -8.100  15.242  1.00  0.00     0.001 A 
HETATM   23  C   UNL     1      41.558  -9.088  14.256  1.00  0.00     0.009 A 
ENDBRANCH  17  18
ENDBRANCH  14  17
ENDBRANCH  12  13
ENDBRANCH  11  12
ENDBRANCH   4  11
BRANCH   8  24
HETATM   24  C   UNL     1      41.191 -11.587   3.392  1.00  0.00     0.066 A 
HETATM   25  O   UNL     1      41.030 -12.605   2.495  1.00  0.00    -0.326 OA
HETATM   26  C   UNL     1      41.339 -12.104   1.271  1.00  0.00     0.142 A 
HETATM   27  C   UNL     1      41.722 -10.787   1.371  1.00  0.00     0.027 A 
HETATM   28  C   UNL     1      41.633 -10.451   2.742  1.00  0.00     0.035 A 
ENDBRANCH   8  24
BRANCH   9  29
HETATM   29  C   UNL     1      42.243 -14.112   5.303  1.00  0.00     0.255 C 
HETATM   30  N   UNL     1      43.052 -14.512   4.262  1.00  0.00    -0.322 N 
HETATM   31  H   UNL     1      43.258 -13.835   3.536  1.00  0.00     0.169 HD
HETATM   32  O   UNL     1      41.564 -14.863   5.998  1.00  0.00    -0.268 OA
BRANCH  30  33
HETATM   33  C   UNL     1      43.264 -15.869   3.917  1.00  0.00     0.057 A 
HETATM   34  C   UNL     1      43.886 -16.825   4.745  1.00  0.00     0.062 A 
HETATM   35 CL   UNL     1      44.740 -16.407   6.193  1.00  0.00    -0.082 Cl
HETATM   36  C   UNL     1      43.983 -18.158   4.331  1.00  0.00     0.050 A 
HETATM   37  C   UNL     1      43.486 -18.537   3.088  1.00  0.00     0.035 A 
HETATM   38 CL   UNL     1      43.600 -20.177   2.584  1.00  0.00    -0.084 Cl
HETATM   39  C   UNL     1      42.922 -17.591   2.236  1.00  0.00     0.026 A 
HETATM   40  C   UNL     1      42.826 -16.257   2.643  1.00  0.00     0.033 A 
ENDBRANCH  30  33
ENDBRANCH   9  29
TORSDOF 8
ENDMDL
MODEL 2
REMARK VINA RESULT:      -8.8      2.519      4.471
REMARK  8 active torsions:
REMARK  status: ('A' for Active; 'I' for Inactive)
REMARK    1  A    between atoms: C_4  and  S_5 
REMARK    2  A    between atoms: S_5  and  C_6 
REMARK    3  A    between atoms: C_6  and  C_7 
REMARK       I    between atoms: C_7  and  N_8 
REMARK    4  A    between atoms: N_8  and  C_9 
REMARK    5  A    between atoms: C_9  and  C_10 
REMARK    6  A    between atoms: C_20  and  C_21 
REMARK    7  A    between atoms: C_26  and  C_27 
REMARK       I    between atoms: C_27  and  N_28 
REMARK    8  A    between atoms: N_28  and  C_29 
ROOT
HETATM    1  C   UNL     1      39.224 -11.214   6.039  1.00  0.00     0.069 C 
HETATM    2  C   UNL     1      40.701 -11.522   6.104  1.00  0.00     0.019 C 
HETATM    3  N   UNL     1      41.418 -10.847   7.086  1.00  0.00    -0.353 N 
HETATM    4  C   UNL     1      42.801 -10.704   7.063  1.00  0.00     0.087 C 
HETATM    5  C   UNL     1      43.516 -11.543   6.267  1.00  0.00     0.057 C 
HETATM    6  C   UNL     1      45.020 -11.387   6.108  1.00  0.00     0.019 C 
HETATM    7  N   UNL     1      46.267 -11.258   5.975  1.00  0.00    -0.096 N 
HETATM    8  C   UNL     1      42.833 -12.634   5.449  1.00  0.00     0.129 C 
HETATM    9  C   UNL     1      41.346 -12.367   5.268  1.00  0.00     0.048 C 
HETATM   10  H   UNL     1      40.903 -10.105   7.547  1.00  0.00     0.166 HD
ENDROOT
BRANCH   4  11
HETATM   11  S   UNL     1      43.664  -9.463   7.971  1.00  0.00    -0.102 SA
BRANCH  11  12
HETATM   12  C   UNL     1      44.527 -10.369   9.277  1.00  0.00     0.183 C 
BRANCH  12  13
HETATM   13  C   UNL     1      43.668 -10.559  10.521  1.00  0.00     0.227 C 
HETATM   14  N   UNL     1      42.511  -9.812  10.570  1.00  0.00    -0.356 N 
HETATM   15  H   UNL     1      42.524  -8.935  10.061  1.00  0.00     0.162 HD
HETATM   16  O   UNL     1      43.948 -11.412  11.360  1.00  0.00    -0.273 OA
BRANCH  14  17
HETATM   17  C   UNL     1      41.614  -9.918  11.700  1.00  0.00     0.161 C 
BRANCH  17  18
HETATM   18  C   UNL     1      41.925  -8.978  12.842  1.00  0.00    -0.041 A 
HETATM   19  C   UNL     1      41.331  -9.074  14.109  1.00  0.00     0.009 A 
HETATM   20  C   UNL     1      41.680  -8.188  15.131  1.00  0.00     0.001 A 
HETATM   21  C   UNL     1      42.641  -7.205  14.909  1.00  0.00     0.000 A 
HETATM   22  C   UNL     1      43.255  -7.106  13.664  1.00  0.00     0.001 A 
HETATM   23  C   UNL     1      42.900  -7.985  12.639  1.00  0.00     0.009 A 
ENDBRANCH  17  18
ENDBRANCH  14  17
ENDBRANCH  12  13
ENDBRANCH  11  12
ENDBRANCH   4  11
BRANCH   8  24
HETATM   24  C   UNL     1      43.087 -14.003   6.030  1.00  0.00     0.066 A 
HETATM   25  O   UNL     1      43.206 -15.029   5.137  1.00  0.00    -0.326 OA
HETATM   26  C   UNL     1      43.406 -16.161   5.861  1.00  0.00     0.142 A 
HETATM   27  C   UNL     1      43.391 -15.882   7.207  1.00  0.00     0.027 A 
HETATM   28  C   UNL     1      43.178 -14.488   7.320  1.00  0.00     0.035 A 
ENDBRANCH   8  24
BRANCH   9  29
HETATM   29  C   UNL     1      40.657 -12.869   4.044  1.00  0.00     0.255 C 
HETATM   30  N   UNL     1      41.451 -12.993   2.923  1.00  0.00    -0.322 N 
HETATM   31  H   UNL     1      42.331 -12.490   2.910  1.00  0.00     0.169 HD
HETATM   32  O   UNL     1      39.440 -13.031   4.067  1.00  0.00    -0.268 OA
BRANCH  30  33
HETATM   33  C   UNL     1      40.959 -13.408   1.662  1.00  0.00     0.057 A 
HETATM   34  C   UNL     1      40.522 -14.712   1.356  1.00  0.00     0.062 A 
HETATM   35 CL   UNL     1      40.794 -16.069   2.400  1.00  0.00    -0.082 Cl
HETATM   36  C   UNL     1      39.990 -14.998   0.094  1.00  0.00     0.050 A 
HETATM   37  C   UNL     1      39.914 -13.998  -0.870  1.00  0.00     0.035 A 
HETATM   38 CL   UNL     1      39.253 -14.349  -2.418  1.00  0.00    -0.084 Cl
HETATM   39  C   UNL     1      40.396 -12.719  -0.600  1.00  0.00     0.026 A 
HETATM   40  C   UNL     1      40.932 -12.430   0.658  1.00  0.00     0.033 A 
ENDBRANCH  30  33
ENDBRANCH   9  29
TORSDOF 8
ENDMDL
MODEL 3
REMARK VINA RESULT:      -8.6      3.914     10.167
REMARK  8 active torsions:
REMARK  status: ('A' for Active; 'I' for Inactive)
REMARK    1  A    between atoms: C_4  and  S_5 
REMARK    2  A    between atoms: S_5  and  C_6 
REMARK    3  A    between atoms: C_6  and  C_7 
REMARK       I    between atoms: C_7  and  N_8 
REMARK    4  A    between atoms: N_8  and  C_9 
REMARK    5  A    between atoms: C_9  and  C_10 
REMARK    6  A    between atoms: C_20  and  C_21 
REMARK    7  A    between atoms: C_26  and  C_27 
REMARK       I    between atoms: C_27  and  N_28 
REMARK    8  A    between atoms: N_28  and  C_29 
ROOT
HETATM    1  C   UNL     1      40.836  -7.362   6.088  1.00  0.00     0.069 C 
HETATM    2  C   UNL     1      41.325  -8.790   6.070  1.00  0.00     0.019 C 
HETATM    3  N   UNL     1      41.262  -9.437   4.840  1.00  0.00    -0.353 N 
HETATM    4  C   UNL     1      41.301 -10.820   4.699  1.00  0.00     0.087 C 
HETATM    5  C   UNL     1      41.774 -11.555   5.742  1.00  0.00     0.057 C 
HETATM    6  C   UNL     1      41.756 -13.074   5.707  1.00  0.00     0.019 C 
HETATM    7  N   UNL     1      41.740 -14.335   5.678  1.00  0.00    -0.096 N 
HETATM    8  C   UNL     1      42.283 -10.888   7.015  1.00  0.00     0.129 C 
HETATM    9  C   UNL     1      41.777  -9.460   7.154  1.00  0.00     0.048 C 
HETATM   10  H   UNL     1      40.748  -8.933   4.126  1.00  0.00     0.166 HD
ENDROOT
BRANCH   4  11
HETATM   11  S   UNL     1      40.722 -11.666   3.265  1.00  0.00    -0.102 SA
BRANCH  11  12
HETATM   12  C   UNL     1      42.224 -12.235   2.433  1.00  0.00     0.183 C 
BRANCH  12  13
HETATM   13  C   UNL     1      42.036 -13.580   1.744  1.00  0.00     0.227 C 
HETATM   14  N   UNL     1      42.549 -14.672   2.409  1.00  0.00    -0.356 N 
HETATM   15  H   UNL     1      43.340 -14.492   3.018  1.00  0.00     0.162 HD
HETATM   16  O   UNL     1      41.366 -13.678   0.717  1.00  0.00    -0.273 OA
BRANCH  14  17
HETATM   17  C   UNL     1      42.421 -16.001   1.852  1.00  0.00     0.161 C 
BRANCH  17  18
HETATM   18  C   UNL     1      43.051 -17.096   2.681  1.00  0.00    -0.041 A 
HETATM   19  C   UNL     1      43.219 -18.413   2.227  1.00  0.00     0.009 A 
HETATM   20  C   UNL     1      43.832 -19.374   3.035  1.00  0.00     0.001 A 
HETATM   21  C   UNL     1      44.304 -19.030   4.299  1.00  0.00     0.000 A 
HETATM   22  C   UNL     1      44.163 -17.724   4.758  1.00  0.00     0.001 A 
HETATM   23  C   UNL     1      43.542 -16.765   3.956  1.00  0.00     0.009 A 
ENDBRANCH  17  18
ENDBRANCH  14  17
ENDBRANCH  12  13
ENDBRANCH  11  12
ENDBRANCH   4  11
BRANCH   8  24
HETATM   24  C   UNL     1      43.787 -10.959   7.114  1.00  0.00     0.066 A 
HETATM   25  O   UNL     1      44.329 -10.684   8.337  1.00  0.00    -0.326 OA
HETATM   26  C   UNL     1      45.676 -10.781   8.203  1.00  0.00     0.142 A 
HETATM   27  C   UNL     1      46.011 -11.087   6.905  1.00  0.00     0.027 A 
HETATM   28  C   UNL     1      44.792 -11.197   6.196  1.00  0.00     0.035 A 
ENDBRANCH   8  24
BRANCH   9  29
HETATM   29  C   UNL     1      41.582  -8.884   8.517  1.00  0.00     0.255 C 
HETATM   30  N   UNL     1      42.726  -8.437   9.143  1.00  0.00    -0.322 N 
HETATM   31  H   UNL     1      43.617  -8.771   8.793  1.00  0.00     0.169 HD
HETATM   32  O   UNL     1      40.471  -8.941   9.036  1.00  0.00    -0.268 OA
BRANCH  30  33
HETATM   33  C   UNL     1      42.739  -7.905  10.455  1.00  0.00     0.057 A 
HETATM   34  C   UNL     1      42.290  -6.617  10.809  1.00  0.00     0.062 A 
HETATM   35 CL   UNL     1      41.923  -5.391   9.640  1.00  0.00    -0.082 Cl
HETATM   36  C   UNL     1      42.284  -6.216  12.149  1.00  0.00     0.050 A 
HETATM   37  C   UNL     1      42.747  -7.084  13.134  1.00  0.00     0.035 A 
HETATM   38 CL   UNL     1      42.733  -6.592  14.782  1.00  0.00    -0.084 Cl
HETATM   39  C   UNL     1      43.248  -8.337  12.792  1.00  0.00     0.026 A 
HETATM   40  C   UNL     1      43.259  -8.740  11.454  1.00  0.00     0.033 A 
ENDBRANCH  30  33
ENDBRANCH   9  29
TORSDOF 8
ENDMDL
MODEL 4
REMARK VINA RESULT:      -8.5      2.727      4.718
REMARK  8 active torsions:
REMARK  status: ('A' for Active; 'I' for Inactive)
REMARK    1  A    between atoms: C_4  and  S_5 
REMARK    2  A    between atoms: S_5  and  C_6 
REMARK    3  A    between atoms: C_6  and  C_7 
REMARK       I    between atoms: C_7  and  N_8 
REMARK    4  A    between atoms: N_8  and  C_9 
REMARK    5  A    between atoms: C_9  and  C_10 
REMARK    6  A    between atoms: C_20  and  C_21 
REMARK    7  A    between atoms: C_26  and  C_27 
REMARK       I    between atoms: C_27  and  N_28 
REMARK    8  A    between atoms: N_28  and  C_29 
ROOT
HETATM    1  C   UNL     1      38.826  -9.414   3.369  1.00  0.00     0.069 C 
HETATM    2  C   UNL     1      39.979 -10.064   4.095  1.00  0.00     0.019 C 
HETATM    3  N   UNL     1      40.287  -9.533   5.343  1.00  0.00    -0.353 N 
HETATM    4  C   UNL     1      41.508  -9.729   5.979  1.00  0.00     0.087 C 
HETATM    5  C   UNL     1      42.293 -10.756   5.552  1.00  0.00     0.057 C 
HETATM    6  C   UNL     1      43.683 -10.975   6.125  1.00  0.00     0.019 C 
HETATM    7  N   UNL     1      44.838 -11.157   6.599  1.00  0.00    -0.096 N 
HETATM    8  C   UNL     1      41.838 -11.690   4.436  1.00  0.00     0.129 C 
HETATM    9  C   UNL     1      40.721 -11.081   3.601  1.00  0.00     0.048 C 
HETATM   10  H   UNL     1      39.808  -8.667   5.561  1.00  0.00     0.166 HD
ENDROOT
BRANCH   4  11
HETATM   11  S   UNL     1      42.110  -8.688   7.268  1.00  0.00    -0.102 SA
BRANCH  11  12
HETATM   12  C   UNL     1      41.337  -9.331   8.772  1.00  0.00     0.183 C 
BRANCH  12  13
HETATM   13  C   UNL     1      42.305  -9.387   9.947  1.00  0.00     0.227 C 
HETATM   14  N   UNL     1      41.844 -10.034  11.073  1.00  0.00    -0.356 N 
HETATM   15  H   UNL     1      40.840 -10.030  11.211  1.00  0.00     0.162 HD
HETATM   16  O   UNL     1      43.458  -8.976   9.839  1.00  0.00    -0.273 OA
BRANCH  14  17
HETATM   17  C   UNL     1      42.681 -10.155  12.247  1.00  0.00     0.161 C 
BRANCH  17  18
HETATM   18  C   UNL     1      42.493  -9.060  13.271  1.00  0.00    -0.041 A 
HETATM   19  C   UNL     1      41.528  -9.108  14.288  1.00  0.00     0.009 A 
HETATM   20  C   UNL     1      41.421  -8.072  15.220  1.00  0.00     0.001 A 
HETATM   21  C   UNL     1      42.289  -6.983  15.162  1.00  0.00     0.000 A 
HETATM   22  C   UNL     1      43.264  -6.929  14.171  1.00  0.00     0.001 A 
HETATM   23  C   UNL     1      43.365  -7.958  13.234  1.00  0.00     0.009 A 
ENDBRANCH  17  18
ENDBRANCH  14  17
ENDBRANCH  12  13
ENDBRANCH  11  12
ENDBRANCH   4  11
BRANCH   8  24
HETATM   24  C   UNL     1      41.458 -13.048   4.971  1.00  0.00     0.066 A 
HETATM   25  O   UNL     1      40.535 -13.068   5.977  1.00  0.00    -0.326 OA
HETATM   26  C   UNL     1      40.355 -14.370   6.322  1.00  0.00     0.142 A 
HETATM   27  C   UNL     1      41.170 -15.184   5.571  1.00  0.00     0.027 A 
HETATM   28  C   UNL     1      41.889 -14.332   4.701  1.00  0.00     0.035 A 
ENDBRANCH   8  24
BRANCH   9  29
HETATM   29  C   UNL     1      40.591 -11.465   2.164  1.00  0.00     0.255 C 
HETATM   30  N   UNL     1      39.672 -12.457   1.894  1.00  0.00    -0.322 N 
HETATM   31  H   UNL     1      39.368 -13.042   2.664  1.00  0.00     0.169 HD
HETATM   32  O   UNL     1      41.362 -10.976   1.344  1.00  0.00    -0.268 OA
BRANCH  30  33
HETATM   33  C   UNL     1      39.450 -12.979   0.597  1.00  0.00     0.057 A 
HETATM   34  C   UNL     1      39.978 -14.193   0.114  1.00  0.00     0.062 A 
HETATM   35 CL   UNL     1      41.212 -15.082   0.944  1.00  0.00    -0.082 Cl
HETATM   36  C   UNL     1      39.638 -14.649  -1.164  1.00  0.00     0.050 A 
HETATM   37  C   UNL     1      38.797 -13.890  -1.971  1.00  0.00     0.035 A 
HETATM   38 CL   UNL     1      38.375 -14.456  -3.539  1.00  0.00    -0.084 Cl
HETATM   39  C   UNL     1      38.315 -12.661  -1.528  1.00  0.00     0.026 A 
HETATM   40  C   UNL     1      38.654 -12.199  -0.254  1.00  0.00     0.033 A 
ENDBRANCH  30  33
ENDBRANCH   9  29
TORSDOF 8
ENDMDL
MODEL 5
REMARK VINA RESULT:      -8.3      4.092     10.247
REMARK  8 active torsions:
REMARK  status: ('A' for Active; 'I' for Inactive)
REMARK    1  A    between atoms: C_4  and  S_5 
REMARK    2  A    between atoms: S_5  and  C_6 
REMARK    3  A    between atoms: C_6  and  C_7 
REMARK       I    between atoms: C_7  and  N_8 
REMARK    4  A    between atoms: N_8  and  C_9 
REMARK    5  A    between atoms: C_9  and  C_10 
REMARK    6  A    between atoms: C_20  and  C_21 
REMARK    7  A    between atoms: C_26  and  C_27 
REMARK       I    between atoms: C_27  and  N_28 
REMARK    8  A    between atoms: N_28  and  C_29 
ROOT
HETATM    1  C   UNL     1      40.756  -8.184   5.237  1.00  0.00     0.069 C 
HETATM    2  C   UNL     1      41.626  -9.335   5.681  1.00  0.00     0.019 C 
HETATM    3  N   UNL     1      42.387  -9.939   4.687  1.00  0.00    -0.353 N 
HETATM    4  C   UNL     1      42.939 -11.210   4.809  1.00  0.00     0.087 C 
HETATM    5  C   UNL     1      43.052 -11.738   6.057  1.00  0.00     0.057 C 
HETATM    6  C   UNL     1      43.550 -13.159   6.268  1.00  0.00     0.019 C 
HETATM    7  N   UNL     1      43.963 -14.338   6.443  1.00  0.00    -0.096 N 
HETATM    8  C   UNL     1      42.624 -10.954   7.292  1.00  0.00     0.129 C 
HETATM    9  C   UNL     1      41.680  -9.812   6.946  1.00  0.00     0.048 C 
HETATM   10  H   UNL     1      42.156  -9.645   3.744  1.00  0.00     0.166 HD
ENDROOT
BRANCH   4  11
HETATM   11  S   UNL     1      43.449 -12.184   3.430  1.00  0.00    -0.102 SA
BRANCH  11  12
HETATM   12  C   UNL     1      41.926 -12.498   2.506  1.00  0.00     0.183 C 
BRANCH  12  13
HETATM   13  C   UNL     1      41.353 -13.882   2.780  1.00  0.00     0.227 C 
HETATM   14  N   UNL     1      41.920 -14.917   2.069  1.00  0.00    -0.356 N 
HETATM   15  H   UNL     1      42.317 -14.676   1.168  1.00  0.00     0.162 HD
HETATM   16  O   UNL     1      40.518 -14.059   3.665  1.00  0.00    -0.273 OA
BRANCH  14  17
HETATM   17  C   UNL     1      41.459 -16.276   2.255  1.00  0.00     0.161 C 
BRANCH  17  18
HETATM   18  C   UNL     1      42.478 -17.209   2.868  1.00  0.00    -0.041 A 
HETATM   19  C   UNL     1      42.953 -18.365   2.231  1.00  0.00     0.009 A 
HETATM   20  C   UNL     1      43.915 -19.174   2.842  1.00  0.00     0.001 A 
HETATM   21  C   UNL     1      44.432 -18.829   4.088  1.00  0.00     0.000 A 
HETATM   22  C   UNL     1      43.986 -17.675   4.727  1.00  0.00     0.001 A 
HETATM   23  C   UNL     1      43.018 -16.873   4.122  1.00  0.00     0.009 A 
ENDBRANCH  17  18
ENDBRANCH  14  17
ENDBRANCH  12  13
ENDBRANCH  11  12
ENDBRANCH   4  11
BRANCH   8  24
HETATM   24  C   UNL     1      43.815 -10.473   8.083  1.00  0.00     0.066 A 
HETATM   25  O   UNL     1      43.616 -10.275   9.420  1.00  0.00    -0.326 OA
HETATM   26  C   UNL     1      44.792  -9.827   9.931  1.00  0.00     0.142 A 
HETATM   27  C   UNL     1      45.736  -9.708   8.939  1.00  0.00     0.027 A 
HETATM   28  C   UNL     1      45.106 -10.119   7.741  1.00  0.00     0.035 A 
ENDBRANCH   8  24
BRANCH   9  29
HETATM   29  C   UNL     1      40.668  -9.371   7.950  1.00  0.00     0.255 C 
HETATM   30  N   UNL     1      41.121  -8.478   8.898  1.00  0.00    -0.322 N 
HETATM   31  H   UNL     1      42.123  -8.402   9.035  1.00  0.00     0.169 HD
HETATM   32  O   UNL     1      39.558  -9.894   7.948  1.00  0.00    -0.268 OA
BRANCH  30  33
HETATM   33  C   UNL     1      40.315  -7.988   9.954  1.00  0.00     0.057 A 
HETATM   34  C   UNL     1      39.415  -6.910   9.849  1.00  0.00     0.062 A 
HETATM   35 CL   UNL     1      39.375  -5.842   8.485  1.00  0.00    -0.082 Cl
HETATM   36  C   UNL     1      38.616  -6.551  10.940  1.00  0.00     0.050 A 
HETATM   37  C   UNL     1      38.728  -7.246  12.141  1.00  0.00     0.035 A 
HETATM   38 CL   UNL     1      37.740  -6.808  13.478  1.00  0.00    -0.084 Cl
HETATM   39  C   UNL     1      39.656  -8.276  12.276  1.00  0.00     0.026 A 
HETATM   40  C   UNL     1      40.459  -8.635  11.190  1.00  0.00     0.033 A 
ENDBRANCH  30  33
ENDBRANCH   9  29
TORSDOF 8
ENDMDL
MODEL 6
REMARK VINA RESULT:      -8.3      2.990      3.965
REMARK  8 active torsions:
REMARK  status: ('A' for Active; 'I' for Inactive)
REMARK    1  A    between atoms: C_4  and  S_5 
REMARK    2  A    between atoms: S_5  and  C_6 
REMARK    3  A    between atoms: C_6  and  C_7 
REMARK       I    between atoms: C_7  and  N_8 
REMARK    4  A    between atoms: N_8  and  C_9 
REMARK    5  A    between atoms: C_9  and  C_10 
REMARK    6  A    between atoms: C_20  and  C_21 
REMARK    7  A    between atoms: C_26  and  C_27 
REMARK       I    between atoms: C_27  and  N_28 
REMARK    8  A    between atoms: N_28  and  C_29 
ROOT
HETATM    1  C   UNL     1      44.327 -11.545   4.267  1.00  0.00     0.069 C 
HETATM    2  C   UNL     1      43.010 -11.264   3.586  1.00  0.00     0.019 C 
HETATM    3  N   UNL     1      42.430 -10.032   3.870  1.00  0.00    -0.353 N 
HETATM    4  C   UNL     1      41.085  -9.751   3.657  1.00  0.00     0.087 C 
HETATM    5  C   UNL     1      40.388 -10.563   2.818  1.00  0.00     0.057 C 
HETATM    6  C   UNL     1      38.893 -10.385   2.611  1.00  0.00     0.019 C 
HETATM    7  N   UNL     1      37.652 -10.237   2.439  1.00  0.00    -0.096 N 
HETATM    8  C   UNL     1      41.062 -11.727   2.101  1.00  0.00     0.129 C 
HETATM    9  C   UNL     1      42.370 -12.129   2.767  1.00  0.00     0.048 C 
HETATM   10  H   UNL     1      42.875  -9.523   4.626  1.00  0.00     0.166 HD
ENDROOT
BRANCH   4  11
HETATM   11  S   UNL     1      40.231  -8.431   4.456  1.00  0.00    -0.102 SA
BRANCH  11  12
HETATM   12  C   UNL     1      39.965  -9.015   6.147  1.00  0.00     0.183 C 
BRANCH  12  13
HETATM   13  C   UNL     1      41.114  -8.652   7.077  1.00  0.00     0.227 C 
HETATM   14  N   UNL     1      41.327  -9.513   8.132  1.00  0.00    -0.356 N 
HETATM   15  H   UNL     1      40.515 -10.022   8.463  1.00  0.00     0.162 HD
HETATM   16  O   UNL     1      41.864  -7.711   6.823  1.00  0.00    -0.273 OA
BRANCH  14  17
HETATM   17  C   UNL     1      42.397  -9.271   9.075  1.00  0.00     0.161 C 
BRANCH  17  18
HETATM   18  C   UNL     1      43.776  -9.622   8.567  1.00  0.00    -0.041 A 
HETATM   19  C   UNL     1      44.863  -8.735   8.601  1.00  0.00     0.009 A 
HETATM   20  C   UNL     1      46.121  -9.129   8.137  1.00  0.00     0.001 A 
HETATM   21  C   UNL     1      46.317 -10.419   7.651  1.00  0.00     0.000 A 
HETATM   22  C   UNL     1      45.255 -11.318   7.628  1.00  0.00     0.001 A 
HETATM   23  C   UNL     1      43.996 -10.923   8.082  1.00  0.00     0.009 A 
ENDBRANCH  17  18
ENDBRANCH  14  17
ENDBRANCH  12  13
ENDBRANCH  11  12
ENDBRANCH   4  11
BRANCH   8  24
HETATM   24  C   UNL     1      41.249 -11.440   0.632  1.00  0.00     0.066 A 
HETATM   25  O   UNL     1      41.815 -10.237   0.316  1.00  0.00    -0.326 OA
HETATM   26  C   UNL     1      41.871 -10.172  -1.039  1.00  0.00     0.142 A 
HETATM   27  C   UNL     1      41.325 -11.302  -1.600  1.00  0.00     0.027 A 
HETATM   28  C   UNL     1      40.917 -12.122  -0.522  1.00  0.00     0.035 A 
ENDBRANCH   8  24
BRANCH   9  29
HETATM   29  C   UNL     1      42.827 -13.547   2.682  1.00  0.00     0.255 C 
HETATM   30  N   UNL     1      42.435 -14.362   3.723  1.00  0.00    -0.322 N 
HETATM   31  H   UNL     1      42.129 -13.918   4.581  1.00  0.00     0.169 HD
HETATM   32  O   UNL     1      43.596 -13.874   1.782  1.00  0.00    -0.268 OA
BRANCH  30  33
HETATM   33  C   UNL     1      42.815 -15.722   3.833  1.00  0.00     0.057 A 
HETATM   34  C   UNL     1      42.397 -16.750   2.966  1.00  0.00     0.062 A 
HETATM   35 CL   UNL     1      41.125 -16.548   1.807  1.00  0.00    -0.082 Cl
HETATM   36  C   UNL     1      42.888 -18.050   3.127  1.00  0.00     0.050 A 
HETATM   37  C   UNL     1      43.774 -18.334   4.162  1.00  0.00     0.035 A 
HETATM   38 CL   UNL     1      44.382 -19.931   4.354  1.00  0.00    -0.084 Cl
HETATM   39  C   UNL     1      44.150 -17.340   5.062  1.00  0.00     0.026 A 
HETATM   40  C   UNL     1      43.658 -16.040   4.908  1.00  0.00     0.033 A 
ENDBRANCH  30  33
ENDBRANCH   9  29
TORSDOF 8
ENDMDL
MODEL 7
REMARK VINA RESULT:      -8.0      6.865     10.246
REMARK  8 active torsions:
REMARK  status: ('A' for Active; 'I' for Inactive)
REMARK    1  A    between atoms: C_4  and  S_5 
REMARK    2  A    between atoms: S_5  and  C_6 
REMARK    3  A    between atoms: C_6  and  C_7 
REMARK       I    between atoms: C_7  and  N_8 
REMARK    4  A    between atoms: N_8  and  C_9 
REMARK    5  A    between atoms: C_9  and  C_10 
REMARK    6  A    between atoms: C_20  and  C_21 
REMARK    7  A    between atoms: C_26  and  C_27 
REMARK       I    between atoms: C_27  and  N_28 
REMARK    8  A    between atoms: N_28  and  C_29 
ROOT
HETATM    1  C   UNL     1      39.151  -9.776   2.034  1.00  0.00     0.069 C 
HETATM    2  C   UNL     1      39.711 -11.102   1.578  1.00  0.00     0.019 C 
HETATM    3  N   UNL     1      39.433 -12.192   2.397  1.00  0.00    -0.353 N 
HETATM    4  C   UNL     1      40.152 -13.381   2.360  1.00  0.00     0.087 C 
HETATM    5  C   UNL     1      40.910 -13.635   1.259  1.00  0.00     0.057 C 
HETATM    6  C   UNL     1      41.803 -14.862   1.185  1.00  0.00     0.019 C 
HETATM    7  N   UNL     1      42.545 -15.880   1.122  1.00  0.00    -0.096 N 
HETATM    8  C   UNL     1      40.947 -12.667   0.082  1.00  0.00     0.129 C 
HETATM    9  C   UNL     1      40.466 -11.276   0.470  1.00  0.00     0.048 C 
HETATM   10  H   UNL     1      39.021 -11.950   3.291  1.00  0.00     0.166 HD
ENDROOT
BRANCH   4  11
HETATM   11  S   UNL     1      40.170 -14.546   3.683  1.00  0.00    -0.102 SA
BRANCH  11  12
HETATM   12  C   UNL     1      41.782 -14.318   4.472  1.00  0.00     0.183 C 
BRANCH  12  13
HETATM   13  C   UNL     1      42.302 -15.596   5.116  1.00  0.00     0.227 C 
HETATM   14  N   UNL     1      43.589 -15.955   4.781  1.00  0.00    -0.356 N 
HETATM   15  H   UNL     1      43.917 -15.646   3.873  1.00  0.00     0.162 HD
HETATM   16  O   UNL     1      41.642 -16.192   5.965  1.00  0.00    -0.273 OA
BRANCH  14  17
HETATM   17  C   UNL     1      44.190 -17.146   5.340  1.00  0.00     0.161 C 
BRANCH  17  18
HETATM   18  C   UNL     1      44.004 -18.396   4.511  1.00  0.00    -0.041 A 
HETATM   19  C   UNL     1      43.797 -18.381   3.123  1.00  0.00     0.009 A 
HETATM   20  C   UNL     1      43.656 -19.574   2.409  1.00  0.00     0.001 A 
HETATM   21  C   UNL     1      43.738 -20.799   3.067  1.00  0.00     0.000 A 
HETATM   22  C   UNL     1      43.961 -20.833   4.440  1.00  0.00     0.001 A 
HETATM   23  C   UNL     1      44.093 -19.642   5.155  1.00  0.00     0.009 A 
ENDBRANCH  17  18
ENDBRANCH  14  17
ENDBRANCH  12  13
ENDBRANCH  11  12
ENDBRANCH   4  11
BRANCH   8  24
HETATM   24  C   UNL     1      40.188 -13.208  -1.104  1.00  0.00     0.066 A 
HETATM   25  O   UNL     1      39.185 -12.422  -1.594  1.00  0.00    -0.326 OA
HETATM   26  C   UNL     1      38.625 -13.097  -2.631  1.00  0.00     0.142 A 
HETATM   27  C   UNL     1      39.236 -14.318  -2.798  1.00  0.00     0.027 A 
HETATM   28  C   UNL     1      40.244 -14.395  -1.809  1.00  0.00     0.035 A 
ENDBRANCH   8  24
BRANCH   9  29
HETATM   29  C   UNL     1      41.009 -10.088  -0.252  1.00  0.00     0.255 C 
HETATM   30  N   UNL     1      40.260  -9.649  -1.323  1.00  0.00    -0.322 N 
HETATM   31  H   UNL     1      39.582 -10.290  -1.720  1.00  0.00     0.169 HD
HETATM   32  O   UNL     1      42.113  -9.651   0.063  1.00  0.00    -0.268 OA
BRANCH  30  33
HETATM   33  C   UNL     1      40.644  -8.567  -2.151  1.00  0.00     0.057 A 
HETATM   34  C   UNL     1      40.590  -7.208  -1.782  1.00  0.00     0.062 A 
HETATM   35 CL   UNL     1      39.774  -6.648  -0.359  1.00  0.00    -0.082 Cl
HETATM   36  C   UNL     1      41.060  -6.222  -2.655  1.00  0.00     0.050 A 
HETATM   37  C   UNL     1      41.559  -6.581  -3.904  1.00  0.00     0.035 A 
HETATM   38 CL   UNL     1      42.142  -5.368  -4.973  1.00  0.00    -0.084 Cl
HETATM   39  C   UNL     1      41.564  -7.915  -4.304  1.00  0.00     0.026 A 
HETATM   40  C   UNL     1      41.092  -8.904  -3.436  1.00  0.00     0.033 A 
ENDBRANCH  30  33
ENDBRANCH   9  29
TORSDOF 8
ENDMDL
MODEL 8
REMARK VINA RESULT:      -7.9      4.661      9.120
REMARK  8 active torsions:
REMARK  status: ('A' for Active; 'I' for Inactive)
REMARK    1  A    between atoms: C_4  and  S_5 
REMARK    2  A    between atoms: S_5  and  C_6 
REMARK    3  A    between atoms: C_6  and  C_7 
REMARK       I    between atoms: C_7  and  N_8 
REMARK    4  A    between atoms: N_8  and  C_9 
REMARK    5  A    between atoms: C_9  and  C_10 
REMARK    6  A    between atoms: C_20  and  C_21 
REMARK    7  A    between atoms: C_26  and  C_27 
REMARK       I    between atoms: C_27  and  N_28 
REMARK    8  A    between atoms: N_28  and  C_29 
ROOT
HETATM    1  C   UNL     1      40.058 -13.311   0.605  1.00  0.00     0.069 C 
HETATM    2  C   UNL     1      40.182 -12.115   1.518  1.00  0.00     0.019 C 
HETATM    3  N   UNL     1      39.450 -10.991   1.149  1.00  0.00    -0.353 N 
HETATM    4  C   UNL     1      39.719  -9.712   1.624  1.00  0.00     0.087 C 
HETATM    5  C   UNL     1      40.473  -9.595   2.750  1.00  0.00     0.057 C 
HETATM    6  C   UNL     1      40.895  -8.233   3.277  1.00  0.00     0.019 C 
HETATM    7  N   UNL     1      41.246  -7.103   3.714  1.00  0.00    -0.096 N 
HETATM    8  C   UNL     1      40.982 -10.824   3.495  1.00  0.00     0.129 C 
HETATM    9  C   UNL     1      40.962 -12.070   2.622  1.00  0.00     0.048 C 
HETATM   10  H   UNL     1      39.040 -11.043   0.224  1.00  0.00     0.166 HD
ENDROOT
BRANCH   4  11
HETATM   11  S   UNL     1      39.175  -8.242   0.816  1.00  0.00    -0.102 SA
BRANCH  11  12
HETATM   12  C   UNL     1      40.562  -7.762  -0.241  1.00  0.00     0.183 C 
BRANCH  12  13
HETATM   13  C   UNL     1      41.165  -8.946  -0.986  1.00  0.00     0.227 C 
HETATM   14  N   UNL     1      40.379  -9.493  -1.977  1.00  0.00    -0.356 N 
HETATM   15  H   UNL     1      39.377  -9.394  -1.858  1.00  0.00     0.162 HD
HETATM   16  O   UNL     1      42.323  -9.302  -0.780  1.00  0.00    -0.273 OA
BRANCH  14  17
HETATM   17  C   UNL     1      40.854 -10.617  -2.756  1.00  0.00     0.161 C 
BRANCH  17  18
HETATM   18  C   UNL     1      39.930 -11.813  -2.765  1.00  0.00    -0.041 A 
HETATM   19  C   UNL     1      40.369 -13.130  -2.965  1.00  0.00     0.009 A 
HETATM   20  C   UNL     1      39.466 -14.196  -2.937  1.00  0.00     0.001 A 
HETATM   21  C   UNL     1      38.115 -13.964  -2.690  1.00  0.00     0.000 A 
HETATM   22  C   UNL     1      37.664 -12.666  -2.471  1.00  0.00     0.001 A 
HETATM   23  C   UNL     1      38.564 -11.600  -2.508  1.00  0.00     0.009 A 
ENDBRANCH  17  18
ENDBRANCH  14  17
ENDBRANCH  12  13
ENDBRANCH  11  12
ENDBRANCH   4  11
BRANCH   8  24
HETATM   24  C   UNL     1      40.235 -11.036   4.788  1.00  0.00     0.066 A 
HETATM   25  O   UNL     1      38.948 -10.582   4.828  1.00  0.00    -0.326 OA
HETATM   26  C   UNL     1      38.473 -10.851   6.072  1.00  0.00     0.142 A 
HETATM   27  C   UNL     1      39.445 -11.446   6.842  1.00  0.00     0.027 A 
HETATM   28  C   UNL     1      40.588 -11.562   6.016  1.00  0.00     0.035 A 
ENDBRANCH   8  24
BRANCH   9  29
HETATM   29  C   UNL     1      41.962 -13.150   2.868  1.00  0.00     0.255 C 
HETATM   30  N   UNL     1      41.458 -14.316   3.404  1.00  0.00    -0.322 N 
HETATM   31  H   UNL     1      40.548 -14.277   3.849  1.00  0.00     0.169 HD
HETATM   32  O   UNL     1      43.154 -12.911   2.695  1.00  0.00    -0.268 OA
BRANCH  30  33
HETATM   33  C   UNL     1      42.266 -15.428   3.746  1.00  0.00     0.057 A 
HETATM   34  C   UNL     1      42.956 -15.580   4.965  1.00  0.00     0.062 A 
HETATM   35 CL   UNL     1      43.147 -14.292   6.109  1.00  0.00    -0.082 Cl
HETATM   36  C   UNL     1      43.672 -16.752   5.227  1.00  0.00     0.050 A 
HETATM   37  C   UNL     1      43.724 -17.762   4.271  1.00  0.00     0.035 A 
HETATM   38 CL   UNL     1      44.599 -19.206   4.598  1.00  0.00    -0.084 Cl
HETATM   39  C   UNL     1      43.095 -17.601   3.040  1.00  0.00     0.026 A 
HETATM   40  C   UNL     1      42.381 -16.429   2.771  1.00  0.00     0.033 A 
ENDBRANCH  30  33
ENDBRANCH   9  29
TORSDOF 8
ENDMDL
MODEL 9
REMARK VINA RESULT:      -7.9      2.324      3.164
REMARK  8 active torsions:
REMARK  status: ('A' for Active; 'I' for Inactive)
REMARK    1  A    between atoms: C_4  and  S_5 
REMARK    2  A    between atoms: S_5  and  C_6 
REMARK    3  A    between atoms: C_6  and  C_7 
REMARK       I    between atoms: C_7  and  N_8 
REMARK    4  A    between atoms: N_8  and  C_9 
REMARK    5  A    between atoms: C_9  and  C_10 
REMARK    6  A    between atoms: C_20  and  C_21 
REMARK    7  A    between atoms: C_26  and  C_27 
REMARK       I    between atoms: C_27  and  N_28 
REMARK    8  A    between atoms: N_28  and  C_29 
ROOT
HETATM    1  C   UNL     1      44.301 -11.582   4.053  1.00  0.00     0.069 C 
HETATM    2  C   UNL     1      42.973 -11.363   3.369  1.00  0.00     0.019 C 
HETATM    3  N   UNL     1      42.340 -10.156   3.645  1.00  0.00    -0.353 N 
HETATM    4  C   UNL     1      40.984  -9.934   3.429  1.00  0.00     0.087 C 
HETATM    5  C   UNL     1      40.325 -10.782   2.594  1.00  0.00     0.057 C 
HETATM    6  C   UNL     1      38.823 -10.670   2.384  1.00  0.00     0.019 C 
HETATM    7  N   UNL     1      37.577 -10.578   2.210  1.00  0.00    -0.096 N 
HETATM    8  C   UNL     1      41.050 -11.920   1.884  1.00  0.00     0.129 C 
HETATM    9  C   UNL     1      42.373 -12.260   2.554  1.00  0.00     0.048 C 
HETATM   10  H   UNL     1      42.762  -9.623   4.397  1.00  0.00     0.166 HD
ENDROOT
BRANCH   4  11
HETATM   11  S   UNL     1      40.073  -8.648   4.218  1.00  0.00    -0.102 SA
BRANCH  11  12
HETATM   12  C   UNL     1      39.838  -9.229   5.915  1.00  0.00     0.183 C 
BRANCH  12  13
HETATM   13  C   UNL     1      41.106  -9.829   6.506  1.00  0.00     0.227 C 
HETATM   14  N   UNL     1      41.987  -8.932   7.071  1.00  0.00    -0.356 N 
HETATM   15  H   UNL     1      41.970  -7.991   6.694  1.00  0.00     0.162 HD
HETATM   16  O   UNL     1      41.263 -11.047   6.569  1.00  0.00    -0.273 OA
BRANCH  14  17
HETATM   17  C   UNL     1      43.221  -9.391   7.671  1.00  0.00     0.161 C 
BRANCH  17  18
HETATM   18  C   UNL     1      43.312  -9.180   9.165  1.00  0.00    -0.041 A 
HETATM   19  C   UNL     1      42.981  -7.973   9.799  1.00  0.00     0.009 A 
HETATM   20  C   UNL     1      43.064  -7.850  11.189  1.00  0.00     0.001 A 
HETATM   21  C   UNL     1      43.460  -8.935  11.967  1.00  0.00     0.000 A 
HETATM   22  C   UNL     1      43.775 -10.145  11.356  1.00  0.00     0.001 A 
HETATM   23  C   UNL     1      43.701 -10.266   9.967  1.00  0.00     0.009 A 
ENDBRANCH  17  18
ENDBRANCH  14  17
ENDBRANCH  12  13
ENDBRANCH  11  12
ENDBRANCH   4  11
BRANCH   8  24
HETATM   24  C   UNL     1      41.226 -11.633   0.414  1.00  0.00     0.066 A 
HETATM   25  O   UNL     1      41.650 -10.376   0.087  1.00  0.00    -0.326 OA
HETATM   26  C   UNL     1      41.721 -10.325  -1.268  1.00  0.00     0.142 A 
HETATM   27  C   UNL     1      41.322 -11.520  -1.819  1.00  0.00     0.027 A 
HETATM   28  C   UNL     1      40.996 -12.367  -0.734  1.00  0.00     0.035 A 
ENDBRANCH   8  24
BRANCH   9  29
HETATM   29  C   UNL     1      42.892 -13.657   2.479  1.00  0.00     0.255 C 
HETATM   30  N   UNL     1      42.499 -14.494   3.502  1.00  0.00    -0.322 N 
HETATM   31  H   UNL     1      42.146 -14.068   4.351  1.00  0.00     0.169 HD
HETATM   32  O   UNL     1      43.704 -13.946   1.604  1.00  0.00    -0.268 OA
BRANCH  30  33
HETATM   33  C   UNL     1      42.932 -15.837   3.619  1.00  0.00     0.057 A 
HETATM   34  C   UNL     1      43.503 -16.403   4.776  1.00  0.00     0.062 A 
HETATM   35 CL   UNL     1      44.022 -15.458   6.132  1.00  0.00    -0.082 Cl
HETATM   36  C   UNL     1      43.834 -17.762   4.805  1.00  0.00     0.050 A 
HETATM   37  C   UNL     1      43.622 -18.552   3.679  1.00  0.00     0.035 A 
HETATM   38 CL   UNL     1      44.022 -20.224   3.719  1.00  0.00    -0.084 Cl
HETATM   39  C   UNL     1      43.112 -17.992   2.510  1.00  0.00     0.026 A 
HETATM   40  C   UNL     1      42.784 -16.634   2.475  1.00  0.00     0.033 A 
ENDBRANCH  30  33
ENDBRANCH   9  29
TORSDOF 8
ENDMDL
MODEL 10
REMARK VINA RESULT:      -7.6      4.380     10.960
REMARK  8 active torsions:
REMARK  status: ('A' for Active; 'I' for Inactive)
REMARK    1  A    between atoms: C_4  and  S_5 
REMARK    2  A    between atoms: S_5  and  C_6 
REMARK    3  A    between atoms: C_6  and  C_7 
REMARK       I    between atoms: C_7  and  N_8 
REMARK    4  A    between atoms: N_8  and  C_9 
REMARK    5  A    between atoms: C_9  and  C_10 
REMARK    6  A    between atoms: C_20  and  C_21 
REMARK    7  A    between atoms: C_26  and  C_27 
REMARK       I    between atoms: C_27  and  N_28 
REMARK    8  A    between atoms: N_28  and  C_29 
ROOT
HETATM    1  C   UNL     1      41.186  -9.221   4.296  1.00  0.00     0.069 C 
HETATM    2  C   UNL     1      41.880 -10.345   5.028  1.00  0.00     0.019 C 
HETATM    3  N   UNL     1      42.107 -11.501   4.289  1.00  0.00    -0.353 N 
HETATM    4  C   UNL     1      42.374 -12.738   4.865  1.00  0.00     0.087 C 
HETATM    5  C   UNL     1      42.784 -12.763   6.161  1.00  0.00     0.057 C 
HETATM    6  C   UNL     1      42.999 -14.078   6.893  1.00  0.00     0.019 C 
HETATM    7  N   UNL     1      43.177 -15.169   7.502  1.00  0.00    -0.096 N 
HETATM    8  C   UNL     1      42.983 -11.477   6.955  1.00  0.00     0.129 C 
HETATM    9  C   UNL     1      42.253 -10.299   6.327  1.00  0.00     0.048 C 
HETATM   10  H   UNL     1      41.641 -11.522   3.389  1.00  0.00     0.166 HD
ENDROOT
BRANCH   4  11
HETATM   11  S   UNL     1      42.159 -14.270   4.018  1.00  0.00    -0.102 SA
BRANCH  11  12
HETATM   12  C   UNL     1      42.057 -13.815   2.270  1.00  0.00     0.183 C 
BRANCH  12  13
HETATM   13  C   UNL     1      40.640 -13.461   1.841  1.00  0.00     0.227 C 
HETATM   14  N   UNL     1      40.532 -12.684   0.708  1.00  0.00    -0.356 N 
HETATM   15  H   UNL     1      41.316 -12.072   0.510  1.00  0.00     0.162 HD
HETATM   16  O   UNL     1      39.664 -13.942   2.415  1.00  0.00    -0.273 OA
BRANCH  14  17
HETATM   17  C   UNL     1      39.234 -12.294   0.203  1.00  0.00     0.161 C 
BRANCH  17  18
HETATM   18  C   UNL     1      38.777 -13.057  -1.018  1.00  0.00    -0.041 A 
HETATM   19  C   UNL     1      37.696 -12.661  -1.820  1.00  0.00     0.009 A 
HETATM   20  C   UNL     1      37.338 -13.399  -2.952  1.00  0.00     0.001 A 
HETATM   21  C   UNL     1      38.067 -14.531  -3.311  1.00  0.00     0.000 A 
HETATM   22  C   UNL     1      39.154 -14.927  -2.537  1.00  0.00     0.001 A 
HETATM   23  C   UNL     1      39.505 -14.197  -1.401  1.00  0.00     0.009 A 
ENDBRANCH  17  18
ENDBRANCH  14  17
ENDBRANCH  12  13
ENDBRANCH  11  12
ENDBRANCH   4  11
BRANCH   8  24
HETATM   24  C   UNL     1      44.446 -11.178   7.167  1.00  0.00     0.066 A 
HETATM   25  O   UNL     1      44.766 -10.478   8.296  1.00  0.00    -0.326 OA
HETATM   26  C   UNL     1      46.112 -10.299   8.281  1.00  0.00     0.142 A 
HETATM   27  C   UNL     1      46.660 -10.849   7.146  1.00  0.00     0.027 A 
HETATM   28  C   UNL     1      45.585 -11.413   6.420  1.00  0.00     0.035 A 
ENDBRANCH   8  24
BRANCH   9  29
HETATM   29  C   UNL     1      41.764  -9.193   7.201  1.00  0.00     0.255 C 
HETATM   30  N   UNL     1      42.666  -8.177   7.435  1.00  0.00    -0.322 N 
HETATM   31  H   UNL     1      43.647  -8.365   7.258  1.00  0.00     0.169 HD
HETATM   32  O   UNL     1      40.666  -9.298   7.739  1.00  0.00    -0.268 OA
BRANCH  30  33
HETATM   33  C   UNL     1      42.393  -7.071   8.277  1.00  0.00     0.057 A 
HETATM   34  C   UNL     1      42.790  -6.965   9.625  1.00  0.00     0.062 A 
HETATM   35 CL   UNL     1      43.423  -8.299  10.531  1.00  0.00    -0.082 Cl
HETATM   36  C   UNL     1      42.525  -5.796  10.346  1.00  0.00     0.050 A 
HETATM   37  C   UNL     1      41.845  -4.745   9.739  1.00  0.00     0.035 A 
HETATM   38 CL   UNL     1      41.527  -3.306  10.625  1.00  0.00    -0.084 Cl
HETATM   39  C   UNL     1      41.396  -4.860   8.426  1.00  0.00     0.026 A 
HETATM   40  C   UNL     1      41.655  -6.027   7.702  1.00  0.00     0.033 A 
ENDBRANCH  30  33
ENDBRANCH   9  29
TORSDOF 8
ENDMDL
