MODEL 1
REMARK VINA RESULT:      -8.9      0.000      0.000
REMARK  5 active torsions:
REMARK  status: ('A' for Active; 'I' for Inactive)
REMARK    1  A    between atoms: C_9  and  C_10 
REMARK    2  A    between atoms: C_13  and  O_14 
REMARK    3  A    between atoms: O_14  and  C_15 
REMARK    4  A    between atoms: C_20  and  C_21 
REMARK       I    between atoms: C_21  and  N_22 
REMARK    5  A    between atoms: N_22  and  C_23 
ROOT
HETATM    1  C   UNL     1      41.498 -10.120   1.320  1.00  0.00     0.070 C 
HETATM    2  C   UNL     1      41.880 -11.109   2.393  1.00  0.00     0.037 A 
HETATM    3  N   UNL     1      42.963 -10.751   3.190  1.00  0.00    -0.192 N 
HETATM    4  C   UNL     1      43.369 -11.471   4.252  1.00  0.00     0.725 A 
HETATM    5  N   UNL     1      42.768 -12.672   4.516  1.00  0.00    -0.084 N 
HETATM    6  N   UNL     1      43.191 -13.183   5.691  1.00  0.00    -0.149 NA
HETATM    7  C   UNL     1      44.128 -12.286   6.024  1.00  0.00     0.275 A 
HETATM    8  N   UNL     1      44.262 -11.220   5.174  1.00  0.00    -0.054 NA
HETATM    9  C   UNL     1      41.686 -13.245   3.709  1.00  0.00     0.202 A 
HETATM   10  C   UNL     1      41.231 -12.277   2.625  1.00  0.00     0.062 A 
HETATM   11  H   UNL     1      43.400  -9.850   3.015  1.00  0.00     0.184 HD
ENDROOT
BRANCH   9  12
HETATM   12  C   UNL     1      42.102 -14.611   3.174  1.00  0.00    -0.028 A 
HETATM   13  C   UNL     1      41.546 -15.776   3.724  1.00  0.00     0.012 A 
HETATM   14  C   UNL     1      41.926 -17.035   3.252  1.00  0.00     0.037 A 
HETATM   15  C   UNL     1      42.859 -17.159   2.221  1.00  0.00     0.074 A 
HETATM   16  C   UNL     1      43.434 -16.009   1.682  1.00  0.00     0.037 A 
HETATM   17  C   UNL     1      43.060 -14.746   2.155  1.00  0.00     0.012 A 
BRANCH  15  18
HETATM   18  O   UNL     1      43.141 -18.446   1.856  1.00  0.00    -0.290 OA
BRANCH  18  19
HETATM   19  C   UNL     1      43.672 -19.282   2.869  1.00  0.00     0.505 C 
HETATM   20  F   UNL     1      44.024 -20.474   2.327  1.00  0.00    -0.184 F 
HETATM   21  F   UNL     1      44.819 -18.703   3.309  1.00  0.00    -0.184 F 
ENDBRANCH  18  19
ENDBRANCH  15  18
ENDBRANCH   9  12
BRANCH  10  22
HETATM   22  C   UNL     1      40.100 -12.701   1.759  1.00  0.00     0.256 C 
HETATM   23  N   UNL     1      40.457 -12.841   0.434  1.00  0.00    -0.323 N 
HETATM   24  H   UNL     1      41.415 -12.652   0.176  1.00  0.00     0.169 HD
HETATM   25  O   UNL     1      38.998 -12.891   2.259  1.00  0.00    -0.267 OA
BRANCH  23  26
HETATM   26  C   UNL     1      39.627 -13.254  -0.632  1.00  0.00     0.035 A 
HETATM   27  C   UNL     1      39.674 -14.521  -1.215  1.00  0.00     0.029 A 
HETATM   28  C   UNL     1      38.826 -14.844  -2.279  1.00  0.00     0.002 A 
HETATM   29  C   UNL     1      37.918 -13.906  -2.763  1.00  0.00     0.000 A 
HETATM   30  C   UNL     1      37.858 -12.641  -2.185  1.00  0.00     0.002 A 
HETATM   31  C   UNL     1      38.712 -12.314  -1.129  1.00  0.00     0.029 A 
ENDBRANCH  23  26
ENDBRANCH  10  22
TORSDOF 5
ENDMDL
MODEL 2
REMARK VINA RESULT:      -8.9      3.687      6.597
REMARK  5 active torsions:
REMARK  status: ('A' for Active; 'I' for Inactive)
REMARK    1  A    between atoms: C_9  and  C_10 
REMARK    2  A    between atoms: C_13  and  O_14 
REMARK    3  A    between atoms: O_14  and  C_15 
REMARK    4  A    between atoms: C_20  and  C_21 
REMARK       I    between atoms: C_21  and  N_22 
REMARK    5  A    between atoms: N_22  and  C_23 
ROOT
HETATM    1  C   UNL     1      39.892 -15.445   0.629  1.00  0.00     0.070 C 
HETATM    2  C   UNL     1      39.804 -14.259   1.558  1.00  0.00     0.037 A 
HETATM    3  N   UNL     1      39.257 -13.102   1.013  1.00  0.00    -0.192 N 
HETATM    4  C   UNL     1      39.016 -11.989   1.731  1.00  0.00     0.725 A 
HETATM    5  N   UNL     1      39.416 -11.936   3.039  1.00  0.00    -0.084 N 
HETATM    6  N   UNL     1      38.965 -10.818   3.644  1.00  0.00    -0.149 NA
HETATM    7  C   UNL     1      38.392 -10.193   2.608  1.00  0.00     0.275 A 
HETATM    8  N   UNL     1      38.395 -10.880   1.422  1.00  0.00    -0.054 NA
HETATM    9  C   UNL     1      40.105 -13.030   3.733  1.00  0.00     0.202 A 
HETATM   10  C   UNL     1      40.197 -14.271   2.856  1.00  0.00     0.062 A 
HETATM   11  H   UNL     1      38.935 -13.140   0.050  1.00  0.00     0.184 HD
ENDROOT
BRANCH   9  12
HETATM   12  C   UNL     1      41.455 -12.548   4.255  1.00  0.00    -0.028 A 
HETATM   13  C   UNL     1      42.410 -12.043   3.360  1.00  0.00     0.012 A 
HETATM   14  C   UNL     1      43.655 -11.609   3.822  1.00  0.00     0.037 A 
HETATM   15  C   UNL     1      43.971 -11.664   5.181  1.00  0.00     0.074 A 
HETATM   16  C   UNL     1      43.037 -12.186   6.076  1.00  0.00     0.037 A 
HETATM   17  C   UNL     1      41.790 -12.626   5.617  1.00  0.00     0.012 A 
BRANCH  15  18
HETATM   18  O   UNL     1      45.221 -11.210   5.496  1.00  0.00    -0.290 OA
BRANCH  18  19
HETATM   19  C   UNL     1      45.547 -11.180   6.875  1.00  0.00     0.505 C 
HETATM   20  F   UNL     1      46.895 -11.155   7.015  1.00  0.00    -0.184 F 
HETATM   21  F   UNL     1      45.084 -10.005   7.373  1.00  0.00    -0.184 F 
ENDBRANCH  18  19
ENDBRANCH  15  18
ENDBRANCH   9  12
BRANCH  10  22
HETATM   22  C   UNL     1      40.824 -15.482   3.447  1.00  0.00     0.256 C 
HETATM   23  N   UNL     1      42.092 -15.725   2.963  1.00  0.00    -0.323 N 
HETATM   24  H   UNL     1      42.471 -15.086   2.277  1.00  0.00     0.169 HD
HETATM   25  O   UNL     1      40.206 -16.135   4.279  1.00  0.00    -0.267 OA
BRANCH  23  26
HETATM   26  C   UNL     1      42.961 -16.773   3.339  1.00  0.00     0.035 A 
HETATM   27  C   UNL     1      43.231 -17.888   2.544  1.00  0.00     0.029 A 
HETATM   28  C   UNL     1      44.093 -18.891   2.999  1.00  0.00     0.002 A 
HETATM   29  C   UNL     1      44.700 -18.783   4.247  1.00  0.00     0.000 A 
HETATM   30  C   UNL     1      44.442 -17.672   5.046  1.00  0.00     0.002 A 
HETATM   31  C   UNL     1      43.573 -16.675   4.597  1.00  0.00     0.029 A 
ENDBRANCH  23  26
ENDBRANCH  10  22
TORSDOF 5
ENDMDL
MODEL 3
REMARK VINA RESULT:      -8.8      3.025      6.319
REMARK  5 active torsions:
REMARK  status: ('A' for Active; 'I' for Inactive)
REMARK    1  A    between atoms: C_9  and  C_10 
REMARK    2  A    between atoms: C_13  and  O_14 
REMARK    3  A    between atoms: O_14  and  C_15 
REMARK    4  A    between atoms: C_20  and  C_21 
REMARK       I    between atoms: C_21  and  N_22 
REMARK    5  A    between atoms: N_22  and  C_23 
ROOT
HETATM    1  C   UNL     1      41.606 -15.837   7.148  1.00  0.00     0.070 C 
HETATM    2  C   UNL     1      41.979 -14.723   6.201  1.00  0.00     0.037 A 
HETATM    3  N   UNL     1      42.063 -13.453   6.763  1.00  0.00    -0.192 N 
HETATM    4  C   UNL     1      42.478 -12.369   6.081  1.00  0.00     0.725 A 
HETATM    5  N   UNL     1      42.735 -12.479   4.742  1.00  0.00    -0.084 N 
HETATM    6  N   UNL     1      43.281 -11.345   4.253  1.00  0.00    -0.149 NA
HETATM    7  C   UNL     1      43.221 -10.560   5.335  1.00  0.00     0.275 A 
HETATM    8  N   UNL     1      42.744 -11.151   6.476  1.00  0.00    -0.054 NA
HETATM    9  C   UNL     1      42.588 -13.721   3.975  1.00  0.00     0.202 A 
HETATM   10  C   UNL     1      42.245 -14.895   4.883  1.00  0.00     0.062 A 
HETATM   11  H   UNL     1      41.898 -13.367   7.762  1.00  0.00     0.184 HD
ENDROOT
BRANCH   9  12
HETATM   12  C   UNL     1      41.595 -13.518   2.836  1.00  0.00    -0.028 A 
HETATM   13  C   UNL     1      42.016 -13.666   1.506  1.00  0.00     0.012 A 
HETATM   14  C   UNL     1      41.121 -13.471   0.453  1.00  0.00     0.037 A 
HETATM   15  C   UNL     1      39.789 -13.132   0.700  1.00  0.00     0.074 A 
HETATM   16  C   UNL     1      39.365 -12.960   2.018  1.00  0.00     0.037 A 
HETATM   17  C   UNL     1      40.261 -13.150   3.077  1.00  0.00     0.012 A 
BRANCH  15  18
HETATM   18  O   UNL     1      39.022 -12.971  -0.419  1.00  0.00    -0.290 OA
BRANCH  18  19
HETATM   19  C   UNL     1      39.337 -13.806  -1.520  1.00  0.00     0.505 C 
HETATM   20  F   UNL     1      39.018 -15.088  -1.214  1.00  0.00    -0.184 F 
HETATM   21  F   UNL     1      38.527 -13.441  -2.547  1.00  0.00    -0.184 F 
ENDBRANCH  18  19
ENDBRANCH  15  18
ENDBRANCH   9  12
BRANCH  10  22
HETATM   22  C   UNL     1      42.118 -16.235   4.251  1.00  0.00     0.256 C 
HETATM   23  N   UNL     1      43.292 -16.956   4.275  1.00  0.00    -0.323 N 
HETATM   24  H   UNL     1      44.104 -16.531   4.701  1.00  0.00     0.169 HD
HETATM   25  O   UNL     1      41.038 -16.582   3.788  1.00  0.00    -0.267 OA
BRANCH  23  26
HETATM   26  C   UNL     1      43.497 -18.265   3.784  1.00  0.00     0.035 A 
HETATM   27  C   UNL     1      43.309 -18.639   2.452  1.00  0.00     0.029 A 
HETATM   28  C   UNL     1      43.519 -19.962   2.052  1.00  0.00     0.002 A 
HETATM   29  C   UNL     1      43.929 -20.920   2.976  1.00  0.00     0.000 A 
HETATM   30  C   UNL     1      44.125 -20.556   4.305  1.00  0.00     0.002 A 
HETATM   31  C   UNL     1      43.905 -19.237   4.709  1.00  0.00     0.029 A 
ENDBRANCH  23  26
ENDBRANCH  10  22
TORSDOF 5
ENDMDL
MODEL 4
REMARK VINA RESULT:      -8.4      3.913      6.742
REMARK  5 active torsions:
REMARK  status: ('A' for Active; 'I' for Inactive)
REMARK    1  A    between atoms: C_9  and  C_10 
REMARK    2  A    between atoms: C_13  and  O_14 
REMARK    3  A    between atoms: O_14  and  C_15 
REMARK    4  A    between atoms: C_20  and  C_21 
REMARK       I    between atoms: C_21  and  N_22 
REMARK    5  A    between atoms: N_22  and  C_23 
ROOT
HETATM    1  C   UNL     1      42.952 -15.941   7.921  1.00  0.00     0.070 C 
HETATM    2  C   UNL     1      43.083 -14.749   7.004  1.00  0.00     0.037 A 
HETATM    3  N   UNL     1      43.390 -13.541   7.622  1.00  0.00    -0.192 N 
HETATM    4  C   UNL     1      43.638 -12.406   6.943  1.00  0.00     0.725 A 
HETATM    5  N   UNL     1      43.483 -12.392   5.584  1.00  0.00    -0.084 N 
HETATM    6  N   UNL     1      43.915 -11.228   5.054  1.00  0.00    -0.149 NA
HETATM    7  C   UNL     1      44.215 -10.549   6.168  1.00  0.00     0.275 A 
HETATM    8  N   UNL     1      44.067 -11.237   7.344  1.00  0.00    -0.054 NA
HETATM    9  C   UNL     1      43.058 -13.551   4.792  1.00  0.00     0.202 A 
HETATM   10  C   UNL     1      42.940 -14.799   5.657  1.00  0.00     0.062 A 
HETATM   11  H   UNL     1      43.530 -13.548   8.629  1.00  0.00     0.184 HD
ENDROOT
BRANCH   9  12
HETATM   12  C   UNL     1      41.784 -13.219   4.022  1.00  0.00    -0.028 A 
HETATM   13  C   UNL     1      40.608 -12.905   4.719  1.00  0.00     0.012 A 
HETATM   14  C   UNL     1      39.431 -12.609   4.028  1.00  0.00     0.037 A 
HETATM   15  C   UNL     1      39.402 -12.615   2.632  1.00  0.00     0.074 A 
HETATM   16  C   UNL     1      40.560 -12.947   1.929  1.00  0.00     0.037 A 
HETATM   17  C   UNL     1      41.740 -13.248   2.618  1.00  0.00     0.012 A 
BRANCH  15  18
HETATM   18  O   UNL     1      38.188 -12.309   2.084  1.00  0.00    -0.290 OA
BRANCH  18  19
HETATM   19  C   UNL     1      38.103 -11.070   1.403  1.00  0.00     0.505 C 
HETATM   20  F   UNL     1      36.801 -10.701   1.306  1.00  0.00    -0.184 F 
HETATM   21  F   UNL     1      38.711 -10.139   2.181  1.00  0.00    -0.184 F 
ENDBRANCH  18  19
ENDBRANCH  15  18
ENDBRANCH   9  12
BRANCH  10  22
HETATM   22  C   UNL     1      42.568 -16.069   4.980  1.00  0.00     0.256 C 
HETATM   23  N   UNL     1      43.661 -16.798   4.561  1.00  0.00    -0.323 N 
HETATM   24  H   UNL     1      44.582 -16.423   4.742  1.00  0.00     0.169 HD
HETATM   25  O   UNL     1      41.385 -16.361   4.857  1.00  0.00    -0.267 OA
BRANCH  23  26
HETATM   26  C   UNL     1      43.650 -18.053   3.913  1.00  0.00     0.035 A 
HETATM   27  C   UNL     1      43.238 -18.248   2.593  1.00  0.00     0.029 A 
HETATM   28  C   UNL     1      43.243 -19.529   2.032  1.00  0.00     0.002 A 
HETATM   29  C   UNL     1      43.668 -20.623   2.781  1.00  0.00     0.000 A 
HETATM   30  C   UNL     1      44.086 -20.439   4.096  1.00  0.00     0.002 A 
HETATM   31  C   UNL     1      44.071 -19.162   4.661  1.00  0.00     0.029 A 
ENDBRANCH  23  26
ENDBRANCH  10  22
TORSDOF 5
ENDMDL
MODEL 5
REMARK VINA RESULT:      -8.4      1.702      5.975
REMARK  5 active torsions:
REMARK  status: ('A' for Active; 'I' for Inactive)
REMARK    1  A    between atoms: C_9  and  C_10 
REMARK    2  A    between atoms: C_13  and  O_14 
REMARK    3  A    between atoms: O_14  and  C_15 
REMARK    4  A    between atoms: C_20  and  C_21 
REMARK       I    between atoms: C_21  and  N_22 
REMARK    5  A    between atoms: N_22  and  C_23 
ROOT
HETATM    1  C   UNL     1      39.097 -11.475   4.798  1.00  0.00     0.070 C 
HETATM    2  C   UNL     1      39.702 -11.964   3.505  1.00  0.00     0.037 A 
HETATM    3  N   UNL     1      38.876 -11.900   2.387  1.00  0.00    -0.192 N 
HETATM    4  C   UNL     1      39.291 -12.202   1.143  1.00  0.00     0.725 A 
HETATM    5  N   UNL     1      40.553 -12.698   0.961  1.00  0.00    -0.084 N 
HETATM    6  N   UNL     1      40.853 -12.803  -0.351  1.00  0.00    -0.149 NA
HETATM    7  C   UNL     1      39.683 -12.453  -0.898  1.00  0.00     0.275 A 
HETATM    8  N   UNL     1      38.704 -12.071  -0.018  1.00  0.00    -0.054 NA
HETATM    9  C   UNL     1      41.511 -12.930   2.047  1.00  0.00     0.202 A 
HETATM   10  C   UNL     1      40.971 -12.426   3.379  1.00  0.00     0.062 A 
HETATM   11  H   UNL     1      37.946 -11.510   2.510  1.00  0.00     0.184 HD
ENDROOT
BRANCH   9  12
HETATM   12  C   UNL     1      41.927 -14.397   2.073  1.00  0.00    -0.028 A 
HETATM   13  C   UNL     1      40.978 -15.387   2.366  1.00  0.00     0.012 A 
HETATM   14  C   UNL     1      41.347 -16.734   2.404  1.00  0.00     0.037 A 
HETATM   15  C   UNL     1      42.662 -17.122   2.146  1.00  0.00     0.074 A 
HETATM   16  C   UNL     1      43.619 -16.144   1.875  1.00  0.00     0.037 A 
HETATM   17  C   UNL     1      43.255 -14.793   1.840  1.00  0.00     0.012 A 
BRANCH  15  18
HETATM   18  O   UNL     1      42.887 -18.468   2.217  1.00  0.00    -0.290 OA
BRANCH  18  19
HETATM   19  C   UNL     1      44.033 -18.875   2.944  1.00  0.00     0.505 C 
HETATM   20  F   UNL     1      43.904 -18.487   4.237  1.00  0.00    -0.184 F 
HETATM   21  F   UNL     1      44.048 -20.232   2.946  1.00  0.00    -0.184 F 
ENDBRANCH  18  19
ENDBRANCH  15  18
ENDBRANCH   9  12
BRANCH  10  22
HETATM   22  C   UNL     1      41.856 -12.545   4.567  1.00  0.00     0.256 C 
HETATM   23  N   UNL     1      42.673 -11.448   4.743  1.00  0.00    -0.323 N 
HETATM   24  H   UNL     1      42.603 -10.689   4.079  1.00  0.00     0.169 HD
HETATM   25  O   UNL     1      41.794 -13.549   5.265  1.00  0.00    -0.267 OA
BRANCH  23  26
HETATM   26  C   UNL     1      43.604 -11.239   5.785  1.00  0.00     0.035 A 
HETATM   27  C   UNL     1      44.977 -11.459   5.661  1.00  0.00     0.029 A 
HETATM   28  C   UNL     1      45.830 -11.243   6.749  1.00  0.00     0.002 A 
HETATM   29  C   UNL     1      45.319 -10.794   7.964  1.00  0.00     0.000 A 
HETATM   30  C   UNL     1      43.952 -10.565   8.095  1.00  0.00     0.002 A 
HETATM   31  C   UNL     1      43.099 -10.792   7.014  1.00  0.00     0.029 A 
ENDBRANCH  23  26
ENDBRANCH  10  22
TORSDOF 5
ENDMDL
MODEL 6
REMARK VINA RESULT:      -8.3      1.690      5.847
REMARK  5 active torsions:
REMARK  status: ('A' for Active; 'I' for Inactive)
REMARK    1  A    between atoms: C_9  and  C_10 
REMARK    2  A    between atoms: C_13  and  O_14 
REMARK    3  A    between atoms: O_14  and  C_15 
REMARK    4  A    between atoms: C_20  and  C_21 
REMARK       I    between atoms: C_21  and  N_22 
REMARK    5  A    between atoms: N_22  and  C_23 
ROOT
HETATM    1  C   UNL     1      39.221 -10.265   2.572  1.00  0.00     0.070 C 
HETATM    2  C   UNL     1      39.656 -11.383   1.656  1.00  0.00     0.037 A 
HETATM    3  N   UNL     1      38.716 -11.797   0.718  1.00  0.00    -0.192 N 
HETATM    4  C   UNL     1      38.976 -12.711  -0.236  1.00  0.00     0.725 A 
HETATM    5  N   UNL     1      40.185 -13.353  -0.235  1.00  0.00    -0.084 N 
HETATM    6  N   UNL     1      40.333 -14.118  -1.337  1.00  0.00    -0.149 NA
HETATM    7  C   UNL     1      39.128 -13.971  -1.900  1.00  0.00     0.275 A 
HETATM    8  N   UNL     1      38.272 -13.113  -1.262  1.00  0.00    -0.054 NA
HETATM    9  C   UNL     1      41.244 -13.112   0.751  1.00  0.00     0.202 A 
HETATM   10  C   UNL     1      40.879 -11.968   1.687  1.00  0.00     0.062 A 
HETATM   11  H   UNL     1      37.825 -11.310   0.695  1.00  0.00     0.184 HD
ENDROOT
BRANCH   9  12
HETATM   12  C   UNL     1      41.588 -14.410   1.475  1.00  0.00    -0.028 A 
HETATM   13  C   UNL     1      42.902 -14.899   1.446  1.00  0.00     0.012 A 
HETATM   14  C   UNL     1      43.230 -16.091   2.095  1.00  0.00     0.037 A 
HETATM   15  C   UNL     1      42.260 -16.816   2.790  1.00  0.00     0.074 A 
HETATM   16  C   UNL     1      40.945 -16.350   2.807  1.00  0.00     0.037 A 
HETATM   17  C   UNL     1      40.612 -15.158   2.154  1.00  0.00     0.012 A 
BRANCH  15  18
HETATM   18  O   UNL     1      42.714 -17.963   3.377  1.00  0.00    -0.290 OA
BRANCH  18  19
HETATM   19  C   UNL     1      43.517 -18.806   2.569  1.00  0.00     0.505 C 
HETATM   20  F   UNL     1      44.260 -19.614   3.365  1.00  0.00    -0.184 F 
HETATM   21  F   UNL     1      42.678 -19.615   1.873  1.00  0.00    -0.184 F 
ENDBRANCH  18  19
ENDBRANCH  15  18
ENDBRANCH   9  12
BRANCH  10  22
HETATM   22  C   UNL     1      41.883 -11.573   2.709  1.00  0.00     0.256 C 
HETATM   23  N   UNL     1      41.663 -12.159   3.938  1.00  0.00    -0.323 N 
HETATM   24  H   UNL     1      40.872 -12.781   4.035  1.00  0.00     0.169 HD
HETATM   25  O   UNL     1      42.785 -10.804   2.400  1.00  0.00    -0.267 OA
BRANCH  23  26
HETATM   26  C   UNL     1      42.447 -12.011   5.104  1.00  0.00     0.035 A 
HETATM   27  C   UNL     1      42.470 -10.857   5.889  1.00  0.00     0.029 A 
HETATM   28  C   UNL     1      43.288 -10.788   7.022  1.00  0.00     0.002 A 
HETATM   29  C   UNL     1      44.080 -11.874   7.384  1.00  0.00     0.000 A 
HETATM   30  C   UNL     1      44.060 -13.031   6.612  1.00  0.00     0.002 A 
HETATM   31  C   UNL     1      43.252 -13.098   5.474  1.00  0.00     0.029 A 
ENDBRANCH  23  26
ENDBRANCH  10  22
TORSDOF 5
ENDMDL
MODEL 7
REMARK VINA RESULT:      -8.0      3.857      6.097
REMARK  5 active torsions:
REMARK  status: ('A' for Active; 'I' for Inactive)
REMARK    1  A    between atoms: C_9  and  C_10 
REMARK    2  A    between atoms: C_13  and  O_14 
REMARK    3  A    between atoms: O_14  and  C_15 
REMARK    4  A    between atoms: C_20  and  C_21 
REMARK       I    between atoms: C_21  and  N_22 
REMARK    5  A    between atoms: N_22  and  C_23 
ROOT
HETATM    1  C   UNL     1      43.359 -14.582   7.236  1.00  0.00     0.070 C 
HETATM    2  C   UNL     1      43.054 -15.463   6.049  1.00  0.00     0.037 A 
HETATM    3  N   UNL     1      44.069 -16.334   5.666  1.00  0.00    -0.192 N 
HETATM    4  C   UNL     1      43.926 -17.253   4.693  1.00  0.00     0.725 A 
HETATM    5  N   UNL     1      42.769 -17.280   3.963  1.00  0.00    -0.084 N 
HETATM    6  N   UNL     1      42.734 -18.350   3.141  1.00  0.00    -0.149 NA
HETATM    7  C   UNL     1      43.953 -18.861   3.353  1.00  0.00     0.275 A 
HETATM    8  N   UNL     1      44.710 -18.223   4.301  1.00  0.00    -0.054 NA
HETATM    9  C   UNL     1      41.645 -16.360   4.167  1.00  0.00     0.202 A 
HETATM   10  C   UNL     1      41.877 -15.463   5.376  1.00  0.00     0.062 A 
HETATM   11  H   UNL     1      44.923 -16.336   6.217  1.00  0.00     0.184 HD
ENDROOT
BRANCH   9  12
HETATM   12  C   UNL     1      41.359 -15.591   2.882  1.00  0.00    -0.028 A 
HETATM   13  C   UNL     1      40.201 -15.873   2.142  1.00  0.00     0.012 A 
HETATM   14  C   UNL     1      39.932 -15.185   0.957  1.00  0.00     0.037 A 
HETATM   15  C   UNL     1      40.804 -14.202   0.487  1.00  0.00     0.074 A 
HETATM   16  C   UNL     1      41.970 -13.929   1.203  1.00  0.00     0.037 A 
HETATM   17  C   UNL     1      42.246 -14.619   2.389  1.00  0.00     0.012 A 
BRANCH  15  18
HETATM   18  O   UNL     1      40.422 -13.609  -0.683  1.00  0.00    -0.290 OA
BRANCH  18  19
HETATM   19  C   UNL     1      39.538 -14.353  -1.503  1.00  0.00     0.505 C 
HETATM   20  F   UNL     1      38.374 -13.671  -1.639  1.00  0.00    -0.184 F 
HETATM   21  F   UNL     1      40.095 -14.419  -2.739  1.00  0.00    -0.184 F 
ENDBRANCH  18  19
ENDBRANCH  15  18
ENDBRANCH   9  12
BRANCH  10  22
HETATM   22  C   UNL     1      40.795 -14.511   5.740  1.00  0.00     0.256 C 
HETATM   23  N   UNL     1      40.941 -13.275   5.147  1.00  0.00    -0.323 N 
HETATM   24  H   UNL     1      41.736 -13.128   4.541  1.00  0.00     0.169 HD
HETATM   25  O   UNL     1      39.900 -14.876   6.493  1.00  0.00    -0.267 OA
BRANCH  23  26
HETATM   26  C   UNL     1      40.074 -12.166   5.267  1.00  0.00     0.035 A 
HETATM   27  C   UNL     1      39.688 -11.603   6.484  1.00  0.00     0.029 A 
HETATM   28  C   UNL     1      38.812 -10.513   6.515  1.00  0.00     0.002 A 
HETATM   29  C   UNL     1      38.323  -9.971   5.329  1.00  0.00     0.000 A 
HETATM   30  C   UNL     1      38.706 -10.521   4.109  1.00  0.00     0.002 A 
HETATM   31  C   UNL     1      39.572 -11.616   4.078  1.00  0.00     0.029 A 
ENDBRANCH  23  26
ENDBRANCH  10  22
TORSDOF 5
ENDMDL
MODEL 8
REMARK VINA RESULT:      -7.8      3.649      6.348
REMARK  5 active torsions:
REMARK  status: ('A' for Active; 'I' for Inactive)
REMARK    1  A    between atoms: C_9  and  C_10 
REMARK    2  A    between atoms: C_13  and  O_14 
REMARK    3  A    between atoms: O_14  and  C_15 
REMARK    4  A    between atoms: C_20  and  C_21 
REMARK       I    between atoms: C_21  and  N_22 
REMARK    5  A    between atoms: N_22  and  C_23 
ROOT
HETATM    1  C   UNL     1      40.552 -14.158   5.514  1.00  0.00     0.070 C 
HETATM    2  C   UNL     1      40.420 -13.164   4.386  1.00  0.00     0.037 A 
HETATM    3  N   UNL     1      39.426 -12.202   4.540  1.00  0.00    -0.192 N 
HETATM    4  C   UNL     1      39.241 -11.186   3.676  1.00  0.00     0.725 A 
HETATM    5  N   UNL     1      39.988 -11.137   2.531  1.00  0.00    -0.084 N 
HETATM    6  N   UNL     1      39.782  -9.983   1.862  1.00  0.00    -0.149 NA
HETATM    7  C   UNL     1      38.816  -9.437   2.609  1.00  0.00     0.275 A 
HETATM    8  N   UNL     1      38.462 -10.137   3.733  1.00  0.00    -0.054 NA
HETATM    9  C   UNL     1      41.001 -12.133   2.166  1.00  0.00     0.202 A 
HETATM   10  C   UNL     1      41.206 -13.149   3.281  1.00  0.00     0.062 A 
HETATM   11  H   UNL     1      38.882 -12.218   5.398  1.00  0.00     0.184 HD
ENDROOT
BRANCH   9  12
HETATM   12  C   UNL     1      40.653 -12.763   0.821  1.00  0.00    -0.028 A 
HETATM   13  C   UNL     1      39.998 -14.003   0.779  1.00  0.00     0.012 A 
HETATM   14  C   UNL     1      39.683 -14.598  -0.444  1.00  0.00     0.037 A 
HETATM   15  C   UNL     1      40.007 -13.970  -1.648  1.00  0.00     0.074 A 
HETATM   16  C   UNL     1      40.677 -12.747  -1.618  1.00  0.00     0.037 A 
HETATM   17  C   UNL     1      40.999 -12.149  -0.394  1.00  0.00     0.012 A 
BRANCH  15  18
HETATM   18  O   UNL     1      39.643 -14.660  -2.770  1.00  0.00    -0.290 OA
BRANCH  18  19
HETATM   19  C   UNL     1      38.254 -14.729  -3.040  1.00  0.00     0.505 C 
HETATM   20  F   UNL     1      37.680 -13.537  -2.740  1.00  0.00    -0.184 F 
HETATM   21  F   UNL     1      38.112 -14.900  -4.379  1.00  0.00    -0.184 F 
ENDBRANCH  18  19
ENDBRANCH  15  18
ENDBRANCH   9  12
BRANCH  10  22
HETATM   22  C   UNL     1      42.244 -14.193   3.075  1.00  0.00     0.256 C 
HETATM   23  N   UNL     1      41.818 -15.456   3.426  1.00  0.00    -0.323 N 
HETATM   24  H   UNL     1      40.876 -15.560   3.778  1.00  0.00     0.169 HD
HETATM   25  O   UNL     1      43.339 -13.872   2.628  1.00  0.00    -0.267 OA
BRANCH  23  26
HETATM   26  C   UNL     1      42.550 -16.660   3.326  1.00  0.00     0.035 A 
HETATM   27  C   UNL     1      42.437 -17.558   2.264  1.00  0.00     0.029 A 
HETATM   28  C   UNL     1      43.189 -18.737   2.250  1.00  0.00     0.002 A 
HETATM   29  C   UNL     1      44.066 -19.024   3.293  1.00  0.00     0.000 A 
HETATM   30  C   UNL     1      44.190 -18.132   4.355  1.00  0.00     0.002 A 
HETATM   31  C   UNL     1      43.432 -16.959   4.374  1.00  0.00     0.029 A 
ENDBRANCH  23  26
ENDBRANCH  10  22
TORSDOF 5
ENDMDL
MODEL 9
REMARK VINA RESULT:      -7.6     16.345     18.425
REMARK  5 active torsions:
REMARK  status: ('A' for Active; 'I' for Inactive)
REMARK    1  A    between atoms: C_9  and  C_10 
REMARK    2  A    between atoms: C_13  and  O_14 
REMARK    3  A    between atoms: O_14  and  C_15 
REMARK    4  A    between atoms: C_20  and  C_21 
REMARK       I    between atoms: C_21  and  N_22 
REMARK    5  A    between atoms: N_22  and  C_23 
ROOT
HETATM    1  C   UNL     1      44.258 -29.685   1.766  1.00  0.00     0.070 C 
HETATM    2  C   UNL     1      44.861 -29.452   0.402  1.00  0.00     0.037 A 
HETATM    3  N   UNL     1      44.000 -29.624  -0.678  1.00  0.00    -0.192 N 
HETATM    4  C   UNL     1      44.349 -29.360  -1.950  1.00  0.00     0.725 A 
HETATM    5  N   UNL     1      45.641 -29.004  -2.230  1.00  0.00    -0.084 N 
HETATM    6  N   UNL     1      45.778 -28.633  -3.520  1.00  0.00    -0.149 NA
HETATM    7  C   UNL     1      44.549 -28.896  -3.982  1.00  0.00     0.275 A 
HETATM    8  N   UNL     1      43.644 -29.335  -3.051  1.00  0.00    -0.054 NA
HETATM    9  C   UNL     1      46.698 -28.884  -1.220  1.00  0.00     0.202 A 
HETATM   10  C   UNL     1      46.145 -29.077   0.186  1.00  0.00     0.062 A 
HETATM   11  H   UNL     1      43.034 -29.865  -0.477  1.00  0.00     0.184 HD
ENDROOT
BRANCH   9  12
HETATM   12  C   UNL     1      47.851 -29.824  -1.558  1.00  0.00    -0.028 A 
HETATM   13  C   UNL     1      49.165 -29.334  -1.589  1.00  0.00     0.012 A 
HETATM   14  C   UNL     1      50.230 -30.180  -1.908  1.00  0.00     0.037 A 
HETATM   15  C   UNL     1      50.010 -31.528  -2.196  1.00  0.00     0.074 A 
HETATM   16  C   UNL     1      48.705 -32.020  -2.189  1.00  0.00     0.037 A 
HETATM   17  C   UNL     1      47.634 -31.175  -1.875  1.00  0.00     0.012 A 
BRANCH  15  18
HETATM   18  O   UNL     1      51.137 -32.241  -2.492  1.00  0.00    -0.290 OA
BRANCH  18  19
HETATM   19  C   UNL     1      52.355 -31.518  -2.488  1.00  0.00     0.505 C 
HETATM   20  F   UNL     1      53.204 -32.076  -1.589  1.00  0.00    -0.184 F 
HETATM   21  F   UNL     1      52.925 -31.680  -3.709  1.00  0.00    -0.184 F 
ENDBRANCH  18  19
ENDBRANCH  15  18
ENDBRANCH   9  12
BRANCH  10  22
HETATM   22  C   UNL     1      47.094 -28.930   1.321  1.00  0.00     0.256 C 
HETATM   23  N   UNL     1      47.750 -30.102   1.631  1.00  0.00    -0.323 N 
HETATM   24  H   UNL     1      47.539 -30.926   1.085  1.00  0.00     0.169 HD
HETATM   25  O   UNL     1      47.222 -27.838   1.861  1.00  0.00    -0.267 OA
BRANCH  23  26
HETATM   26  C   UNL     1      48.728 -30.291   2.634  1.00  0.00     0.035 A 
HETATM   27  C   UNL     1      48.438 -30.650   3.951  1.00  0.00     0.029 A 
HETATM   28  C   UNL     1      49.466 -30.801   4.887  1.00  0.00     0.002 A 
HETATM   29  C   UNL     1      50.793 -30.605   4.511  1.00  0.00     0.000 A 
HETATM   30  C   UNL     1      51.093 -30.253   3.198  1.00  0.00     0.002 A 
HETATM   31  C   UNL     1      50.066 -30.090   2.266  1.00  0.00     0.029 A 
ENDBRANCH  23  26
ENDBRANCH  10  22
TORSDOF 5
ENDMDL
MODEL 10
REMARK VINA RESULT:      -7.5     15.864     17.115
REMARK  5 active torsions:
REMARK  status: ('A' for Active; 'I' for Inactive)
REMARK    1  A    between atoms: C_9  and  C_10 
REMARK    2  A    between atoms: C_13  and  O_14 
REMARK    3  A    between atoms: O_14  and  C_15 
REMARK    4  A    between atoms: C_20  and  C_21 
REMARK       I    between atoms: C_21  and  N_22 
REMARK    5  A    between atoms: N_22  and  C_23 
ROOT
HETATM    1  C   UNL     1      49.974 -30.396  -1.614  1.00  0.00     0.070 C 
HETATM    2  C   UNL     1      49.507 -30.053  -0.221  1.00  0.00     0.037 A 
HETATM    3  N   UNL     1      50.327 -30.486   0.817  1.00  0.00    -0.192 N 
HETATM    4  C   UNL     1      50.108 -30.178   2.109  1.00  0.00     0.725 A 
HETATM    5  N   UNL     1      48.973 -29.495   2.451  1.00  0.00    -0.084 N 
HETATM    6  N   UNL     1      48.988 -29.143   3.754  1.00  0.00    -0.149 NA
HETATM    7  C   UNL     1      50.115 -29.743   4.156  1.00  0.00     0.275 A 
HETATM    8  N   UNL     1      50.833 -30.381   3.178  1.00  0.00    -0.054 NA
HETATM    9  C   UNL     1      47.952 -29.062   1.491  1.00  0.00     0.202 A 
HETATM   10  C   UNL     1      48.381 -29.351   0.059  1.00  0.00     0.062 A 
HETATM   11  H   UNL     1      51.183 -30.973   0.569  1.00  0.00     0.184 HD
ENDROOT
BRANCH   9  12
HETATM   12  C   UNL     1      46.600 -29.665   1.858  1.00  0.00    -0.028 A 
HETATM   13  C   UNL     1      45.552 -28.830   2.273  1.00  0.00     0.012 A 
HETATM   14  C   UNL     1      44.312 -29.369   2.623  1.00  0.00     0.037 A 
HETATM   15  C   UNL     1      44.089 -30.745   2.563  1.00  0.00     0.074 A 
HETATM   16  C   UNL     1      45.131 -31.587   2.174  1.00  0.00     0.037 A 
HETATM   17  C   UNL     1      46.376 -31.051   1.826  1.00  0.00     0.012 A 
BRANCH  15  18
HETATM   18  O   UNL     1      42.834 -31.138   2.933  1.00  0.00    -0.290 OA
BRANCH  18  19
HETATM   19  C   UNL     1      41.763 -30.632   2.155  1.00  0.00     0.505 C 
HETATM   20  F   UNL     1      42.018 -30.859   0.842  1.00  0.00    -0.184 F 
HETATM   21  F   UNL     1      40.660 -31.358   2.466  1.00  0.00    -0.184 F 
ENDBRANCH  18  19
ENDBRANCH  15  18
ENDBRANCH   9  12
BRANCH  10  22
HETATM   22  C   UNL     1      47.467 -28.917  -1.031  1.00  0.00     0.256 C 
HETATM   23  N   UNL     1      46.732 -29.953  -1.564  1.00  0.00    -0.323 N 
HETATM   24  H   UNL     1      46.871 -30.880  -1.187  1.00  0.00     0.169 HD
HETATM   25  O   UNL     1      47.432 -27.735  -1.351  1.00  0.00    -0.267 OA
BRANCH  23  26
HETATM   26  C   UNL     1      45.763 -29.870  -2.588  1.00  0.00     0.035 A 
HETATM   27  C   UNL     1      44.531 -29.228  -2.449  1.00  0.00     0.029 A 
HETATM   28  C   UNL     1      43.620 -29.205  -3.510  1.00  0.00     0.002 A 
HETATM   29  C   UNL     1      43.936 -29.816  -4.721  1.00  0.00     0.000 A 
HETATM   30  C   UNL     1      45.163 -30.454  -4.872  1.00  0.00     0.002 A 
HETATM   31  C   UNL     1      46.070 -30.487  -3.810  1.00  0.00     0.029 A 
ENDBRANCH  23  26
ENDBRANCH  10  22
TORSDOF 5
ENDMDL
