MODEL 1
REMARK VINA RESULT:      -9.5      0.000      0.000
REMARK  6 active torsions:
REMARK  status: ('A' for Active; 'I' for Inactive)
REMARK    1  A    between atoms: C_2  and  C_3 
REMARK       I    between atoms: C_2  and  N_9 
REMARK    2  A    between atoms: C_3  and  N_4 
REMARK    3  A    between atoms: N_9  and  C_10 
REMARK    4  A    between atoms: C_15  and  C_16 
REMARK    5  A    between atoms: C_18  and  N_19 
REMARK    6  A    between atoms: N_19  and  C_20 
ROOT
HETATM    1  C   UNL     1      40.324 -13.817   1.292  1.00  0.00     0.164 A 
HETATM    2  N   UNL     1      41.510 -14.425   1.424  1.00  0.00    -0.210 NA
HETATM    3  C   UNL     1      42.034 -14.539   2.655  1.00  0.00     0.143 A 
HETATM    4  C   UNL     1      41.386 -14.016   3.785  1.00  0.00     0.039 A 
HETATM    5  C   UNL     1      41.874 -14.093   5.115  1.00  0.00     0.018 A 
HETATM    6  C   UNL     1      41.154 -13.542   6.171  1.00  0.00     0.001 A 
HETATM    7  C   UNL     1      39.941 -12.917   5.915  1.00  0.00     0.002 A 
HETATM    8  C   UNL     1      39.454 -12.852   4.606  1.00  0.00     0.032 A 
HETATM    9  C   UNL     1      40.154 -13.394   3.535  1.00  0.00     0.073 A 
HETATM   10  N   UNL     1      39.617 -13.305   2.313  1.00  0.00    -0.228 NA
ENDROOT
BRANCH   1  11
HETATM   11  C   UNL     1      39.769 -13.740  -0.074  1.00  0.00     0.039 A 
HETATM   12  C   UNL     1      39.339 -12.533  -0.682  1.00  0.00     0.049 A 
HETATM   13  C   UNL     1      38.755 -12.572  -1.958  1.00  0.00     0.030 A 
HETATM   14  C   UNL     1      38.603 -13.776  -2.649  1.00  0.00     0.002 A 
HETATM   15  C   UNL     1      39.026 -14.964  -2.073  1.00  0.00     0.001 A 
HETATM   16  C   UNL     1      39.597 -14.943  -0.802  1.00  0.00     0.018 A 
BRANCH  12  17
HETATM   17  N   UNL     1      39.519 -11.308   0.003  1.00  0.00    -0.325 N 
HETATM   18  C   UNL     1      40.545 -10.392  -0.129  1.00  0.00     0.250 C 
HETATM   19  O   UNL     1      41.448 -10.420  -0.962  1.00  0.00    -0.271 OA
HETATM   20  H   UNL     1      38.816 -11.084   0.710  1.00  0.00     0.169 HD
BRANCH  18  21
HETATM   21  C   UNL     1      40.437  -9.229   0.865  1.00  0.00     0.375 C 
BRANCH  21  22
HETATM   22  N   UNL     1      40.637  -9.684   2.257  1.00  0.00     0.097 N 
HETATM   23  C   UNL     1      41.940 -10.334   2.444  1.00  0.00     0.273 C 
HETATM   24  C   UNL     1      42.074 -10.351   3.955  1.00  0.00     0.032 C 
HETATM   25  C   UNL     1      41.411  -9.056   4.405  1.00  0.00     0.032 C 
HETATM   26  C   UNL     1      40.645  -8.550   3.188  1.00  0.00     0.273 C 
ENDBRANCH  21  22
ENDBRANCH  18  21
ENDBRANCH  12  17
ENDBRANCH   1  11
BRANCH   3  27
HETATM   27  N   UNL     1      43.280 -15.206   2.795  1.00  0.00    -0.340 N 
HETATM   28  H   UNL     1      43.889 -14.939   2.030  1.00  0.00     0.167 HD
BRANCH  27  29
HETATM   29  C   UNL     1      43.461 -16.558   3.184  1.00  0.00     0.034 A 
HETATM   30  C   UNL     1      43.837 -16.900   4.493  1.00  0.00     0.032 A 
HETATM   31  C   UNL     1      44.047 -18.225   4.895  1.00  0.00     0.034 A 
HETATM   32  C   UNL     1      43.886 -19.209   3.920  1.00  0.00     0.062 A 
HETATM   33  N   UNL     1      44.005 -20.572   3.974  1.00  0.00    -0.278 N 
HETATM   34  C   UNL     1      43.548 -18.918   2.605  1.00  0.00     0.013 A 
HETATM   35  H   UNL     1      44.238 -21.140   4.781  1.00  0.00     0.189 HD
HETATM   36  N   UNL     1      43.774 -21.190   2.801  1.00  0.00    -0.186 NA
HETATM   37  C   UNL     1      43.498 -20.181   1.970  1.00  0.00     0.152 A 
HETATM   38  C   UNL     1      43.349 -17.578   2.222  1.00  0.00     0.044 A 
ENDBRANCH  27  29
ENDBRANCH   3  27
TORSDOF 6
ENDMDL
MODEL 2
REMARK VINA RESULT:      -9.4      1.687      2.446
REMARK  6 active torsions:
REMARK  status: ('A' for Active; 'I' for Inactive)
REMARK    1  A    between atoms: C_2  and  C_3 
REMARK       I    between atoms: C_2  and  N_9 
REMARK    2  A    between atoms: C_3  and  N_4 
REMARK    3  A    between atoms: N_9  and  C_10 
REMARK    4  A    between atoms: C_15  and  C_16 
REMARK    5  A    between atoms: C_18  and  N_19 
REMARK    6  A    between atoms: N_19  and  C_20 
ROOT
HETATM    1  C   UNL     1      40.519 -13.851   0.887  1.00  0.00     0.164 A 
HETATM    2  N   UNL     1      41.686 -14.434   1.189  1.00  0.00    -0.210 NA
HETATM    3  C   UNL     1      42.087 -14.433   2.471  1.00  0.00     0.143 A 
HETATM    4  C   UNL     1      41.332 -13.816   3.480  1.00  0.00     0.039 A 
HETATM    5  C   UNL     1      41.688 -13.768   4.853  1.00  0.00     0.018 A 
HETATM    6  C   UNL     1      40.868 -13.131   5.780  1.00  0.00     0.001 A 
HETATM    7  C   UNL     1      39.686 -12.542   5.351  1.00  0.00     0.002 A 
HETATM    8  C   UNL     1      39.329 -12.600   4.001  1.00  0.00     0.032 A 
HETATM    9  C   UNL     1      40.130 -13.230   3.056  1.00  0.00     0.073 A 
HETATM   10  N   UNL     1      39.716 -13.255   1.785  1.00  0.00    -0.228 NA
ENDROOT
BRANCH   1  11
HETATM   11  C   UNL     1      40.100 -13.903  -0.527  1.00  0.00     0.039 A 
HETATM   12  C   UNL     1      40.277 -12.831  -1.439  1.00  0.00     0.049 A 
HETATM   13  C   UNL     1      39.778 -12.948  -2.747  1.00  0.00     0.030 A 
HETATM   14  C   UNL     1      39.123 -14.105  -3.172  1.00  0.00     0.002 A 
HETATM   15  C   UNL     1      38.949 -15.165  -2.296  1.00  0.00     0.001 A 
HETATM   16  C   UNL     1      39.429 -15.060  -0.991  1.00  0.00     0.018 A 
BRANCH  12  17
HETATM   17  N   UNL     1      40.966 -11.668  -1.021  1.00  0.00    -0.325 N 
HETATM   18  C   UNL     1      40.442 -10.494  -0.514  1.00  0.00     0.250 C 
HETATM   19  O   UNL     1      39.267 -10.284  -0.222  1.00  0.00    -0.271 OA
HETATM   20  H   UNL     1      41.981 -11.685  -1.136  1.00  0.00     0.169 HD
BRANCH  18  21
HETATM   21  C   UNL     1      41.511  -9.423  -0.267  1.00  0.00     0.375 C 
BRANCH  21  22
HETATM   22  N   UNL     1      42.137  -8.980  -1.530  1.00  0.00     0.097 N 
HETATM   23  C   UNL     1      41.145  -8.499  -2.500  1.00  0.00     0.273 C 
HETATM   24  C   UNL     1      42.011  -7.764  -3.504  1.00  0.00     0.032 C 
HETATM   25  C   UNL     1      43.121  -7.148  -2.663  1.00  0.00     0.032 C 
HETATM   26  C   UNL     1      43.029  -7.837  -1.306  1.00  0.00     0.273 C 
ENDBRANCH  21  22
ENDBRANCH  18  21
ENDBRANCH  12  17
ENDBRANCH   1  11
BRANCH   3  27
HETATM   27  N   UNL     1      43.314 -15.073   2.791  1.00  0.00    -0.340 N 
HETATM   28  H   UNL     1      44.024 -14.784   2.128  1.00  0.00     0.167 HD
BRANCH  27  29
HETATM   29  C   UNL     1      43.467 -16.425   3.192  1.00  0.00     0.034 A 
HETATM   30  C   UNL     1      43.807 -16.765   4.511  1.00  0.00     0.032 A 
HETATM   31  C   UNL     1      43.989 -18.090   4.925  1.00  0.00     0.034 A 
HETATM   32  C   UNL     1      43.836 -19.077   3.952  1.00  0.00     0.062 A 
HETATM   33  N   UNL     1      43.935 -20.442   4.016  1.00  0.00    -0.278 N 
HETATM   34  C   UNL     1      43.534 -18.790   2.628  1.00  0.00     0.013 A 
HETATM   35  H   UNL     1      44.141 -21.008   4.831  1.00  0.00     0.189 HD
HETATM   36  N   UNL     1      43.723 -21.063   2.842  1.00  0.00    -0.186 NA
HETATM   37  C   UNL     1      43.481 -20.055   1.999  1.00  0.00     0.152 A 
HETATM   38  C   UNL     1      43.362 -17.449   2.233  1.00  0.00     0.044 A 
ENDBRANCH  27  29
ENDBRANCH   3  27
TORSDOF 6
ENDMDL
MODEL 3
REMARK VINA RESULT:      -8.7      2.897      7.235
REMARK  6 active torsions:
REMARK  status: ('A' for Active; 'I' for Inactive)
REMARK    1  A    between atoms: C_2  and  C_3 
REMARK       I    between atoms: C_2  and  N_9 
REMARK    2  A    between atoms: C_3  and  N_4 
REMARK    3  A    between atoms: N_9  and  C_10 
REMARK    4  A    between atoms: C_15  and  C_16 
REMARK    5  A    between atoms: C_18  and  N_19 
REMARK    6  A    between atoms: N_19  and  C_20 
ROOT
HETATM    1  C   UNL     1      42.073 -15.137   2.191  1.00  0.00     0.164 A 
HETATM    2  N   UNL     1      42.324 -13.883   2.592  1.00  0.00    -0.210 NA
HETATM    3  C   UNL     1      41.701 -12.875   1.961  1.00  0.00     0.143 A 
HETATM    4  C   UNL     1      40.827 -13.105   0.887  1.00  0.00     0.039 A 
HETATM    5  C   UNL     1      40.135 -12.097   0.168  1.00  0.00     0.018 A 
HETATM    6  C   UNL     1      39.287 -12.427  -0.885  1.00  0.00     0.001 A 
HETATM    7  C   UNL     1      39.115 -13.762  -1.228  1.00  0.00     0.002 A 
HETATM    8  C   UNL     1      39.788 -14.756  -0.511  1.00  0.00     0.032 A 
HETATM    9  C   UNL     1      40.640 -14.452   0.544  1.00  0.00     0.073 A 
HETATM   10  N   UNL     1      41.237 -15.458   1.190  1.00  0.00    -0.228 NA
ENDROOT
BRANCH   1  11
HETATM   11  C   UNL     1      42.754 -16.217   2.933  1.00  0.00     0.039 A 
HETATM   12  C   UNL     1      43.372 -16.035   4.196  1.00  0.00     0.049 A 
HETATM   13  C   UNL     1      44.060 -17.106   4.789  1.00  0.00     0.030 A 
HETATM   14  C   UNL     1      44.135 -18.353   4.166  1.00  0.00     0.002 A 
HETATM   15  C   UNL     1      43.529 -18.550   2.935  1.00  0.00     0.001 A 
HETATM   16  C   UNL     1      42.853 -17.493   2.328  1.00  0.00     0.018 A 
BRANCH  12  17
HETATM   17  N   UNL     1      43.273 -14.781   4.845  1.00  0.00    -0.325 N 
HETATM   18  C   UNL     1      42.789 -14.503   6.109  1.00  0.00     0.250 C 
HETATM   19  O   UNL     1      42.456 -15.324   6.962  1.00  0.00    -0.271 OA
HETATM   20  H   UNL     1      43.567 -13.970   4.297  1.00  0.00     0.169 HD
BRANCH  18  21
HETATM   21  C   UNL     1      42.753 -13.001   6.417  1.00  0.00     0.375 C 
BRANCH  21  22
HETATM   22  N   UNL     1      44.048 -12.524   6.944  1.00  0.00     0.097 N 
HETATM   23  C   UNL     1      44.841 -11.833   5.918  1.00  0.00     0.273 C 
HETATM   24  C   UNL     1      45.889 -11.121   6.752  1.00  0.00     0.032 C 
HETATM   25  C   UNL     1      45.153 -10.731   8.027  1.00  0.00     0.032 C 
HETATM   26  C   UNL     1      43.853 -11.528   8.003  1.00  0.00     0.273 C 
ENDBRANCH  21  22
ENDBRANCH  18  21
ENDBRANCH  12  17
ENDBRANCH   1  11
BRANCH   3  27
HETATM   27  N   UNL     1      41.950 -11.549   2.404  1.00  0.00    -0.340 N 
HETATM   28  H   UNL     1      42.917 -11.311   2.215  1.00  0.00     0.167 HD
BRANCH  27  29
HETATM   29  C   UNL     1      41.477 -10.972   3.610  1.00  0.00     0.034 A 
HETATM   30  C   UNL     1      42.232 -10.018   4.311  1.00  0.00     0.032 A 
HETATM   31  C   UNL     1      41.798  -9.454   5.518  1.00  0.00     0.034 A 
HETATM   32  C   UNL     1      40.575  -9.900   6.015  1.00  0.00     0.062 A 
HETATM   33  N   UNL     1      39.870  -9.559   7.139  1.00  0.00    -0.278 N 
HETATM   34  C   UNL     1      39.808 -10.865   5.376  1.00  0.00     0.013 A 
HETATM   35  H   UNL     1      40.125  -8.878   7.845  1.00  0.00     0.189 HD
HETATM   36  N   UNL     1      38.710 -10.226   7.283  1.00  0.00    -0.186 NA
HETATM   37  C   UNL     1      38.677 -11.021   6.210  1.00  0.00     0.152 A 
HETATM   38  C   UNL     1      40.267 -11.425   4.168  1.00  0.00     0.044 A 
ENDBRANCH  27  29
ENDBRANCH   3  27
TORSDOF 6
ENDMDL
MODEL 4
REMARK VINA RESULT:      -8.7      7.431     11.366
REMARK  6 active torsions:
REMARK  status: ('A' for Active; 'I' for Inactive)
REMARK    1  A    between atoms: C_2  and  C_3 
REMARK       I    between atoms: C_2  and  N_9 
REMARK    2  A    between atoms: C_3  and  N_4 
REMARK    3  A    between atoms: N_9  and  C_10 
REMARK    4  A    between atoms: C_15  and  C_16 
REMARK    5  A    between atoms: C_18  and  N_19 
REMARK    6  A    between atoms: N_19  and  C_20 
ROOT
HETATM    1  C   UNL     1      43.052  -9.498   8.933  1.00  0.00     0.164 A 
HETATM    2  N   UNL     1      42.967  -9.746  10.246  1.00  0.00    -0.210 NA
HETATM    3  C   UNL     1      41.826  -9.436  10.881  1.00  0.00     0.143 A 
HETATM    4  C   UNL     1      40.747  -8.839  10.211  1.00  0.00     0.039 A 
HETATM    5  C   UNL     1      39.512  -8.480  10.810  1.00  0.00     0.018 A 
HETATM    6  C   UNL     1      38.499  -7.892  10.058  1.00  0.00     0.001 A 
HETATM    7  C   UNL     1      38.703  -7.663   8.703  1.00  0.00     0.002 A 
HETATM    8  C   UNL     1      39.915  -8.029   8.111  1.00  0.00     0.032 A 
HETATM    9  C   UNL     1      40.941  -8.617   8.840  1.00  0.00     0.073 A 
HETATM   10  N   UNL     1      42.067  -8.951   8.200  1.00  0.00    -0.228 NA
ENDROOT
BRANCH   1  11
HETATM   11  C   UNL     1      44.312  -9.883   8.266  1.00  0.00     0.039 A 
HETATM   12  C   UNL     1      44.433 -10.998   7.398  1.00  0.00     0.049 A 
HETATM   13  C   UNL     1      45.692 -11.328   6.870  1.00  0.00     0.030 A 
HETATM   14  C   UNL     1      46.825 -10.571   7.171  1.00  0.00     0.002 A 
HETATM   15  C   UNL     1      46.722  -9.472   8.011  1.00  0.00     0.001 A 
HETATM   16  C   UNL     1      45.482  -9.139   8.552  1.00  0.00     0.018 A 
BRANCH  12  17
HETATM   17  N   UNL     1      43.281 -11.750   7.067  1.00  0.00    -0.325 N 
HETATM   18  C   UNL     1      42.568 -11.753   5.883  1.00  0.00     0.250 C 
HETATM   19  O   UNL     1      42.876 -11.179   4.842  1.00  0.00    -0.271 OA
HETATM   20  H   UNL     1      42.907 -12.344   7.809  1.00  0.00     0.169 HD
BRANCH  18  21
HETATM   21  C   UNL     1      41.314 -12.634   5.946  1.00  0.00     0.375 C 
BRANCH  21  22
HETATM   22  N   UNL     1      41.603 -14.021   5.528  1.00  0.00     0.097 N 
HETATM   23  C   UNL     1      41.480 -14.971   6.640  1.00  0.00     0.273 C 
HETATM   24  C   UNL     1      41.431 -16.304   5.918  1.00  0.00     0.032 C 
HETATM   25  C   UNL     1      40.672 -16.006   4.632  1.00  0.00     0.032 C 
HETATM   26  C   UNL     1      40.635 -14.485   4.528  1.00  0.00     0.273 C 
ENDBRANCH  21  22
ENDBRANCH  18  21
ENDBRANCH  12  17
ENDBRANCH   1  11
BRANCH   3  27
HETATM   27  N   UNL     1      41.730  -9.723  12.269  1.00  0.00    -0.340 N 
HETATM   28  H   UNL     1      40.913 -10.299  12.435  1.00  0.00     0.167 HD
BRANCH  27  29
HETATM   29  C   UNL     1      41.970  -8.808  13.326  1.00  0.00     0.034 A 
HETATM   30  C   UNL     1      43.012  -7.870  13.260  1.00  0.00     0.032 A 
HETATM   31  C   UNL     1      43.286  -6.974  14.301  1.00  0.00     0.034 A 
HETATM   32  C   UNL     1      42.481  -7.066  15.436  1.00  0.00     0.062 A 
HETATM   33  N   UNL     1      42.472  -6.354  16.606  1.00  0.00    -0.278 N 
HETATM   34  C   UNL     1      41.461  -7.999  15.562  1.00  0.00     0.013 A 
HETATM   35  H   UNL     1      43.080  -5.586  16.866  1.00  0.00     0.189 HD
HETATM   36  N   UNL     1      41.531  -6.751  17.482  1.00  0.00    -0.186 NA
HETATM   37  C   UNL     1      40.919  -7.753  16.844  1.00  0.00     0.152 A 
HETATM   38  C   UNL     1      41.208  -8.895  14.505  1.00  0.00     0.044 A 
ENDBRANCH  27  29
ENDBRANCH   3  27
TORSDOF 6
ENDMDL
MODEL 5
REMARK VINA RESULT:      -8.6      4.580      7.174
REMARK  6 active torsions:
REMARK  status: ('A' for Active; 'I' for Inactive)
REMARK    1  A    between atoms: C_2  and  C_3 
REMARK       I    between atoms: C_2  and  N_9 
REMARK    2  A    between atoms: C_3  and  N_4 
REMARK    3  A    between atoms: N_9  and  C_10 
REMARK    4  A    between atoms: C_15  and  C_16 
REMARK    5  A    between atoms: C_18  and  N_19 
REMARK    6  A    between atoms: N_19  and  C_20 
ROOT
HETATM    1  C   UNL     1      42.704 -11.392   6.165  1.00  0.00     0.164 A 
HETATM    2  N   UNL     1      42.363 -12.687   6.155  1.00  0.00    -0.210 NA
HETATM    3  C   UNL     1      41.298 -13.061   5.428  1.00  0.00     0.143 A 
HETATM    4  C   UNL     1      40.529 -12.129   4.713  1.00  0.00     0.039 A 
HETATM    5  C   UNL     1      39.391 -12.443   3.926  1.00  0.00     0.018 A 
HETATM    6  C   UNL     1      38.694 -11.444   3.251  1.00  0.00     0.001 A 
HETATM    7  C   UNL     1      39.127 -10.129   3.347  1.00  0.00     0.002 A 
HETATM    8  C   UNL     1      40.256  -9.822   4.112  1.00  0.00     0.032 A 
HETATM    9  C   UNL     1      40.968 -10.800   4.795  1.00  0.00     0.073 A 
HETATM   10  N   UNL     1      42.046 -10.431   5.496  1.00  0.00    -0.228 NA
ENDROOT
BRANCH   1  11
HETATM   11  C   UNL     1      43.900 -11.029   6.951  1.00  0.00     0.039 A 
HETATM   12  C   UNL     1      43.845 -10.385   8.213  1.00  0.00     0.049 A 
HETATM   13  C   UNL     1      45.040 -10.012   8.851  1.00  0.00     0.030 A 
HETATM   14  C   UNL     1      46.283 -10.277   8.273  1.00  0.00     0.002 A 
HETATM   15  C   UNL     1      46.354 -10.914   7.043  1.00  0.00     0.001 A 
HETATM   16  C   UNL     1      45.177 -11.280   6.393  1.00  0.00     0.018 A 
BRANCH  12  17
HETATM   17  N   UNL     1      42.588 -10.141   8.816  1.00  0.00    -0.325 N 
HETATM   18  C   UNL     1      41.904  -8.945   8.923  1.00  0.00     0.250 C 
HETATM   19  O   UNL     1      42.216  -7.875   8.405  1.00  0.00    -0.271 OA
HETATM   20  H   UNL     1      42.141 -10.947   9.257  1.00  0.00     0.169 HD
BRANCH  18  21
HETATM   21  C   UNL     1      40.610  -9.070   9.737  1.00  0.00     0.375 C 
BRANCH  21  22
HETATM   22  N   UNL     1      40.850  -9.726  11.039  1.00  0.00     0.097 N 
HETATM   23  C   UNL     1      41.458  -8.813  12.014  1.00  0.00     0.273 C 
HETATM   24  C   UNL     1      41.248  -9.554  13.321  1.00  0.00     0.032 C 
HETATM   25  C   UNL     1      39.902 -10.247  13.146  1.00  0.00     0.032 C 
HETATM   26  C   UNL     1      39.589 -10.151  11.657  1.00  0.00     0.273 C 
ENDBRANCH  21  22
ENDBRANCH  18  21
ENDBRANCH  12  17
ENDBRANCH   1  11
BRANCH   3  27
HETATM   27  N   UNL     1      40.954 -14.438   5.399  1.00  0.00    -0.340 N 
HETATM   28  H   UNL     1      40.881 -14.783   6.350  1.00  0.00     0.167 HD
BRANCH  27  29
HETATM   29  C   UNL     1      41.481 -15.410   4.511  1.00  0.00     0.034 A 
HETATM   30  C   UNL     1      40.933 -15.609   3.234  1.00  0.00     0.032 A 
HETATM   31  C   UNL     1      41.419 -16.579   2.348  1.00  0.00     0.034 A 
HETATM   32  C   UNL     1      42.476 -17.368   2.801  1.00  0.00     0.062 A 
HETATM   33  N   UNL     1      43.178 -18.381   2.203  1.00  0.00    -0.278 N 
HETATM   34  C   UNL     1      43.029 -17.232   4.067  1.00  0.00     0.013 A 
HETATM   35  H   UNL     1      43.050 -18.752   1.268  1.00  0.00     0.189 HD
HETATM   36  N   UNL     1      44.140 -18.914   2.978  1.00  0.00    -0.186 NA
HETATM   37  C   UNL     1      44.045 -18.214   4.111  1.00  0.00     0.152 A 
HETATM   38  C   UNL     1      42.519 -16.255   4.944  1.00  0.00     0.044 A 
ENDBRANCH  27  29
ENDBRANCH   3  27
TORSDOF 6
ENDMDL
MODEL 6
REMARK VINA RESULT:      -8.6      3.622      7.099
REMARK  6 active torsions:
REMARK  status: ('A' for Active; 'I' for Inactive)
REMARK    1  A    between atoms: C_2  and  C_3 
REMARK       I    between atoms: C_2  and  N_9 
REMARK    2  A    between atoms: C_3  and  N_4 
REMARK    3  A    between atoms: N_9  and  C_10 
REMARK    4  A    between atoms: C_15  and  C_16 
REMARK    5  A    between atoms: C_18  and  N_19 
REMARK    6  A    between atoms: N_19  and  C_20 
ROOT
HETATM    1  C   UNL     1      42.240 -14.071   4.000  1.00  0.00     0.164 A 
HETATM    2  N   UNL     1      43.199 -13.192   4.316  1.00  0.00    -0.210 NA
HETATM    3  C   UNL     1      42.832 -11.980   4.761  1.00  0.00     0.143 A 
HETATM    4  C   UNL     1      41.482 -11.612   4.871  1.00  0.00     0.039 A 
HETATM    5  C   UNL     1      41.014 -10.353   5.328  1.00  0.00     0.018 A 
HETATM    6  C   UNL     1      39.650 -10.084   5.403  1.00  0.00     0.001 A 
HETATM    7  C   UNL     1      38.741 -11.066   5.031  1.00  0.00     0.002 A 
HETATM    8  C   UNL     1      39.203 -12.311   4.593  1.00  0.00     0.032 A 
HETATM    9  C   UNL     1      40.559 -12.603   4.509  1.00  0.00     0.073 A 
HETATM   10  N   UNL     1      40.923 -13.821   4.093  1.00  0.00    -0.228 NA
ENDROOT
BRANCH   1  11
HETATM   11  C   UNL     1      42.686 -15.403   3.546  1.00  0.00     0.039 A 
HETATM   12  C   UNL     1      42.539 -15.870   2.214  1.00  0.00     0.049 A 
HETATM   13  C   UNL     1      42.927 -17.181   1.896  1.00  0.00     0.030 A 
HETATM   14  C   UNL     1      43.471 -18.031   2.861  1.00  0.00     0.002 A 
HETATM   15  C   UNL     1      43.629 -17.588   4.165  1.00  0.00     0.001 A 
HETATM   16  C   UNL     1      43.237 -16.293   4.499  1.00  0.00     0.018 A 
BRANCH  12  17
HETATM   17  N   UNL     1      42.016 -15.001   1.227  1.00  0.00    -0.325 N 
HETATM   18  C   UNL     1      40.734 -14.957   0.714  1.00  0.00     0.250 C 
HETATM   19  O   UNL     1      39.764 -15.599   1.110  1.00  0.00    -0.271 OA
HETATM   20  H   UNL     1      42.679 -14.342   0.816  1.00  0.00     0.169 HD
BRANCH  18  21
HETATM   21  C   UNL     1      40.581 -13.935  -0.420  1.00  0.00     0.375 C 
BRANCH  21  22
HETATM   22  N   UNL     1      39.326 -14.142  -1.171  1.00  0.00     0.097 N 
HETATM   23  C   UNL     1      38.558 -12.899  -1.317  1.00  0.00     0.273 C 
HETATM   24  C   UNL     1      37.568 -13.261  -2.408  1.00  0.00     0.032 C 
HETATM   25  C   UNL     1      38.348 -14.192  -3.328  1.00  0.00     0.032 C 
HETATM   26  C   UNL     1      39.597 -14.580  -2.545  1.00  0.00     0.273 C 
ENDBRANCH  21  22
ENDBRANCH  18  21
ENDBRANCH  12  17
ENDBRANCH   1  11
BRANCH   3  27
HETATM   27  N   UNL     1      43.852 -11.058   5.119  1.00  0.00    -0.340 N 
HETATM   28  H   UNL     1      44.593 -11.097   4.428  1.00  0.00     0.167 HD
BRANCH  27  29
HETATM   29  C   UNL     1      44.345 -10.831   6.429  1.00  0.00     0.034 A 
HETATM   30  C   UNL     1      45.708 -10.973   6.734  1.00  0.00     0.032 A 
HETATM   31  C   UNL     1      46.215 -10.779   8.025  1.00  0.00     0.034 A 
HETATM   32  C   UNL     1      45.294 -10.454   9.019  1.00  0.00     0.062 A 
HETATM   33  N   UNL     1      45.448 -10.196  10.355  1.00  0.00    -0.278 N 
HETATM   34  C   UNL     1      43.932 -10.335   8.774  1.00  0.00     0.013 A 
HETATM   35  H   UNL     1      46.311 -10.190  10.886  1.00  0.00     0.189 HD
HETATM   36  N   UNL     1      44.298  -9.922  10.998  1.00  0.00    -0.186 NA
HETATM   37  C   UNL     1      43.378 -10.009  10.033  1.00  0.00     0.152 A 
HETATM   38  C   UNL     1      43.443 -10.541   7.469  1.00  0.00     0.044 A 
ENDBRANCH  27  29
ENDBRANCH   3  27
TORSDOF 6
ENDMDL
MODEL 7
REMARK VINA RESULT:      -8.4      1.891      4.176
REMARK  6 active torsions:
REMARK  status: ('A' for Active; 'I' for Inactive)
REMARK    1  A    between atoms: C_2  and  C_3 
REMARK       I    between atoms: C_2  and  N_9 
REMARK    2  A    between atoms: C_3  and  N_4 
REMARK    3  A    between atoms: N_9  and  C_10 
REMARK    4  A    between atoms: C_15  and  C_16 
REMARK    5  A    between atoms: C_18  and  N_19 
REMARK    6  A    between atoms: N_19  and  C_20 
ROOT
HETATM    1  C   UNL     1      41.169 -10.182   1.372  1.00  0.00     0.164 A 
HETATM    2  N   UNL     1      42.190 -10.956   1.761  1.00  0.00    -0.210 NA
HETATM    3  C   UNL     1      42.153 -11.491   2.992  1.00  0.00     0.143 A 
HETATM    4  C   UNL     1      41.093 -11.233   3.876  1.00  0.00     0.039 A 
HETATM    5  C   UNL     1      40.982 -11.756   5.190  1.00  0.00     0.018 A 
HETATM    6  C   UNL     1      39.888 -11.443   5.992  1.00  0.00     0.001 A 
HETATM    7  C   UNL     1      38.893 -10.613   5.491  1.00  0.00     0.002 A 
HETATM    8  C   UNL     1      38.997 -10.108   4.192  1.00  0.00     0.032 A 
HETATM    9  C   UNL     1      40.079 -10.406   3.372  1.00  0.00     0.073 A 
HETATM   10  N   UNL     1      40.101  -9.897   2.136  1.00  0.00    -0.228 NA
ENDROOT
BRANCH   1  11
HETATM   11  C   UNL     1      41.234  -9.640   0.000  1.00  0.00     0.039 A 
HETATM   12  C   UNL     1      41.139 -10.441  -1.167  1.00  0.00     0.049 A 
HETATM   13  C   UNL     1      41.287  -9.843  -2.429  1.00  0.00     0.030 A 
HETATM   14  C   UNL     1      41.511  -8.471  -2.559  1.00  0.00     0.002 A 
HETATM   15  C   UNL     1      41.598  -7.673  -1.429  1.00  0.00     0.001 A 
HETATM   16  C   UNL     1      41.465  -8.254  -0.169  1.00  0.00     0.018 A 
BRANCH  12  17
HETATM   17  N   UNL     1      40.883 -11.827  -1.040  1.00  0.00    -0.325 N 
HETATM   18  C   UNL     1      39.672 -12.489  -1.129  1.00  0.00     0.250 C 
HETATM   19  O   UNL     1      38.593 -11.999  -1.455  1.00  0.00    -0.271 OA
HETATM   20  H   UNL     1      41.691 -12.413  -0.822  1.00  0.00     0.169 HD
BRANCH  18  21
HETATM   21  C   UNL     1      39.791 -13.989  -0.834  1.00  0.00     0.375 C 
BRANCH  21  22
HETATM   22  N   UNL     1      40.176 -14.236   0.571  1.00  0.00     0.097 N 
HETATM   23  C   UNL     1      39.335 -13.488   1.515  1.00  0.00     0.273 C 
HETATM   24  C   UNL     1      39.641 -14.178   2.830  1.00  0.00     0.032 C 
HETATM   25  C   UNL     1      39.842 -15.639   2.450  1.00  0.00     0.032 C 
HETATM   26  C   UNL     1      39.984 -15.645   0.932  1.00  0.00     0.273 C 
ENDBRANCH  21  22
ENDBRANCH  18  21
ENDBRANCH  12  17
ENDBRANCH   1  11
BRANCH   3  27
HETATM   27  N   UNL     1      43.225 -12.330   3.393  1.00  0.00    -0.340 N 
HETATM   28  H   UNL     1      44.104 -11.858   3.213  1.00  0.00     0.167 HD
BRANCH  27  29
HETATM   29  C   UNL     1      43.311 -13.730   3.178  1.00  0.00     0.034 A 
HETATM   30  C   UNL     1      43.419 -14.268   1.886  1.00  0.00     0.032 A 
HETATM   31  C   UNL     1      43.479 -15.647   1.647  1.00  0.00     0.034 A 
HETATM   32  C   UNL     1      43.404 -16.481   2.762  1.00  0.00     0.062 A 
HETATM   33  N   UNL     1      43.439 -17.845   2.884  1.00  0.00    -0.278 N 
HETATM   34  C   UNL     1      43.263 -15.998   4.057  1.00  0.00     0.013 A 
HETATM   35  H   UNL     1      43.538 -18.528   2.141  1.00  0.00     0.189 HD
HETATM   36  N   UNL     1      43.331 -18.286   4.150  1.00  0.00    -0.186 NA
HETATM   37  C   UNL     1      43.222 -17.160   4.860  1.00  0.00     0.152 A 
HETATM   38  C   UNL     1      43.198 -14.607   4.273  1.00  0.00     0.044 A 
ENDBRANCH  27  29
ENDBRANCH   3  27
TORSDOF 6
ENDMDL
MODEL 8
REMARK VINA RESULT:      -8.4      3.067      6.982
REMARK  6 active torsions:
REMARK  status: ('A' for Active; 'I' for Inactive)
REMARK    1  A    between atoms: C_2  and  C_3 
REMARK       I    between atoms: C_2  and  N_9 
REMARK    2  A    between atoms: C_3  and  N_4 
REMARK    3  A    between atoms: N_9  and  C_10 
REMARK    4  A    between atoms: C_15  and  C_16 
REMARK    5  A    between atoms: C_18  and  N_19 
REMARK    6  A    between atoms: N_19  and  C_20 
ROOT
HETATM    1  C   UNL     1      41.707 -13.552   4.833  1.00  0.00     0.164 A 
HETATM    2  N   UNL     1      41.743 -13.282   3.521  1.00  0.00    -0.210 NA
HETATM    3  C   UNL     1      40.962 -12.297   3.051  1.00  0.00     0.143 A 
HETATM    4  C   UNL     1      40.100 -11.574   3.890  1.00  0.00     0.039 A 
HETATM    5  C   UNL     1      39.243 -10.524   3.470  1.00  0.00     0.018 A 
HETATM    6  C   UNL     1      38.424  -9.865   4.383  1.00  0.00     0.001 A 
HETATM    7  C   UNL     1      38.455 -10.240   5.719  1.00  0.00     0.002 A 
HETATM    8  C   UNL     1      39.308 -11.267   6.134  1.00  0.00     0.032 A 
HETATM    9  C   UNL     1      40.135 -11.940   5.243  1.00  0.00     0.073 A 
HETATM   10  N   UNL     1      40.933 -12.902   5.718  1.00  0.00    -0.228 NA
ENDROOT
BRANCH   1  11
HETATM   11  C   UNL     1      42.605 -14.621   5.313  1.00  0.00     0.039 A 
HETATM   12  C   UNL     1      43.482 -14.473   6.419  1.00  0.00     0.049 A 
HETATM   13  C   UNL     1      44.352 -15.523   6.754  1.00  0.00     0.030 A 
HETATM   14  C   UNL     1      44.360 -16.717   6.031  1.00  0.00     0.002 A 
HETATM   15  C   UNL     1      43.503 -16.881   4.954  1.00  0.00     0.001 A 
HETATM   16  C   UNL     1      42.642 -15.844   4.601  1.00  0.00     0.018 A 
BRANCH  12  17
HETATM   17  N   UNL     1      43.455 -13.276   7.172  1.00  0.00    -0.325 N 
HETATM   18  C   UNL     1      44.310 -12.192   7.095  1.00  0.00     0.250 C 
HETATM   19  O   UNL     1      45.198 -12.019   6.263  1.00  0.00    -0.271 OA
HETATM   20  H   UNL     1      42.729 -13.215   7.889  1.00  0.00     0.169 HD
BRANCH  18  21
HETATM   21  C   UNL     1      44.012 -11.122   8.152  1.00  0.00     0.375 C 
BRANCH  21  22
HETATM   22  N   UNL     1      42.741 -10.422   7.873  1.00  0.00     0.097 N 
HETATM   23  C   UNL     1      42.468  -9.362   8.851  1.00  0.00     0.273 C 
HETATM   24  C   UNL     1      41.376  -8.565   8.161  1.00  0.00     0.032 C 
HETATM   25  C   UNL     1      41.736  -8.638   6.683  1.00  0.00     0.032 C 
HETATM   26  C   UNL     1      42.789  -9.736   6.577  1.00  0.00     0.273 C 
ENDBRANCH  21  22
ENDBRANCH  18  21
ENDBRANCH  12  17
ENDBRANCH   1  11
BRANCH   3  27
HETATM   27  N   UNL     1      41.021 -11.998   1.664  1.00  0.00    -0.340 N 
HETATM   28  H   UNL     1      41.059 -10.992   1.541  1.00  0.00     0.167 HD
BRANCH  27  29
HETATM   29  C   UNL     1      40.275 -12.639   0.642  1.00  0.00     0.034 A 
HETATM   30  C   UNL     1      40.559 -13.955   0.244  1.00  0.00     0.032 A 
HETATM   31  C   UNL     1      39.854 -14.601  -0.780  1.00  0.00     0.034 A 
HETATM   32  C   UNL     1      38.854 -13.865  -1.414  1.00  0.00     0.062 A 
HETATM   33  N   UNL     1      37.989 -14.187  -2.426  1.00  0.00    -0.278 N 
HETATM   34  C   UNL     1      38.559 -12.550  -1.079  1.00  0.00     0.013 A 
HETATM   35  H   UNL     1      37.915 -15.071  -2.917  1.00  0.00     0.189 HD
HETATM   36  N   UNL     1      37.158 -13.188  -2.777  1.00  0.00    -0.186 NA
HETATM   37  C   UNL     1      37.509 -12.194  -1.956  1.00  0.00     0.152 A 
HETATM   38  C   UNL     1      39.285 -11.918  -0.051  1.00  0.00     0.044 A 
ENDBRANCH  27  29
ENDBRANCH   3  27
TORSDOF 6
ENDMDL
MODEL 9
REMARK VINA RESULT:      -8.3      2.602      7.327
REMARK  6 active torsions:
REMARK  status: ('A' for Active; 'I' for Inactive)
REMARK    1  A    between atoms: C_2  and  C_3 
REMARK       I    between atoms: C_2  and  N_9 
REMARK    2  A    between atoms: C_3  and  N_4 
REMARK    3  A    between atoms: N_9  and  C_10 
REMARK    4  A    between atoms: C_15  and  C_16 
REMARK    5  A    between atoms: C_18  and  N_19 
REMARK    6  A    between atoms: N_19  and  C_20 
ROOT
HETATM    1  C   UNL     1      42.812 -14.459   4.893  1.00  0.00     0.164 A 
HETATM    2  N   UNL     1      41.548 -14.055   5.070  1.00  0.00    -0.210 NA
HETATM    3  C   UNL     1      41.332 -12.895   5.711  1.00  0.00     0.143 A 
HETATM    4  C   UNL     1      42.391 -12.126   6.219  1.00  0.00     0.039 A 
HETATM    5  C   UNL     1      42.246 -10.895   6.910  1.00  0.00     0.018 A 
HETATM    6  C   UNL     1      43.362 -10.203   7.375  1.00  0.00     0.001 A 
HETATM    7  C   UNL     1      44.628 -10.726   7.151  1.00  0.00     0.002 A 
HETATM    8  C   UNL     1      44.771 -11.933   6.459  1.00  0.00     0.032 A 
HETATM    9  C   UNL     1      43.674 -12.642   5.985  1.00  0.00     0.073 A 
HETATM   10  N   UNL     1      43.890 -13.782   5.321  1.00  0.00    -0.228 NA
ENDROOT
BRANCH   1  11
HETATM   11  C   UNL     1      43.005 -15.723   4.154  1.00  0.00     0.039 A 
HETATM   12  C   UNL     1      42.466 -15.971   2.866  1.00  0.00     0.049 A 
HETATM   13  C   UNL     1      42.642 -17.232   2.275  1.00  0.00     0.030 A 
HETATM   14  C   UNL     1      43.351 -18.244   2.924  1.00  0.00     0.002 A 
HETATM   15  C   UNL     1      43.892 -18.016   4.180  1.00  0.00     0.001 A 
HETATM   16  C   UNL     1      43.716 -16.772   4.785  1.00  0.00     0.018 A 
BRANCH  12  17
HETATM   17  N   UNL     1      41.773 -14.937   2.192  1.00  0.00    -0.325 N 
HETATM   18  C   UNL     1      40.432 -14.876   1.863  1.00  0.00     0.250 C 
HETATM   19  O   UNL     1      39.558 -15.670   2.203  1.00  0.00    -0.271 OA
HETATM   20  H   UNL     1      42.341 -14.148   1.879  1.00  0.00     0.169 HD
BRANCH  18  21
HETATM   21  C   UNL     1      40.077 -13.630   1.042  1.00  0.00     0.375 C 
BRANCH  21  22
HETATM   22  N   UNL     1      40.497 -13.772  -0.368  1.00  0.00     0.097 N 
HETATM   23  C   UNL     1      39.461 -14.407  -1.192  1.00  0.00     0.273 C 
HETATM   24  C   UNL     1      39.936 -14.094  -2.598  1.00  0.00     0.032 C 
HETATM   25  C   UNL     1      40.561 -12.710  -2.484  1.00  0.00     0.032 C 
HETATM   26  C   UNL     1      40.720 -12.461  -0.988  1.00  0.00     0.273 C 
ENDBRANCH  21  22
ENDBRANCH  18  21
ENDBRANCH  12  17
ENDBRANCH   1  11
BRANCH   3  27
HETATM   27  N   UNL     1      39.991 -12.457   5.876  1.00  0.00    -0.340 N 
HETATM   28  H   UNL     1      39.389 -13.264   5.989  1.00  0.00     0.167 HD
BRANCH  27  29
HETATM   29  C   UNL     1      39.364 -11.411   5.153  1.00  0.00     0.034 A 
HETATM   30  C   UNL     1      38.790 -10.309   5.809  1.00  0.00     0.032 A 
HETATM   31  C   UNL     1      38.142  -9.277   5.119  1.00  0.00     0.034 A 
HETATM   32  C   UNL     1      38.070  -9.397   3.732  1.00  0.00     0.062 A 
HETATM   33  N   UNL     1      37.526  -8.583   2.775  1.00  0.00    -0.278 N 
HETATM   34  C   UNL     1      38.592 -10.483   3.042  1.00  0.00     0.013 A 
HETATM   35  H   UNL     1      37.058  -7.694   2.913  1.00  0.00     0.189 HD
HETATM   36  N   UNL     1      37.650  -9.052   1.520  1.00  0.00    -0.186 NA
HETATM   37  C   UNL     1      38.298 -10.209   1.687  1.00  0.00     0.152 A 
HETATM   38  C   UNL     1      39.233 -11.513   3.756  1.00  0.00     0.044 A 
ENDBRANCH  27  29
ENDBRANCH   3  27
TORSDOF 6
ENDMDL
MODEL 10
REMARK VINA RESULT:      -8.2      3.735      6.428
REMARK  6 active torsions:
REMARK  status: ('A' for Active; 'I' for Inactive)
REMARK    1  A    between atoms: C_2  and  C_3 
REMARK       I    between atoms: C_2  and  N_9 
REMARK    2  A    between atoms: C_3  and  N_4 
REMARK    3  A    between atoms: N_9  and  C_10 
REMARK    4  A    between atoms: C_15  and  C_16 
REMARK    5  A    between atoms: C_18  and  N_19 
REMARK    6  A    between atoms: N_19  and  C_20 
ROOT
HETATM    1  C   UNL     1      42.884 -11.247   6.229  1.00  0.00     0.164 A 
HETATM    2  N   UNL     1      42.645 -12.539   6.486  1.00  0.00    -0.210 NA
HETATM    3  C   UNL     1      41.696 -13.167   5.773  1.00  0.00     0.143 A 
HETATM    4  C   UNL     1      40.941 -12.496   4.798  1.00  0.00     0.039 A 
HETATM    5  C   UNL     1      39.922 -13.086   4.007  1.00  0.00     0.018 A 
HETATM    6  C   UNL     1      39.229 -12.335   3.062  1.00  0.00     0.001 A 
HETATM    7  C   UNL     1      39.548 -10.994   2.891  1.00  0.00     0.002 A 
HETATM    8  C   UNL     1      40.561 -10.416   3.662  1.00  0.00     0.032 A 
HETATM    9  C   UNL     1      41.267 -11.145   4.612  1.00  0.00     0.073 A 
HETATM   10  N   UNL     1      42.231 -10.526   5.301  1.00  0.00    -0.228 NA
ENDROOT
BRANCH   1  11
HETATM   11  C   UNL     1      43.957 -10.603   7.013  1.00  0.00     0.039 A 
HETATM   12  C   UNL     1      43.753  -9.471   7.844  1.00  0.00     0.049 A 
HETATM   13  C   UNL     1      44.851  -8.885   8.492  1.00  0.00     0.030 A 
HETATM   14  C   UNL     1      46.140  -9.402   8.348  1.00  0.00     0.002 A 
HETATM   15  C   UNL     1      46.355 -10.513   7.547  1.00  0.00     0.001 A 
HETATM   16  C   UNL     1      45.277 -11.100   6.887  1.00  0.00     0.018 A 
BRANCH  12  17
HETATM   17  N   UNL     1      42.444  -8.962   8.016  1.00  0.00    -0.325 N 
HETATM   18  C   UNL     1      41.959  -7.711   7.685  1.00  0.00     0.250 C 
HETATM   19  O   UNL     1      42.557  -6.834   7.066  1.00  0.00    -0.271 OA
HETATM   20  H   UNL     1      41.777  -9.588   8.471  1.00  0.00     0.169 HD
BRANCH  18  21
HETATM   21  C   UNL     1      40.503  -7.503   8.121  1.00  0.00     0.375 C 
BRANCH  21  22
HETATM   22  N   UNL     1      39.655  -7.070   6.991  1.00  0.00     0.097 N 
HETATM   23  C   UNL     1      39.090  -8.209   6.256  1.00  0.00     0.273 C 
HETATM   24  C   UNL     1      37.995  -7.549   5.439  1.00  0.00     0.032 C 
HETATM   25  C   UNL     1      37.464  -6.445   6.344  1.00  0.00     0.032 C 
HETATM   26  C   UNL     1      38.492  -6.311   7.463  1.00  0.00     0.273 C 
ENDBRANCH  21  22
ENDBRANCH  18  21
ENDBRANCH  12  17
ENDBRANCH   1  11
BRANCH   3  27
HETATM   27  N   UNL     1      41.462 -14.543   6.032  1.00  0.00    -0.340 N 
HETATM   28  H   UNL     1      41.121 -14.651   6.981  1.00  0.00     0.167 HD
BRANCH  27  29
HETATM   29  C   UNL     1      42.295 -15.618   5.631  1.00  0.00     0.034 A 
HETATM   30  C   UNL     1      43.295 -16.125   6.476  1.00  0.00     0.032 A 
HETATM   31  C   UNL     1      44.147 -17.169   6.094  1.00  0.00     0.034 A 
HETATM   32  C   UNL     1      43.975 -17.680   4.808  1.00  0.00     0.062 A 
HETATM   33  N   UNL     1      44.618 -18.684   4.133  1.00  0.00    -0.278 N 
HETATM   34  C   UNL     1      43.023 -17.190   3.924  1.00  0.00     0.013 A 
HETATM   35  H   UNL     1      45.372 -19.270   4.472  1.00  0.00     0.189 HD
HETATM   36  N   UNL     1      44.163 -18.883   2.883  1.00  0.00    -0.186 NA
HETATM   37  C   UNL     1      43.194 -17.972   2.759  1.00  0.00     0.152 A 
HETATM   38  C   UNL     1      42.181 -16.136   4.327  1.00  0.00     0.044 A 
ENDBRANCH  27  29
ENDBRANCH   3  27
TORSDOF 6
ENDMDL
