MODEL 1
REMARK VINA RESULT:      -9.0      0.000      0.000
REMARK  3 active torsions:
REMARK  status: ('A' for Active; 'I' for Inactive)
REMARK    1  A    between atoms: C_12  and  C_13 
REMARK       I    between atoms: C_13  and  N_14 
REMARK    2  A    between atoms: N_14  and  C_15 
REMARK    3  A    between atoms: C_15  and  C_16 
ROOT
HETATM    1  C   UNL     1      43.954 -20.906   5.288  1.00  0.00     0.001 A 
HETATM    2  C   UNL     1      43.743 -19.764   6.067  1.00  0.00     0.016 A 
HETATM    3  C   UNL     1      43.609 -18.520   5.449  1.00  0.00     0.026 A 
HETATM    4  C   UNL     1      43.686 -18.417   4.045  1.00  0.00     0.081 A 
HETATM    5  O   UNL     1      43.565 -17.242   3.334  1.00  0.00    -0.346 OA
HETATM    6  C   UNL     1      43.347 -15.986   4.040  1.00  0.00     0.219 A 
HETATM    7  C   UNL     1      43.259 -16.089   5.511  1.00  0.00     0.031 A 
HETATM    8  C   UNL     1      43.387 -17.287   6.160  1.00  0.00     0.074 A 
HETATM    9  N   UNL     1      43.260 -17.022   7.485  1.00  0.00    -0.276 N 
HETATM   10  H   UNL     1      43.303 -17.669   8.264  1.00  0.00     0.189 HD
HETATM   11  N   UNL     1      43.048 -15.713   7.747  1.00  0.00    -0.168 NA
HETATM   12  C   UNL     1      43.048 -15.128   6.526  1.00  0.00     0.155 A 
HETATM   13  C   UNL     1      43.897 -19.563   3.277  1.00  0.00     0.038 A 
HETATM   14  C   UNL     1      44.030 -20.805   3.898  1.00  0.00     0.003 A 
ENDROOT
BRANCH  12  15
HETATM   15  C   UNL     1      42.844 -13.682   6.349  1.00  0.00     0.272 C 
HETATM   16  N   UNL     1      44.017 -12.967   6.317  1.00  0.00    -0.351 N 
HETATM   17  H   UNL     1      44.871 -13.511   6.402  1.00  0.00     0.163 HD
HETATM   18  O   UNL     1      41.730 -13.179   6.240  1.00  0.00    -0.266 OA
BRANCH  16  19
HETATM   19  C   UNL     1      44.070 -11.538   6.160  1.00  0.00     0.161 C 
BRANCH  19  20
HETATM   20  C   UNL     1      44.553 -10.865   7.419  1.00  0.00    -0.039 A 
HETATM   21  C   UNL     1      43.790 -10.929   8.596  1.00  0.00     0.032 A 
HETATM   22  C   UNL     1      44.247 -10.320   9.764  1.00  0.00     0.034 A 
HETATM   23 CL   UNL     1      43.298 -10.399  11.198  1.00  0.00    -0.084 Cl
HETATM   24  C   UNL     1      45.468  -9.650   9.781  1.00  0.00     0.024 A 
HETATM   25  C   UNL     1      46.237  -9.586   8.620  1.00  0.00     0.002 A 
HETATM   26  C   UNL     1      45.783 -10.190   7.445  1.00  0.00     0.009 A 
ENDBRANCH  19  20
ENDBRANCH  16  19
ENDBRANCH  12  15
TORSDOF 3
ENDMDL
MODEL 2
REMARK VINA RESULT:      -8.9      1.738      2.331
REMARK  3 active torsions:
REMARK  status: ('A' for Active; 'I' for Inactive)
REMARK    1  A    between atoms: C_12  and  C_13 
REMARK       I    between atoms: C_13  and  N_14 
REMARK    2  A    between atoms: N_14  and  C_15 
REMARK    3  A    between atoms: C_15  and  C_16 
ROOT
HETATM    1  C   UNL     1      43.686 -20.306   2.116  1.00  0.00     0.001 A 
HETATM    2  C   UNL     1      43.385 -18.950   2.267  1.00  0.00     0.016 A 
HETATM    3  C   UNL     1      43.422 -18.370   3.536  1.00  0.00     0.026 A 
HETATM    4  C   UNL     1      43.763 -19.151   4.660  1.00  0.00     0.081 A 
HETATM    5  O   UNL     1      43.832 -18.680   5.953  1.00  0.00    -0.346 OA
HETATM    6  C   UNL     1      43.534 -17.282   6.234  1.00  0.00     0.219 A 
HETATM    7  C   UNL     1      43.183 -16.457   5.059  1.00  0.00     0.031 A 
HETATM    8  C   UNL     1      43.132 -16.983   3.797  1.00  0.00     0.074 A 
HETATM    9  N   UNL     1      42.779 -15.966   2.970  1.00  0.00    -0.276 N 
HETATM   10  H   UNL     1      42.643 -15.988   1.966  1.00  0.00     0.189 HD
HETATM   11  N   UNL     1      42.602 -14.793   3.618  1.00  0.00    -0.168 NA
HETATM   12  C   UNL     1      42.849 -15.091   4.915  1.00  0.00     0.155 A 
HETATM   13  C   UNL     1      44.062 -20.504   4.497  1.00  0.00     0.038 A 
HETATM   14  C   UNL     1      44.024 -21.080   3.227  1.00  0.00     0.003 A 
ENDROOT
BRANCH  12  15
HETATM   15  C   UNL     1      42.769 -14.081   5.982  1.00  0.00     0.272 C 
HETATM   16  N   UNL     1      42.588 -12.804   5.509  1.00  0.00    -0.351 N 
HETATM   17  H   UNL     1      42.514 -12.710   4.500  1.00  0.00     0.163 HD
HETATM   18  O   UNL     1      42.857 -14.367   7.171  1.00  0.00    -0.266 OA
BRANCH  16  19
HETATM   19  C   UNL     1      42.487 -11.650   6.363  1.00  0.00     0.161 C 
BRANCH  19  20
HETATM   20  C   UNL     1      43.838 -11.238   6.890  1.00  0.00    -0.039 A 
HETATM   21  C   UNL     1      43.967 -10.732   8.193  1.00  0.00     0.032 A 
HETATM   22  C   UNL     1      45.220 -10.368   8.685  1.00  0.00     0.034 A 
HETATM   23 CL   UNL     1      45.363  -9.742  10.282  1.00  0.00    -0.084 Cl
HETATM   24  C   UNL     1      46.358 -10.508   7.894  1.00  0.00     0.024 A 
HETATM   25  C   UNL     1      46.242 -11.016   6.600  1.00  0.00     0.002 A 
HETATM   26  C   UNL     1      44.989 -11.379   6.100  1.00  0.00     0.009 A 
ENDBRANCH  19  20
ENDBRANCH  16  19
ENDBRANCH  12  15
TORSDOF 3
ENDMDL
MODEL 3
REMARK VINA RESULT:      -8.8      4.909      6.827
REMARK  3 active torsions:
REMARK  status: ('A' for Active; 'I' for Inactive)
REMARK    1  A    between atoms: C_12  and  C_13 
REMARK       I    between atoms: C_13  and  N_14 
REMARK    2  A    between atoms: N_14  and  C_15 
REMARK    3  A    between atoms: C_15  and  C_16 
ROOT
HETATM    1  C   UNL     1      44.066 -20.529   5.146  1.00  0.00     0.001 A 
HETATM    2  C   UNL     1      43.900 -19.160   5.372  1.00  0.00     0.016 A 
HETATM    3  C   UNL     1      43.636 -18.307   4.298  1.00  0.00     0.026 A 
HETATM    4  C   UNL     1      43.537 -18.828   2.992  1.00  0.00     0.081 A 
HETATM    5  O   UNL     1      43.278 -18.080   1.864  1.00  0.00    -0.346 OA
HETATM    6  C   UNL     1      43.092 -16.639   1.976  1.00  0.00     0.219 A 
HETATM    7  C   UNL     1      43.188 -16.088   3.345  1.00  0.00     0.031 A 
HETATM    8  C   UNL     1      43.448 -16.885   4.426  1.00  0.00     0.074 A 
HETATM    9  N   UNL     1      43.471 -16.067   5.509  1.00  0.00    -0.276 N 
HETATM   10  H   UNL     1      43.637 -16.311   6.479  1.00  0.00     0.189 HD
HETATM   11  N   UNL     1      43.234 -14.772   5.202  1.00  0.00    -0.168 NA
HETATM   12  C   UNL     1      43.059 -14.778   3.859  1.00  0.00     0.155 A 
HETATM   13  C   UNL     1      43.704 -20.197   2.778  1.00  0.00     0.038 A 
HETATM   14  C   UNL     1      43.967 -21.045   3.854  1.00  0.00     0.003 A 
ENDROOT
BRANCH  12  15
HETATM   15  C   UNL     1      42.771 -13.552   3.100  1.00  0.00     0.272 C 
HETATM   16  N   UNL     1      41.524 -13.548   2.525  1.00  0.00    -0.351 N 
HETATM   17  H   UNL     1      40.951 -14.369   2.702  1.00  0.00     0.163 HD
HETATM   18  O   UNL     1      43.576 -12.632   3.000  1.00  0.00    -0.266 OA
BRANCH  16  19
HETATM   19  C   UNL     1      41.021 -12.460   1.729  1.00  0.00     0.161 C 
BRANCH  19  20
HETATM   20  C   UNL     1      40.633 -12.924   0.349  1.00  0.00    -0.039 A 
HETATM   21  C   UNL     1      40.945 -12.142  -0.776  1.00  0.00     0.032 A 
HETATM   22  C   UNL     1      40.601 -12.581  -2.053  1.00  0.00     0.034 A 
HETATM   23 CL   UNL     1      40.982 -11.610  -3.423  1.00  0.00    -0.084 Cl
HETATM   24  C   UNL     1      39.952 -13.801  -2.232  1.00  0.00     0.024 A 
HETATM   25  C   UNL     1      39.644 -14.588  -1.122  1.00  0.00     0.002 A 
HETATM   26  C   UNL     1      39.983 -14.153   0.161  1.00  0.00     0.009 A 
ENDBRANCH  19  20
ENDBRANCH  16  19
ENDBRANCH  12  15
TORSDOF 3
ENDMDL
MODEL 4
REMARK VINA RESULT:      -8.7      3.534      8.429
REMARK  3 active torsions:
REMARK  status: ('A' for Active; 'I' for Inactive)
REMARK    1  A    between atoms: C_12  and  C_13 
REMARK       I    between atoms: C_13  and  N_14 
REMARK    2  A    between atoms: N_14  and  C_15 
REMARK    3  A    between atoms: C_15  and  C_16 
ROOT
HETATM    1  C   UNL     1      43.612  -9.126  10.351  1.00  0.00     0.001 A 
HETATM    2  C   UNL     1      42.926  -9.710   9.283  1.00  0.00     0.016 A 
HETATM    3  C   UNL     1      43.639 -10.348   8.267  1.00  0.00     0.026 A 
HETATM    4  C   UNL     1      45.047 -10.402   8.320  1.00  0.00     0.081 A 
HETATM    5  O   UNL     1      45.847 -11.007   7.375  1.00  0.00    -0.346 OA
HETATM    6  C   UNL     1      45.243 -11.645   6.213  1.00  0.00     0.219 A 
HETATM    7  C   UNL     1      43.767 -11.597   6.156  1.00  0.00     0.031 A 
HETATM    8  C   UNL     1      43.026 -10.981   7.128  1.00  0.00     0.074 A 
HETATM    9  N   UNL     1      41.725 -11.118   6.764  1.00  0.00    -0.276 N 
HETATM   10  H   UNL     1      40.899 -10.783   7.246  1.00  0.00     0.189 HD
HETATM   11  N   UNL     1      41.565 -11.798   5.608  1.00  0.00    -0.168 NA
HETATM   12  C   UNL     1      42.829 -12.097   5.223  1.00  0.00     0.155 A 
HETATM   13  C   UNL     1      45.722  -9.816   9.391  1.00  0.00     0.038 A 
HETATM   14  C   UNL     1      45.006  -9.180  10.405  1.00  0.00     0.003 A 
ENDROOT
BRANCH  12  15
HETATM   15  C   UNL     1      43.118 -12.849   3.992  1.00  0.00     0.272 C 
HETATM   16  N   UNL     1      42.591 -14.118   3.993  1.00  0.00    -0.351 N 
HETATM   17  H   UNL     1      42.060 -14.377   4.820  1.00  0.00     0.163 HD
HETATM   18  O   UNL     1      43.767 -12.376   3.065  1.00  0.00    -0.266 OA
BRANCH  16  19
HETATM   19  C   UNL     1      42.748 -15.042   2.902  1.00  0.00     0.161 C 
BRANCH  19  20
HETATM   20  C   UNL     1      43.217 -16.389   3.388  1.00  0.00    -0.039 A 
HETATM   21  C   UNL     1      43.235 -17.491   2.517  1.00  0.00     0.032 A 
HETATM   22  C   UNL     1      43.685 -18.732   2.964  1.00  0.00     0.034 A 
HETATM   23 CL   UNL     1      43.695 -20.076   1.888  1.00  0.00    -0.084 Cl
HETATM   24  C   UNL     1      44.130 -18.894   4.274  1.00  0.00     0.024 A 
HETATM   25  C   UNL     1      44.123 -17.805   5.146  1.00  0.00     0.002 A 
HETATM   26  C   UNL     1      43.670 -16.559   4.705  1.00  0.00     0.009 A 
ENDBRANCH  19  20
ENDBRANCH  16  19
ENDBRANCH  12  15
TORSDOF 3
ENDMDL
MODEL 5
REMARK VINA RESULT:      -8.6      3.545      8.132
REMARK  3 active torsions:
REMARK  status: ('A' for Active; 'I' for Inactive)
REMARK    1  A    between atoms: C_12  and  C_13 
REMARK       I    between atoms: C_13  and  N_14 
REMARK    2  A    between atoms: N_14  and  C_15 
REMARK    3  A    between atoms: C_15  and  C_16 
ROOT
HETATM    1  C   UNL     1      44.584  -8.559   8.488  1.00  0.00     0.001 A 
HETATM    2  C   UNL     1      43.468  -9.205   7.951  1.00  0.00     0.016 A 
HETATM    3  C   UNL     1      43.610 -10.470   7.377  1.00  0.00     0.026 A 
HETATM    4  C   UNL     1      44.875 -11.091   7.341  1.00  0.00     0.081 A 
HETATM    5  O   UNL     1      45.126 -12.334   6.802  1.00  0.00    -0.346 OA
HETATM    6  C   UNL     1      44.039 -13.101   6.208  1.00  0.00     0.219 A 
HETATM    7  C   UNL     1      42.709 -12.458   6.249  1.00  0.00     0.031 A 
HETATM    8  C   UNL     1      42.523 -11.219   6.799  1.00  0.00     0.074 A 
HETATM    9  N   UNL     1      41.202 -10.934   6.667  1.00  0.00    -0.276 N 
HETATM   10  H   UNL     1      40.706 -10.100   6.960  1.00  0.00     0.189 HD
HETATM   11  N   UNL     1      40.503 -11.922   6.066  1.00  0.00    -0.168 NA
HETATM   12  C   UNL     1      41.433 -12.871   5.801  1.00  0.00     0.155 A 
HETATM   13  C   UNL     1      45.983 -10.436   7.881  1.00  0.00     0.038 A 
HETATM   14  C   UNL     1      45.837  -9.173   8.454  1.00  0.00     0.003 A 
ENDROOT
BRANCH  12  15
HETATM   15  C   UNL     1      41.094 -14.140   5.140  1.00  0.00     0.272 C 
HETATM   16  N   UNL     1      41.755 -14.328   3.951  1.00  0.00    -0.351 N 
HETATM   17  H   UNL     1      42.400 -13.591   3.681  1.00  0.00     0.163 HD
HETATM   18  O   UNL     1      40.297 -14.941   5.617  1.00  0.00    -0.266 OA
BRANCH  16  19
HETATM   19  C   UNL     1      41.580 -15.490   3.122  1.00  0.00     0.161 C 
BRANCH  19  20
HETATM   20  C   UNL     1      42.565 -16.573   3.480  1.00  0.00    -0.039 A 
HETATM   21  C   UNL     1      42.682 -17.720   2.679  1.00  0.00     0.032 A 
HETATM   22  C   UNL     1      43.606 -18.712   3.003  1.00  0.00     0.034 A 
HETATM   23 CL   UNL     1      43.733 -20.117   2.017  1.00  0.00    -0.084 Cl
HETATM   24  C   UNL     1      44.430 -18.575   4.119  1.00  0.00     0.024 A 
HETATM   25  C   UNL     1      44.327 -17.437   4.918  1.00  0.00     0.002 A 
HETATM   26  C   UNL     1      43.400 -16.441   4.600  1.00  0.00     0.009 A 
ENDBRANCH  19  20
ENDBRANCH  16  19
ENDBRANCH  12  15
TORSDOF 3
ENDMDL
MODEL 6
REMARK VINA RESULT:      -8.2      3.319      4.175
REMARK  3 active torsions:
REMARK  status: ('A' for Active; 'I' for Inactive)
REMARK    1  A    between atoms: C_12  and  C_13 
REMARK       I    between atoms: C_13  and  N_14 
REMARK    2  A    between atoms: N_14  and  C_15 
REMARK    3  A    between atoms: C_15  and  C_16 
ROOT
HETATM    1  C   UNL     1      43.913 -20.970   4.865  1.00  0.00     0.001 A 
HETATM    2  C   UNL     1      43.766 -19.904   5.756  1.00  0.00     0.016 A 
HETATM    3  C   UNL     1      43.641 -18.603   5.265  1.00  0.00     0.026 A 
HETATM    4  C   UNL     1      43.662 -18.369   3.875  1.00  0.00     0.081 A 
HETATM    5  O   UNL     1      43.544 -17.129   3.285  1.00  0.00    -0.346 OA
HETATM    6  C   UNL     1      43.391 -15.941   4.115  1.00  0.00     0.219 A 
HETATM    7  C   UNL     1      43.361 -16.182   5.572  1.00  0.00     0.031 A 
HETATM    8  C   UNL     1      43.483 -17.439   6.099  1.00  0.00     0.074 A 
HETATM    9  N   UNL     1      43.419 -17.299   7.448  1.00  0.00    -0.276 N 
HETATM   10  H   UNL     1      43.476 -18.019   8.159  1.00  0.00     0.189 HD
HETATM   11  N   UNL     1      43.254 -16.017   7.841  1.00  0.00    -0.168 NA
HETATM   12  C   UNL     1      43.220 -15.317   6.682  1.00  0.00     0.155 A 
HETATM   13  C   UNL     1      43.809 -19.441   2.994  1.00  0.00     0.038 A 
HETATM   14  C   UNL     1      43.933 -20.739   3.489  1.00  0.00     0.003 A 
ENDROOT
BRANCH  12  15
HETATM   15  C   UNL     1      43.049 -13.857   6.651  1.00  0.00     0.272 C 
HETATM   16  N   UNL     1      41.806 -13.463   6.217  1.00  0.00    -0.351 N 
HETATM   17  H   UNL     1      41.158 -14.211   5.989  1.00  0.00     0.163 HD
HETATM   18  O   UNL     1      43.938 -13.080   6.984  1.00  0.00    -0.266 OA
BRANCH  16  19
HETATM   19  C   UNL     1      41.409 -12.086   6.097  1.00  0.00     0.161 C 
BRANCH  19  20
HETATM   20  C   UNL     1      41.245 -11.686   4.653  1.00  0.00    -0.039 A 
HETATM   21  C   UNL     1      39.970 -11.657   4.065  1.00  0.00     0.032 A 
HETATM   22  C   UNL     1      39.819 -11.271   2.734  1.00  0.00     0.034 A 
HETATM   23 CL   UNL     1      38.251 -11.246   2.023  1.00  0.00    -0.084 Cl
HETATM   24  C   UNL     1      40.927 -10.901   1.974  1.00  0.00     0.024 A 
HETATM   25  C   UNL     1      42.197 -10.921   2.550  1.00  0.00     0.002 A 
HETATM   26  C   UNL     1      42.355 -11.310   3.882  1.00  0.00     0.009 A 
ENDBRANCH  19  20
ENDBRANCH  16  19
ENDBRANCH  12  15
TORSDOF 3
ENDMDL
MODEL 7
REMARK VINA RESULT:      -7.9      3.428      8.957
REMARK  3 active torsions:
REMARK  status: ('A' for Active; 'I' for Inactive)
REMARK    1  A    between atoms: C_12  and  C_13 
REMARK       I    between atoms: C_13  and  N_14 
REMARK    2  A    between atoms: N_14  and  C_15 
REMARK    3  A    between atoms: C_15  and  C_16 
ROOT
HETATM    1  C   UNL     1      43.199  -7.894  12.503  1.00  0.00     0.001 A 
HETATM    2  C   UNL     1      43.888  -8.703  11.596  1.00  0.00     0.016 A 
HETATM    3  C   UNL     1      43.295  -9.039  10.377  1.00  0.00     0.026 A 
HETATM    4  C   UNL     1      42.005  -8.562  10.065  1.00  0.00     0.081 A 
HETATM    5  O   UNL     1      41.330  -8.830   8.894  1.00  0.00    -0.346 OA
HETATM    6  C   UNL     1      41.947  -9.668   7.875  1.00  0.00     0.219 A 
HETATM    7  C   UNL     1      43.302 -10.165   8.194  1.00  0.00     0.031 A 
HETATM    8  C   UNL     1      43.922  -9.863   9.376  1.00  0.00     0.074 A 
HETATM    9  N   UNL     1      45.133 -10.476   9.343  1.00  0.00    -0.276 N 
HETATM   10  H   UNL     1      45.859 -10.474  10.049  1.00  0.00     0.189 HD
HETATM   11  N   UNL     1      45.350 -11.161   8.198  1.00  0.00    -0.168 NA
HETATM   12  C   UNL     1      44.216 -10.974   7.481  1.00  0.00     0.155 A 
HETATM   13  C   UNL     1      41.326  -7.755  10.978  1.00  0.00     0.038 A 
HETATM   14  C   UNL     1      41.923  -7.421  12.194  1.00  0.00     0.003 A 
ENDROOT
BRANCH  12  15
HETATM   15  C   UNL     1      44.028 -11.557   6.144  1.00  0.00     0.272 C 
HETATM   16  N   UNL     1      43.132 -12.598   6.125  1.00  0.00    -0.351 N 
HETATM   17  H   UNL     1      42.701 -12.828   7.015  1.00  0.00     0.163 HD
HETATM   18  O   UNL     1      44.620 -11.142   5.152  1.00  0.00    -0.266 OA
BRANCH  16  19
HETATM   19  C   UNL     1      42.791 -13.328   4.934  1.00  0.00     0.161 C 
BRANCH  19  20
HETATM   20  C   UNL     1      43.226 -14.768   5.030  1.00  0.00    -0.039 A 
HETATM   21  C   UNL     1      43.059 -15.635   3.937  1.00  0.00     0.032 A 
HETATM   22  C   UNL     1      43.478 -16.962   4.022  1.00  0.00     0.034 A 
HETATM   23 CL   UNL     1      43.260 -18.015   2.679  1.00  0.00    -0.084 Cl
HETATM   24  C   UNL     1      44.074 -17.442   5.186  1.00  0.00     0.024 A 
HETATM   25  C   UNL     1      44.251 -16.589   6.275  1.00  0.00     0.002 A 
HETATM   26  C   UNL     1      43.830 -15.259   6.197  1.00  0.00     0.009 A 
ENDBRANCH  19  20
ENDBRANCH  16  19
ENDBRANCH  12  15
TORSDOF 3
ENDMDL
MODEL 8
REMARK VINA RESULT:      -7.9      3.484      8.793
REMARK  3 active torsions:
REMARK  status: ('A' for Active; 'I' for Inactive)
REMARK    1  A    between atoms: C_12  and  C_13 
REMARK       I    between atoms: C_13  and  N_14 
REMARK    2  A    between atoms: N_14  and  C_15 
REMARK    3  A    between atoms: C_15  and  C_16 
ROOT
HETATM    1  C   UNL     1      43.886  -7.798   9.402  1.00  0.00     0.001 A 
HETATM    2  C   UNL     1      43.943  -9.127   8.975  1.00  0.00     0.016 A 
HETATM    3  C   UNL     1      43.189  -9.534   7.873  1.00  0.00     0.026 A 
HETATM    4  C   UNL     1      42.373  -8.605   7.194  1.00  0.00     0.081 A 
HETATM    5  O   UNL     1      41.592  -8.899   6.098  1.00  0.00    -0.346 OA
HETATM    6  C   UNL     1      41.568 -10.255   5.565  1.00  0.00     0.219 A 
HETATM    7  C   UNL     1      42.427 -11.231   6.268  1.00  0.00     0.031 A 
HETATM    8  C   UNL     1      43.181 -10.877   7.354  1.00  0.00     0.074 A 
HETATM    9  N   UNL     1      43.834 -12.000   7.749  1.00  0.00    -0.276 N 
HETATM   10  H   UNL     1      44.479 -12.114   8.522  1.00  0.00     0.189 HD
HETATM   11  N   UNL     1      43.557 -13.075   6.978  1.00  0.00    -0.168 NA
HETATM   12  C   UNL     1      42.682 -12.605   6.057  1.00  0.00     0.155 A 
HETATM   13  C   UNL     1      42.324  -7.281   7.629  1.00  0.00     0.038 A 
HETATM   14  C   UNL     1      43.079  -6.878   8.731  1.00  0.00     0.003 A 
ENDROOT
BRANCH  12  15
HETATM   15  C   UNL     1      42.116 -13.461   5.003  1.00  0.00     0.272 C 
HETATM   16  N   UNL     1      43.062 -14.200   4.337  1.00  0.00    -0.351 N 
HETATM   17  H   UNL     1      44.021 -14.085   4.654  1.00  0.00     0.163 HD
HETATM   18  O   UNL     1      40.915 -13.499   4.757  1.00  0.00    -0.266 OA
BRANCH  16  19
HETATM   19  C   UNL     1      42.749 -15.103   3.262  1.00  0.00     0.161 C 
BRANCH  19  20
HETATM   20  C   UNL     1      43.214 -16.504   3.568  1.00  0.00    -0.039 A 
HETATM   21  C   UNL     1      43.078 -17.523   2.612  1.00  0.00     0.032 A 
HETATM   22  C   UNL     1      43.525 -18.813   2.892  1.00  0.00     0.034 A 
HETATM   23 CL   UNL     1      43.345 -20.055   1.713  1.00  0.00    -0.084 Cl
HETATM   24  C   UNL     1      44.119 -19.106   4.117  1.00  0.00     0.024 A 
HETATM   25  C   UNL     1      44.265 -18.100   5.072  1.00  0.00     0.002 A 
HETATM   26  C   UNL     1      43.816 -16.806   4.800  1.00  0.00     0.009 A 
ENDBRANCH  19  20
ENDBRANCH  16  19
ENDBRANCH  12  15
TORSDOF 3
ENDMDL
MODEL 9
REMARK VINA RESULT:      -7.9     15.932     17.690
REMARK  3 active torsions:
REMARK  status: ('A' for Active; 'I' for Inactive)
REMARK    1  A    between atoms: C_12  and  C_13 
REMARK       I    between atoms: C_13  and  N_14 
REMARK    2  A    between atoms: N_14  and  C_15 
REMARK    3  A    between atoms: C_15  and  C_16 
ROOT
HETATM    1  C   UNL     1      51.576 -31.111   5.530  1.00  0.00     0.001 A 
HETATM    2  C   UNL     1      50.793 -30.260   4.745  1.00  0.00     0.016 A 
HETATM    3  C   UNL     1      49.481 -30.621   4.430  1.00  0.00     0.026 A 
HETATM    4  C   UNL     1      48.951 -31.838   4.903  1.00  0.00     0.081 A 
HETATM    5  O   UNL     1      47.673 -32.289   4.655  1.00  0.00    -0.346 OA
HETATM    6  C   UNL     1      46.765 -31.488   3.843  1.00  0.00     0.219 A 
HETATM    7  C   UNL     1      47.314 -30.207   3.350  1.00  0.00     0.031 A 
HETATM    8  C   UNL     1      48.594 -29.815   3.632  1.00  0.00     0.074 A 
HETATM    9  N   UNL     1      48.767 -28.610   3.029  1.00  0.00    -0.276 N 
HETATM   10  H   UNL     1      49.593 -28.023   3.023  1.00  0.00     0.189 HD
HETATM   11  N   UNL     1      47.668 -28.182   2.370  1.00  0.00    -0.168 NA
HETATM   12  C   UNL     1      46.761 -29.171   2.564  1.00  0.00     0.155 A 
HETATM   13  C   UNL     1      49.742 -32.680   5.686  1.00  0.00     0.038 A 
HETATM   14  C   UNL     1      51.052 -32.316   5.999  1.00  0.00     0.003 A 
ENDROOT
BRANCH  12  15
HETATM   15  C   UNL     1      45.401 -29.108   2.008  1.00  0.00     0.272 C 
HETATM   16  N   UNL     1      45.370 -29.189   0.637  1.00  0.00    -0.351 N 
HETATM   17  H   UNL     1      46.269 -29.297   0.178  1.00  0.00     0.163 HD
HETATM   18  O   UNL     1      44.403 -28.996   2.712  1.00  0.00    -0.266 OA
BRANCH  16  19
HETATM   19  C   UNL     1      44.155 -29.143  -0.132  1.00  0.00     0.161 C 
BRANCH  19  20
HETATM   20  C   UNL     1      44.440 -29.167  -1.612  1.00  0.00    -0.039 A 
HETATM   21  C   UNL     1      44.184 -30.324  -2.366  1.00  0.00     0.032 A 
HETATM   22  C   UNL     1      44.432 -30.338  -3.737  1.00  0.00     0.034 A 
HETATM   23 CL   UNL     1      44.120 -31.765  -4.648  1.00  0.00    -0.084 Cl
HETATM   24  C   UNL     1      44.930 -29.205  -4.378  1.00  0.00     0.024 A 
HETATM   25  C   UNL     1      45.183 -28.049  -3.640  1.00  0.00     0.002 A 
HETATM   26  C   UNL     1      44.939 -28.029  -2.264  1.00  0.00     0.009 A 
ENDBRANCH  19  20
ENDBRANCH  16  19
ENDBRANCH  12  15
TORSDOF 3
ENDMDL
MODEL 10
REMARK VINA RESULT:      -7.8      5.678      7.538
REMARK  3 active torsions:
REMARK  status: ('A' for Active; 'I' for Inactive)
REMARK    1  A    between atoms: C_12  and  C_13 
REMARK       I    between atoms: C_13  and  N_14 
REMARK    2  A    between atoms: N_14  and  C_15 
REMARK    3  A    between atoms: C_15  and  C_16 
ROOT
HETATM    1  C   UNL     1      44.667 -18.657   4.626  1.00  0.00     0.001 A 
HETATM    2  C   UNL     1      44.110 -17.396   4.851  1.00  0.00     0.016 A 
HETATM    3  C   UNL     1      43.156 -16.892   3.965  1.00  0.00     0.026 A 
HETATM    4  C   UNL     1      42.757 -17.655   2.849  1.00  0.00     0.081 A 
HETATM    5  O   UNL     1      41.825 -17.256   1.916  1.00  0.00    -0.346 OA
HETATM    6  C   UNL     1      41.179 -15.955   2.045  1.00  0.00     0.219 A 
HETATM    7  C   UNL     1      41.588 -15.154   3.217  1.00  0.00     0.031 A 
HETATM    8  C   UNL     1      42.521 -15.607   4.110  1.00  0.00     0.074 A 
HETATM    9  N   UNL     1      42.660 -14.634   5.047  1.00  0.00    -0.276 N 
HETATM   10  H   UNL     1      43.266 -14.623   5.859  1.00  0.00     0.189 HD
HETATM   11  N   UNL     1      41.863 -13.565   4.825  1.00  0.00    -0.168 NA
HETATM   12  C   UNL     1      41.196 -13.881   3.689  1.00  0.00     0.155 A 
HETATM   13  C   UNL     1      43.320 -18.913   2.634  1.00  0.00     0.038 A 
HETATM   14  C   UNL     1      44.273 -19.413   3.522  1.00  0.00     0.003 A 
ENDROOT
BRANCH  12  15
HETATM   15  C   UNL     1      40.205 -12.978   3.084  1.00  0.00     0.272 C 
HETATM   16  N   UNL     1      40.554 -12.553   1.825  1.00  0.00    -0.351 N 
HETATM   17  H   UNL     1      41.429 -12.918   1.460  1.00  0.00     0.163 HD
HETATM   18  O   UNL     1      39.174 -12.647   3.659  1.00  0.00    -0.266 OA
BRANCH  16  19
HETATM   19  C   UNL     1      39.746 -11.660   1.037  1.00  0.00     0.161 C 
BRANCH  19  20
HETATM   20  C   UNL     1      39.160 -12.362  -0.160  1.00  0.00    -0.039 A 
HETATM   21  C   UNL     1      38.142 -11.754  -0.912  1.00  0.00     0.032 A 
HETATM   22  C   UNL     1      37.614 -12.397  -2.030  1.00  0.00     0.034 A 
HETATM   23 CL   UNL     1      36.361 -11.643  -2.938  1.00  0.00    -0.084 Cl
HETATM   24  C   UNL     1      38.093 -13.646  -2.420  1.00  0.00     0.024 A 
HETATM   25  C   UNL     1      39.108 -14.257  -1.684  1.00  0.00     0.002 A 
HETATM   26  C   UNL     1      39.640 -13.619  -0.561  1.00  0.00     0.009 A 
ENDBRANCH  19  20
ENDBRANCH  16  19
ENDBRANCH  12  15
TORSDOF 3
ENDMDL
