MODEL 1
REMARK VINA RESULT:      -8.7      0.000      0.000
REMARK  7 active torsions:
REMARK  status: ('A' for Active; 'I' for Inactive)
REMARK    1  A    between atoms: C_2  and  C_3 
REMARK       I    between atoms: C_3  and  N_4 
REMARK    2  A    between atoms: N_4  and  N_5 
REMARK       I    between atoms: N_5  and  C_6 
REMARK    3  A    between atoms: C_6  and  C_7 
REMARK    4  A    between atoms: C_7  and  C_8 
REMARK    5  A    between atoms: C_8  and  C_9 
REMARK       I    between atoms: C_9  and  N_10 
REMARK    6  A    between atoms: N_10  and  C_11 
REMARK    7  A    between atoms: C_11  and  C_12 
ROOT
HETATM    1  C   UNL     1      44.942 -11.721   6.731  1.00  0.00     0.114 C 
ENDROOT
BRANCH   1   2
HETATM    2  C   UNL     1      44.560 -10.785   7.853  1.00  0.00     0.236 C 
HETATM    3  N   UNL     1      43.598 -11.264   8.710  1.00  0.00    -0.267 N 
HETATM    4  H   UNL     1      43.015 -12.074   8.499  1.00  0.00     0.190 HD
HETATM    5  O   UNL     1      45.040  -9.655   7.948  1.00  0.00    -0.272 OA
BRANCH   3   6
HETATM    6  N   UNL     1      43.105 -10.394   9.690  1.00  0.00    -0.263 N 
HETATM    7  C   UNL     1      43.599 -10.520  10.974  1.00  0.00     0.270 C 
HETATM    8  O   UNL     1      44.472 -11.334  11.266  1.00  0.00    -0.266 OA
HETATM    9  H   UNL     1      42.227  -9.926   9.473  1.00  0.00     0.190 HD
BRANCH   7  10
HETATM   10  C   UNL     1      43.006  -9.625  12.007  1.00  0.00     0.033 A 
HETATM   11  C   UNL     1      41.847 -10.052  12.672  1.00  0.00     0.018 A 
HETATM   12  C   UNL     1      41.271  -9.256  13.667  1.00  0.00     0.020 A 
HETATM   13  C   UNL     1      41.858  -8.038  14.003  1.00  0.00     0.011 A 
HETATM   14  C   UNL     1      43.016  -7.608  13.356  1.00  0.00     0.020 A 
HETATM   15 BR   UNL     1      41.088  -6.966  15.356  1.00  0.00    -0.051 Br
HETATM   16  C   UNL     1      43.594  -8.402  12.360  1.00  0.00     0.018 A 
ENDBRANCH   7  10
ENDBRANCH   3   6
ENDBRANCH   1   2
BRANCH   1  17
HETATM   17  C   UNL     1      44.082 -11.445   5.507  1.00  0.00     0.112 C 
BRANCH  17  18
HETATM   18  C   UNL     1      42.942 -12.433   5.362  1.00  0.00     0.218 C 
HETATM   19  N   UNL     1      42.896 -13.084   4.156  1.00  0.00    -0.357 N 
HETATM   20  H   UNL     1      43.732 -13.117   3.573  1.00  0.00     0.162 HD
HETATM   21  O   UNL     1      42.103 -12.585   6.246  1.00  0.00    -0.274 OA
BRANCH  19  22
HETATM   22  C   UNL     1      41.863 -14.045   3.848  1.00  0.00     0.161 C 
BRANCH  22  23
HETATM   23  C   UNL     1      42.466 -15.416   3.677  1.00  0.00    -0.038 A 
HETATM   24  C   UNL     1      42.782 -16.206   4.793  1.00  0.00     0.048 A 
HETATM   25  C   UNL     1      43.357 -17.440   4.572  1.00  0.00     0.105 A 
HETATM   26  C   UNL     1      43.622 -17.902   3.304  1.00  0.00     0.105 A 
HETATM   27  O   UNL     1      43.729 -18.327   5.535  1.00  0.00    -0.323 OA
HETATM   28  O   UNL     1      44.195 -19.136   3.309  1.00  0.00    -0.323 OA
HETATM   29  C   UNL     1      43.324 -17.160   2.184  1.00  0.00     0.040 A 
HETATM   30  C   UNL     1      44.253 -19.401   4.726  1.00  0.00     0.352 A 
HETATM   31  C   UNL     1      42.738 -15.905   2.376  1.00  0.00     0.012 A 
ENDBRANCH  22  23
ENDBRANCH  19  22
ENDBRANCH  17  18
ENDBRANCH   1  17
TORSDOF 7
ENDMDL
MODEL 2
REMARK VINA RESULT:      -8.5      4.018     11.073
REMARK  7 active torsions:
REMARK  status: ('A' for Active; 'I' for Inactive)
REMARK    1  A    between atoms: C_2  and  C_3 
REMARK       I    between atoms: C_3  and  N_4 
REMARK    2  A    between atoms: N_4  and  N_5 
REMARK       I    between atoms: N_5  and  C_6 
REMARK    3  A    between atoms: C_6  and  C_7 
REMARK    4  A    between atoms: C_7  and  C_8 
REMARK    5  A    between atoms: C_8  and  C_9 
REMARK       I    between atoms: C_9  and  N_10 
REMARK    6  A    between atoms: N_10  and  C_11 
REMARK    7  A    between atoms: C_11  and  C_12 
ROOT
HETATM    1  C   UNL     1      44.507  -9.931   8.452  1.00  0.00     0.114 C 
ENDROOT
BRANCH   1   2
HETATM    2  C   UNL     1      44.661 -11.151   7.575  1.00  0.00     0.236 C 
HETATM    3  N   UNL     1      43.646 -12.072   7.675  1.00  0.00    -0.267 N 
HETATM    4  H   UNL     1      42.960 -12.069   8.430  1.00  0.00     0.190 HD
HETATM    5  O   UNL     1      45.656 -11.323   6.870  1.00  0.00    -0.272 OA
BRANCH   3   6
HETATM    6  N   UNL     1      43.794 -13.285   6.990  1.00  0.00    -0.263 N 
HETATM    7  C   UNL     1      43.111 -13.443   5.801  1.00  0.00     0.270 C 
HETATM    8  O   UNL     1      42.420 -12.550   5.315  1.00  0.00    -0.266 OA
HETATM    9  H   UNL     1      44.156 -14.065   7.535  1.00  0.00     0.190 HD
BRANCH   7  10
HETATM   10  C   UNL     1      43.238 -14.768   5.131  1.00  0.00     0.033 A 
HETATM   11  C   UNL     1      42.852 -14.874   3.786  1.00  0.00     0.018 A 
HETATM   12  C   UNL     1      42.977 -16.090   3.110  1.00  0.00     0.020 A 
HETATM   13  C   UNL     1      43.496 -17.200   3.774  1.00  0.00     0.011 A 
HETATM   14  C   UNL     1      43.893 -17.104   5.107  1.00  0.00     0.020 A 
HETATM   15 BR   UNL     1      43.678 -18.843   2.858  1.00  0.00    -0.051 Br
HETATM   16  C   UNL     1      43.768 -15.887   5.786  1.00  0.00     0.018 A 
ENDBRANCH   7  10
ENDBRANCH   3   6
ENDBRANCH   1   2
BRANCH   1  17
HETATM   17  C   UNL     1      45.060 -10.215   9.840  1.00  0.00     0.112 C 
BRANCH  17  18
HETATM   18  C   UNL     1      43.970 -10.513  10.851  1.00  0.00     0.218 C 
HETATM   19  N   UNL     1      42.914  -9.639  10.830  1.00  0.00    -0.357 N 
HETATM   20  H   UNL     1      42.757  -9.063  10.005  1.00  0.00     0.162 HD
HETATM   21  O   UNL     1      44.071 -11.437  11.653  1.00  0.00    -0.274 OA
BRANCH  19  22
HETATM   22  C   UNL     1      41.801  -9.771  11.740  1.00  0.00     0.161 C 
BRANCH  22  23
HETATM   23  C   UNL     1      42.024  -8.911  12.959  1.00  0.00    -0.038 A 
HETATM   24  C   UNL     1      41.232  -9.072  14.106  1.00  0.00     0.048 A 
HETATM   25  C   UNL     1      41.466  -8.237  15.178  1.00  0.00     0.105 A 
HETATM   26  C   UNL     1      42.442  -7.267  15.145  1.00  0.00     0.105 A 
HETATM   27  O   UNL     1      40.793  -8.253  16.360  1.00  0.00    -0.323 OA
HETATM   28  O   UNL     1      42.502  -6.550  16.299  1.00  0.00    -0.323 OA
HETATM   29  C   UNL     1      43.240  -7.079  14.040  1.00  0.00     0.040 A 
HETATM   30  C   UNL     1      41.459  -7.186  17.067  1.00  0.00     0.352 A 
HETATM   31  C   UNL     1      43.028  -7.913  12.938  1.00  0.00     0.012 A 
ENDBRANCH  22  23
ENDBRANCH  19  22
ENDBRANCH  17  18
ENDBRANCH   1  17
TORSDOF 7
ENDMDL
MODEL 3
REMARK VINA RESULT:      -8.4      1.000      1.471
REMARK  7 active torsions:
REMARK  status: ('A' for Active; 'I' for Inactive)
REMARK    1  A    between atoms: C_2  and  C_3 
REMARK       I    between atoms: C_3  and  N_4 
REMARK    2  A    between atoms: N_4  and  N_5 
REMARK       I    between atoms: N_5  and  C_6 
REMARK    3  A    between atoms: C_6  and  C_7 
REMARK    4  A    between atoms: C_7  and  C_8 
REMARK    5  A    between atoms: C_8  and  C_9 
REMARK       I    between atoms: C_9  and  N_10 
REMARK    6  A    between atoms: N_10  and  C_11 
REMARK    7  A    between atoms: C_11  and  C_12 
ROOT
HETATM    1  C   UNL     1      44.221 -11.899   6.147  1.00  0.00     0.114 C 
ENDROOT
BRANCH   1   2
HETATM    2  C   UNL     1      43.649 -10.955   7.177  1.00  0.00     0.236 C 
HETATM    3  N   UNL     1      43.951 -11.263   8.482  1.00  0.00    -0.267 N 
HETATM    4  H   UNL     1      44.328 -12.166   8.771  1.00  0.00     0.190 HD
HETATM    5  O   UNL     1      42.917 -10.015   6.862  1.00  0.00    -0.272 OA
BRANCH   3   6
HETATM    6  N   UNL     1      43.341 -10.506   9.490  1.00  0.00    -0.263 N 
HETATM    7  C   UNL     1      43.989 -10.407  10.706  1.00  0.00     0.270 C 
HETATM    8  O   UNL     1      45.085 -10.924  10.911  1.00  0.00    -0.266 OA
HETATM    9  H   UNL     1      42.348 -10.316   9.369  1.00  0.00     0.190 HD
BRANCH   7  10
HETATM   10  C   UNL     1      43.283  -9.650  11.778  1.00  0.00     0.033 A 
HETATM   11  C   UNL     1      42.220 -10.276  12.445  1.00  0.00     0.018 A 
HETATM   12  C   UNL     1      41.545  -9.614  13.475  1.00  0.00     0.020 A 
HETATM   13  C   UNL     1      41.939  -8.329  13.844  1.00  0.00     0.011 A 
HETATM   14  C   UNL     1      43.002  -7.701  13.195  1.00  0.00     0.020 A 
HETATM   15 BR   UNL     1      41.037  -7.436  15.244  1.00  0.00    -0.051 Br
HETATM   16  C   UNL     1      43.678  -8.361  12.164  1.00  0.00     0.018 A 
ENDBRANCH   7  10
ENDBRANCH   3   6
ENDBRANCH   1   2
BRANCH   1  17
HETATM   17  C   UNL     1      43.578 -11.644   4.793  1.00  0.00     0.112 C 
BRANCH  17  18
HETATM   18  C   UNL     1      42.543 -12.692   4.434  1.00  0.00     0.218 C 
HETATM   19  N   UNL     1      42.959 -13.619   3.514  1.00  0.00    -0.357 N 
HETATM   20  H   UNL     1      43.956 -13.753   3.354  1.00  0.00     0.162 HD
HETATM   21  O   UNL     1      41.408 -12.662   4.902  1.00  0.00    -0.274 OA
BRANCH  19  22
HETATM   22  C   UNL     1      42.089 -14.674   3.050  1.00  0.00     0.161 C 
BRANCH  22  23
HETATM   23  C   UNL     1      42.705 -16.019   3.342  1.00  0.00    -0.038 A 
HETATM   24  C   UNL     1      42.581 -17.078   2.431  1.00  0.00     0.048 A 
HETATM   25  C   UNL     1      43.142 -18.292   2.768  1.00  0.00     0.105 A 
HETATM   26  C   UNL     1      43.807 -18.480   3.957  1.00  0.00     0.105 A 
HETATM   27  O   UNL     1      43.112 -19.419   2.007  1.00  0.00    -0.323 OA
HETATM   28  O   UNL     1      44.276 -19.750   4.095  1.00  0.00    -0.323 OA
HETATM   29  C   UNL     1      43.952 -17.466   4.876  1.00  0.00     0.040 A 
HETATM   30  C   UNL     1      43.838 -20.336   2.852  1.00  0.00     0.352 A 
HETATM   31  C   UNL     1      43.396 -16.223   4.561  1.00  0.00     0.012 A 
ENDBRANCH  22  23
ENDBRANCH  19  22
ENDBRANCH  17  18
ENDBRANCH   1  17
TORSDOF 7
ENDMDL
MODEL 4
REMARK VINA RESULT:      -8.3      1.444      1.919
REMARK  7 active torsions:
REMARK  status: ('A' for Active; 'I' for Inactive)
REMARK    1  A    between atoms: C_2  and  C_3 
REMARK       I    between atoms: C_3  and  N_4 
REMARK    2  A    between atoms: N_4  and  N_5 
REMARK       I    between atoms: N_5  and  C_6 
REMARK    3  A    between atoms: C_6  and  C_7 
REMARK    4  A    between atoms: C_7  and  C_8 
REMARK    5  A    between atoms: C_8  and  C_9 
REMARK       I    between atoms: C_9  and  N_10 
REMARK    6  A    between atoms: N_10  and  C_11 
REMARK    7  A    between atoms: C_11  and  C_12 
ROOT
HETATM    1  C   UNL     1      45.675 -10.130   7.234  1.00  0.00     0.114 C 
ENDROOT
BRANCH   1   2
HETATM    2  C   UNL     1      45.391  -9.381   8.514  1.00  0.00     0.236 C 
HETATM    3  N   UNL     1      45.152 -10.173   9.612  1.00  0.00    -0.267 N 
HETATM    4  H   UNL     1      44.950 -11.171   9.549  1.00  0.00     0.190 HD
HETATM    5  O   UNL     1      45.324  -8.152   8.547  1.00  0.00    -0.272 OA
BRANCH   3   6
HETATM    6  N   UNL     1      44.752  -9.543  10.797  1.00  0.00    -0.263 N 
HETATM    7  C   UNL     1      43.429  -9.656  11.174  1.00  0.00     0.270 C 
HETATM    8  O   UNL     1      42.615 -10.314  10.530  1.00  0.00    -0.266 OA
HETATM    9  H   UNL     1      45.375  -8.819  11.152  1.00  0.00     0.190 HD
BRANCH   7  10
HETATM   10  C   UNL     1      43.021  -8.920  12.404  1.00  0.00     0.033 A 
HETATM   11  C   UNL     1      42.100  -9.528  13.270  1.00  0.00     0.018 A 
HETATM   12  C   UNL     1      41.708  -8.886  14.447  1.00  0.00     0.020 A 
HETATM   13  C   UNL     1      42.243  -7.640  14.765  1.00  0.00     0.011 A 
HETATM   14  C   UNL     1      43.168  -7.030  13.918  1.00  0.00     0.020 A 
HETATM   15 BR   UNL     1      41.725  -6.775  16.364  1.00  0.00    -0.051 Br
HETATM   16  C   UNL     1      43.560  -7.670  12.739  1.00  0.00     0.018 A 
ENDBRANCH   7  10
ENDBRANCH   3   6
ENDBRANCH   1   2
BRANCH   1  17
HETATM   17  C   UNL     1      45.061 -11.520   7.298  1.00  0.00     0.112 C 
BRANCH  17  18
HETATM   18  C   UNL     1      44.388 -11.919   5.998  1.00  0.00     0.218 C 
HETATM   19  N   UNL     1      43.532 -12.985   6.099  1.00  0.00    -0.357 N 
HETATM   20  H   UNL     1      43.165 -13.248   7.012  1.00  0.00     0.162 HD
HETATM   21  O   UNL     1      44.646 -11.353   4.940  1.00  0.00    -0.274 OA
BRANCH  19  22
HETATM   22  C   UNL     1      42.825 -13.503   4.952  1.00  0.00     0.161 C 
BRANCH  22  23
HETATM   23  C   UNL     1      43.184 -14.951   4.732  1.00  0.00    -0.038 A 
HETATM   24  C   UNL     1      43.050 -15.539   3.466  1.00  0.00     0.048 A 
HETATM   25  C   UNL     1      43.368 -16.875   3.335  1.00  0.00     0.105 A 
HETATM   26  C   UNL     1      43.804 -17.626   4.401  1.00  0.00     0.105 A 
HETATM   27  O   UNL     1      43.292 -17.601   2.187  1.00  0.00    -0.323 OA
HETATM   28  O   UNL     1      44.055 -18.919   4.059  1.00  0.00    -0.323 OA
HETATM   29  C   UNL     1      43.952 -17.086   5.658  1.00  0.00     0.040 A 
HETATM   30  C   UNL     1      43.735 -18.893   2.652  1.00  0.00     0.352 A 
HETATM   31  C   UNL     1      43.639 -15.733   5.821  1.00  0.00     0.012 A 
ENDBRANCH  22  23
ENDBRANCH  19  22
ENDBRANCH  17  18
ENDBRANCH   1  17
TORSDOF 7
ENDMDL
MODEL 5
REMARK VINA RESULT:      -8.1      1.277      1.924
REMARK  7 active torsions:
REMARK  status: ('A' for Active; 'I' for Inactive)
REMARK    1  A    between atoms: C_2  and  C_3 
REMARK       I    between atoms: C_3  and  N_4 
REMARK    2  A    between atoms: N_4  and  N_5 
REMARK       I    between atoms: N_5  and  C_6 
REMARK    3  A    between atoms: C_6  and  C_7 
REMARK    4  A    between atoms: C_7  and  C_8 
REMARK    5  A    between atoms: C_8  and  C_9 
REMARK       I    between atoms: C_9  and  N_10 
REMARK    6  A    between atoms: N_10  and  C_11 
REMARK    7  A    between atoms: C_11  and  C_12 
ROOT
HETATM    1  C   UNL     1      45.927 -10.585   7.044  1.00  0.00     0.114 C 
ENDROOT
BRANCH   1   2
HETATM    2  C   UNL     1      45.445  -9.759   8.212  1.00  0.00     0.236 C 
HETATM    3  N   UNL     1      44.562 -10.396   9.051  1.00  0.00    -0.267 N 
HETATM    4  H   UNL     1      44.082 -11.263   8.805  1.00  0.00     0.190 HD
HETATM    5  O   UNL     1      45.779  -8.583   8.360  1.00  0.00    -0.272 OA
BRANCH   3   6
HETATM    6  N   UNL     1      43.975  -9.644  10.076  1.00  0.00    -0.263 N 
HETATM    7  C   UNL     1      43.729 -10.273  11.280  1.00  0.00     0.270 C 
HETATM    8  O   UNL     1      44.041 -11.443  11.487  1.00  0.00    -0.266 OA
HETATM    9  H   UNL     1      43.511  -8.783   9.790  1.00  0.00     0.190 HD
BRANCH   7  10
HETATM   10  C   UNL     1      43.044  -9.464  12.328  1.00  0.00     0.033 A 
HETATM   11  C   UNL     1      43.545  -8.186  12.616  1.00  0.00     0.018 A 
HETATM   12  C   UNL     1      42.919  -7.381  13.572  1.00  0.00     0.020 A 
HETATM   13  C   UNL     1      41.786  -7.850  14.235  1.00  0.00     0.011 A 
HETATM   14  C   UNL     1      41.272  -9.114  13.948  1.00  0.00     0.020 A 
HETATM   15 BR   UNL     1      40.930  -6.760  15.519  1.00  0.00    -0.051 Br
HETATM   16  C   UNL     1      41.897  -9.921  12.992  1.00  0.00     0.018 A 
ENDBRANCH   7  10
ENDBRANCH   3   6
ENDBRANCH   1   2
BRANCH   1  17
HETATM   17  C   UNL     1      45.076 -11.838   6.906  1.00  0.00     0.112 C 
BRANCH  17  18
HETATM   18  C   UNL     1      44.129 -11.769   5.724  1.00  0.00     0.218 C 
HETATM   19  N   UNL     1      42.947 -12.444   5.896  1.00  0.00    -0.357 N 
HETATM   20  H   UNL     1      42.637 -12.679   6.838  1.00  0.00     0.162 HD
HETATM   21  O   UNL     1      44.436 -11.196   4.683  1.00  0.00    -0.274 OA
BRANCH  19  22
HETATM   22  C   UNL     1      41.942 -12.494   4.861  1.00  0.00     0.161 C 
BRANCH  22  23
HETATM   23  C   UNL     1      41.936 -13.854   4.210  1.00  0.00    -0.038 A 
HETATM   24  C   UNL     1      42.957 -14.779   4.472  1.00  0.00     0.048 A 
HETATM   25  C   UNL     1      42.911 -15.997   3.824  1.00  0.00     0.105 A 
HETATM   26  C   UNL     1      41.903 -16.313   2.943  1.00  0.00     0.105 A 
HETATM   27  O   UNL     1      43.817 -17.003   3.958  1.00  0.00    -0.323 OA
HETATM   28  O   UNL     1      42.050 -17.556   2.410  1.00  0.00    -0.323 OA
HETATM   29  C   UNL     1      40.883 -15.434   2.661  1.00  0.00     0.040 A 
HETATM   30  C   UNL     1      43.261 -17.989   3.064  1.00  0.00     0.352 A 
HETATM   31  C   UNL     1      40.901 -14.193   3.304  1.00  0.00     0.012 A 
ENDBRANCH  22  23
ENDBRANCH  19  22
ENDBRANCH  17  18
ENDBRANCH   1  17
TORSDOF 7
ENDMDL
MODEL 6
REMARK VINA RESULT:      -8.1      4.174     11.089
REMARK  7 active torsions:
REMARK  status: ('A' for Active; 'I' for Inactive)
REMARK    1  A    between atoms: C_2  and  C_3 
REMARK       I    between atoms: C_3  and  N_4 
REMARK    2  A    between atoms: N_4  and  N_5 
REMARK       I    between atoms: N_5  and  C_6 
REMARK    3  A    between atoms: C_6  and  C_7 
REMARK    4  A    between atoms: C_7  and  C_8 
REMARK    5  A    between atoms: C_8  and  C_9 
REMARK       I    between atoms: C_9  and  N_10 
REMARK    6  A    between atoms: N_10  and  C_11 
REMARK    7  A    between atoms: C_11  and  C_12 
ROOT
HETATM    1  C   UNL     1      43.688 -10.927   7.696  1.00  0.00     0.114 C 
ENDROOT
BRANCH   1   2
HETATM    2  C   UNL     1      43.986 -12.201   6.943  1.00  0.00     0.236 C 
HETATM    3  N   UNL     1      42.894 -12.994   6.685  1.00  0.00    -0.267 N 
HETATM    4  H   UNL     1      41.992 -12.873   7.147  1.00  0.00     0.190 HD
HETATM    5  O   UNL     1      45.135 -12.523   6.640  1.00  0.00    -0.272 OA
BRANCH   3   6
HETATM    6  N   UNL     1      43.120 -14.251   6.109  1.00  0.00    -0.263 N 
HETATM    7  C   UNL     1      42.872 -14.397   4.759  1.00  0.00     0.270 C 
HETATM    8  O   UNL     1      42.502 -13.462   4.053  1.00  0.00    -0.266 OA
HETATM    9  H   UNL     1      43.176 -15.036   6.756  1.00  0.00     0.190 HD
BRANCH   7  10
HETATM   10  C   UNL     1      43.059 -15.762   4.191  1.00  0.00     0.033 A 
HETATM   11  C   UNL     1      42.760 -15.967   2.836  1.00  0.00     0.018 A 
HETATM   12  C   UNL     1      42.945 -17.224   2.254  1.00  0.00     0.020 A 
HETATM   13  C   UNL     1      43.437 -18.276   3.024  1.00  0.00     0.011 A 
HETATM   14  C   UNL     1      43.749 -18.082   4.370  1.00  0.00     0.020 A 
HETATM   15 BR   UNL     1      43.700 -19.974   2.237  1.00  0.00    -0.051 Br
HETATM   16  C   UNL     1      43.564 -16.825   4.954  1.00  0.00     0.018 A 
ENDBRANCH   7  10
ENDBRANCH   3   6
ENDBRANCH   1   2
BRANCH   1  17
HETATM   17  C   UNL     1      44.971 -10.139   7.915  1.00  0.00     0.112 C 
BRANCH  17  18
HETATM   18  C   UNL     1      44.722  -8.788   8.557  1.00  0.00     0.218 C 
HETATM   19  N   UNL     1      43.563  -8.703   9.284  1.00  0.00    -0.357 N 
HETATM   20  H   UNL     1      43.109  -9.557   9.605  1.00  0.00     0.162 HD
HETATM   21  O   UNL     1      45.484  -7.842   8.382  1.00  0.00    -0.274 OA
BRANCH  19  22
HETATM   22  C   UNL     1      43.168  -7.482   9.945  1.00  0.00     0.161 C 
BRANCH  22  23
HETATM   23  C   UNL     1      42.786  -7.767  11.375  1.00  0.00    -0.038 A 
HETATM   24  C   UNL     1      42.404  -6.729  12.237  1.00  0.00     0.048 A 
HETATM   25  C   UNL     1      42.093  -7.050  13.542  1.00  0.00     0.105 A 
HETATM   26  C   UNL     1      42.150  -8.344  14.005  1.00  0.00     0.105 A 
HETATM   27  O   UNL     1      41.710  -6.171  14.507  1.00  0.00    -0.323 OA
HETATM   28  O   UNL     1      41.813  -8.441  15.320  1.00  0.00    -0.323 OA
HETATM   29  C   UNL     1      42.517  -9.391  13.191  1.00  0.00     0.040 A 
HETATM   30  C   UNL     1      41.528  -7.060  15.628  1.00  0.00     0.352 A 
HETATM   31  C   UNL     1      42.835  -9.096  11.863  1.00  0.00     0.012 A 
ENDBRANCH  22  23
ENDBRANCH  19  22
ENDBRANCH  17  18
ENDBRANCH   1  17
TORSDOF 7
ENDMDL
MODEL 7
REMARK VINA RESULT:      -8.0      2.012      2.792
REMARK  7 active torsions:
REMARK  status: ('A' for Active; 'I' for Inactive)
REMARK    1  A    between atoms: C_2  and  C_3 
REMARK       I    between atoms: C_3  and  N_4 
REMARK    2  A    between atoms: N_4  and  N_5 
REMARK       I    between atoms: N_5  and  C_6 
REMARK    3  A    between atoms: C_6  and  C_7 
REMARK    4  A    between atoms: C_7  and  C_8 
REMARK    5  A    between atoms: C_8  and  C_9 
REMARK       I    between atoms: C_9  and  N_10 
REMARK    6  A    between atoms: N_10  and  C_11 
REMARK    7  A    between atoms: C_11  and  C_12 
ROOT
HETATM    1  C   UNL     1      39.549 -11.670   5.419  1.00  0.00     0.114 C 
ENDROOT
BRANCH   1   2
HETATM    2  C   UNL     1      39.664 -10.958   6.745  1.00  0.00     0.236 C 
HETATM    3  N   UNL     1      40.927 -10.513   7.059  1.00  0.00    -0.267 N 
HETATM    4  H   UNL     1      41.767 -10.823   6.571  1.00  0.00     0.190 HD
HETATM    5  O   UNL     1      38.704 -10.842   7.507  1.00  0.00    -0.272 OA
BRANCH   3   6
HETATM    6  N   UNL     1      41.128  -9.964   8.332  1.00  0.00    -0.263 N 
HETATM    7  C   UNL     1      42.327  -9.325   8.577  1.00  0.00     0.270 C 
HETATM    8  O   UNL     1      43.191  -9.193   7.714  1.00  0.00    -0.266 OA
HETATM    9  H   UNL     1      40.516 -10.309   9.070  1.00  0.00     0.190 HD
BRANCH   7  10
HETATM   10  C   UNL     1      42.537  -8.810   9.960  1.00  0.00     0.033 A 
HETATM   11  C   UNL     1      42.177  -7.483  10.239  1.00  0.00     0.018 A 
HETATM   12  C   UNL     1      42.332  -6.965  11.527  1.00  0.00     0.020 A 
HETATM   13  C   UNL     1      42.838  -7.776  12.541  1.00  0.00     0.011 A 
HETATM   14  C   UNL     1      43.188  -9.101  12.279  1.00  0.00     0.020 A 
HETATM   15 BR   UNL     1      43.037  -7.083  14.288  1.00  0.00    -0.051 Br
HETATM   16  C   UNL     1      43.035  -9.620  10.990  1.00  0.00     0.018 A 
ENDBRANCH   7  10
ENDBRANCH   3   6
ENDBRANCH   1   2
BRANCH   1  17
HETATM   17  C   UNL     1      40.040 -13.103   5.553  1.00  0.00     0.112 C 
BRANCH  17  18
HETATM   18  C   UNL     1      41.447 -13.288   5.017  1.00  0.00     0.218 C 
HETATM   19  N   UNL     1      41.550 -14.158   3.962  1.00  0.00    -0.357 N 
HETATM   20  H   UNL     1      40.719 -14.385   3.418  1.00  0.00     0.162 HD
HETATM   21  O   UNL     1      42.412 -12.734   5.536  1.00  0.00    -0.274 OA
BRANCH  19  22
HETATM   22  C   UNL     1      42.820 -14.459   3.347  1.00  0.00     0.161 C 
BRANCH  22  23
HETATM   23  C   UNL     1      43.096 -15.940   3.428  1.00  0.00    -0.038 A 
HETATM   24  C   UNL     1      43.332 -16.559   4.664  1.00  0.00     0.048 A 
HETATM   25  C   UNL     1      43.606 -17.911   4.670  1.00  0.00     0.105 A 
HETATM   26  C   UNL     1      43.653 -18.648   3.510  1.00  0.00     0.105 A 
HETATM   27  O   UNL     1      43.861 -18.665   5.774  1.00  0.00    -0.323 OA
HETATM   28  O   UNL     1      43.946 -19.957   3.737  1.00  0.00    -0.323 OA
HETATM   29  C   UNL     1      43.426 -18.078   2.278  1.00  0.00     0.040 A 
HETATM   30  C   UNL     1      44.069 -19.961   5.175  1.00  0.00     0.352 A 
HETATM   31  C   UNL     1      43.143 -16.710   2.241  1.00  0.00     0.012 A 
ENDBRANCH  22  23
ENDBRANCH  19  22
ENDBRANCH  17  18
ENDBRANCH   1  17
TORSDOF 7
ENDMDL
MODEL 8
REMARK VINA RESULT:      -8.0      3.862      5.627
REMARK  7 active torsions:
REMARK  status: ('A' for Active; 'I' for Inactive)
REMARK    1  A    between atoms: C_2  and  C_3 
REMARK       I    between atoms: C_3  and  N_4 
REMARK    2  A    between atoms: N_4  and  N_5 
REMARK       I    between atoms: N_5  and  C_6 
REMARK    3  A    between atoms: C_6  and  C_7 
REMARK    4  A    between atoms: C_7  and  C_8 
REMARK    5  A    between atoms: C_8  and  C_9 
REMARK       I    between atoms: C_9  and  N_10 
REMARK    6  A    between atoms: N_10  and  C_11 
REMARK    7  A    between atoms: C_11  and  C_12 
ROOT
HETATM    1  C   UNL     1      39.619 -12.673   1.492  1.00  0.00     0.114 C 
ENDROOT
BRANCH   1   2
HETATM    2  C   UNL     1      40.064 -12.204   2.856  1.00  0.00     0.236 C 
HETATM    3  N   UNL     1      41.280 -11.563   2.883  1.00  0.00    -0.267 N 
HETATM    4  H   UNL     1      41.946 -11.593   2.111  1.00  0.00     0.190 HD
HETATM    5  O   UNL     1      39.406 -12.436   3.870  1.00  0.00    -0.272 OA
BRANCH   3   6
HETATM    6  N   UNL     1      41.811 -11.222   4.134  1.00  0.00    -0.263 N 
HETATM    7  C   UNL     1      43.172 -11.364   4.319  1.00  0.00     0.270 C 
HETATM    8  O   UNL     1      43.922 -11.739   3.421  1.00  0.00    -0.266 OA
HETATM    9  H   UNL     1      41.145 -11.165   4.903  1.00  0.00     0.190 HD
BRANCH   7  10
HETATM   10  C   UNL     1      43.695 -11.056   5.680  1.00  0.00     0.033 A 
HETATM   11  C   UNL     1      42.829 -10.459   6.607  1.00  0.00     0.018 A 
HETATM   12  C   UNL     1      43.269 -10.175   7.903  1.00  0.00     0.020 A 
HETATM   13  C   UNL     1      44.573 -10.497   8.276  1.00  0.00     0.011 A 
HETATM   14  C   UNL     1      45.440 -11.102   7.366  1.00  0.00     0.020 A 
HETATM   15 BR   UNL     1      45.166 -10.127  10.031  1.00  0.00    -0.051 Br
HETATM   16  C   UNL     1      45.002 -11.385   6.068  1.00  0.00     0.018 A 
ENDBRANCH   7  10
ENDBRANCH   3   6
ENDBRANCH   1   2
BRANCH   1  17
HETATM   17  C   UNL     1      40.823 -13.117   0.676  1.00  0.00     0.112 C 
BRANCH  17  18
HETATM   18  C   UNL     1      41.257 -14.533   1.002  1.00  0.00     0.218 C 
HETATM   19  N   UNL     1      42.572 -14.661   1.369  1.00  0.00    -0.357 N 
HETATM   20  H   UNL     1      43.084 -13.840   1.689  1.00  0.00     0.162 HD
HETATM   21  O   UNL     1      40.490 -15.485   0.888  1.00  0.00    -0.274 OA
BRANCH  19  22
HETATM   22  C   UNL     1      43.150 -15.943   1.695  1.00  0.00     0.161 C 
BRANCH  22  23
HETATM   23  C   UNL     1      43.192 -16.127   3.191  1.00  0.00    -0.038 A 
HETATM   24  C   UNL     1      42.872 -15.068   4.053  1.00  0.00     0.048 A 
HETATM   25  C   UNL     1      42.957 -15.290   5.412  1.00  0.00     0.105 A 
HETATM   26  C   UNL     1      43.341 -16.506   5.927  1.00  0.00     0.105 A 
HETATM   27  O   UNL     1      42.688 -14.377   6.385  1.00  0.00    -0.323 OA
HETATM   28  O   UNL     1      43.366 -16.511   7.287  1.00  0.00    -0.323 OA
HETATM   29  C   UNL     1      43.661 -17.570   5.115  1.00  0.00     0.040 A 
HETATM   30  C   UNL     1      42.943 -15.160   7.570  1.00  0.00     0.352 A 
HETATM   31  C   UNL     1      43.582 -17.376   3.733  1.00  0.00     0.012 A 
ENDBRANCH  22  23
ENDBRANCH  19  22
ENDBRANCH  17  18
ENDBRANCH   1  17
TORSDOF 7
ENDMDL
MODEL 9
REMARK VINA RESULT:      -7.8      5.355     12.540
REMARK  7 active torsions:
REMARK  status: ('A' for Active; 'I' for Inactive)
REMARK    1  A    between atoms: C_2  and  C_3 
REMARK       I    between atoms: C_3  and  N_4 
REMARK    2  A    between atoms: N_4  and  N_5 
REMARK       I    between atoms: N_5  and  C_6 
REMARK    3  A    between atoms: C_6  and  C_7 
REMARK    4  A    between atoms: C_7  and  C_8 
REMARK    5  A    between atoms: C_8  and  C_9 
REMARK       I    between atoms: C_9  and  N_10 
REMARK    6  A    between atoms: N_10  and  C_11 
REMARK    7  A    between atoms: C_11  and  C_12 
ROOT
HETATM    1  C   UNL     1      42.559  -8.878  13.825  1.00  0.00     0.114 C 
ENDROOT
BRANCH   1   2
HETATM    2  C   UNL     1      42.372  -9.222  12.367  1.00  0.00     0.236 C 
HETATM    3  N   UNL     1      42.976 -10.388  11.962  1.00  0.00    -0.267 N 
HETATM    4  H   UNL     1      43.682 -10.875  12.515  1.00  0.00     0.190 HD
HETATM    5  O   UNL     1      41.771  -8.475  11.595  1.00  0.00    -0.272 OA
BRANCH   3   6
HETATM    6  N   UNL     1      42.953 -10.695  10.595  1.00  0.00    -0.263 N 
HETATM    7  C   UNL     1      44.051 -10.342   9.835  1.00  0.00     0.270 C 
HETATM    8  O   UNL     1      45.045  -9.810  10.323  1.00  0.00    -0.266 OA
HETATM    9  H   UNL     1      42.038 -10.894  10.196  1.00  0.00     0.190 HD
BRANCH   7  10
HETATM   10  C   UNL     1      43.968 -10.622   8.374  1.00  0.00     0.033 A 
HETATM   11  C   UNL     1      45.029 -11.308   7.766  1.00  0.00     0.018 A 
HETATM   12  C   UNL     1      44.983 -11.616   6.403  1.00  0.00     0.020 A 
HETATM   13  C   UNL     1      43.872 -11.245   5.649  1.00  0.00     0.011 A 
HETATM   14  C   UNL     1      42.805 -10.572   6.245  1.00  0.00     0.020 A 
HETATM   15 BR   UNL     1      43.800 -11.670   3.809  1.00  0.00    -0.051 Br
HETATM   16  C   UNL     1      42.850 -10.263   7.608  1.00  0.00     0.018 A 
ENDBRANCH   7  10
ENDBRANCH   3   6
ENDBRANCH   1   2
BRANCH   1  17
HETATM   17  C   UNL     1      42.913  -7.406  13.972  1.00  0.00     0.112 C 
BRANCH  17  18
HETATM   18  C   UNL     1      42.050  -6.700  15.000  1.00  0.00     0.218 C 
HETATM   19  N   UNL     1      42.592  -6.637  16.258  1.00  0.00    -0.357 N 
HETATM   20  H   UNL     1      43.595  -6.770  16.378  1.00  0.00     0.162 HD
HETATM   21  O   UNL     1      40.934  -6.273  14.721  1.00  0.00    -0.274 OA
BRANCH  19  22
HETATM   22  C   UNL     1      41.893  -6.015  17.357  1.00  0.00     0.161 C 
BRANCH  22  23
HETATM   23  C   UNL     1      41.343  -7.068  18.285  1.00  0.00    -0.038 A 
HETATM   24  C   UNL     1      42.183  -7.743  19.183  1.00  0.00     0.048 A 
HETATM   25  C   UNL     1      41.626  -8.716  19.986  1.00  0.00     0.105 A 
HETATM   26  C   UNL     1      40.289  -9.032  19.923  1.00  0.00     0.105 A 
HETATM   27  O   UNL     1      42.293  -9.466  20.905  1.00  0.00    -0.323 OA
HETATM   28  O   UNL     1      39.947 -10.022  20.792  1.00  0.00    -0.323 OA
HETATM   29  C   UNL     1      39.432  -8.392  19.058  1.00  0.00     0.040 A 
HETATM   30  C   UNL     1      41.221 -10.286  21.415  1.00  0.00     0.352 A 
HETATM   31  C   UNL     1      39.967  -7.399  18.233  1.00  0.00     0.012 A 
ENDBRANCH  22  23
ENDBRANCH  19  22
ENDBRANCH  17  18
ENDBRANCH   1  17
TORSDOF 7
ENDMDL
MODEL 10
REMARK VINA RESULT:      -7.7      4.327     10.351
REMARK  7 active torsions:
REMARK  status: ('A' for Active; 'I' for Inactive)
REMARK    1  A    between atoms: C_2  and  C_3 
REMARK       I    between atoms: C_3  and  N_4 
REMARK    2  A    between atoms: N_4  and  N_5 
REMARK       I    between atoms: N_5  and  C_6 
REMARK    3  A    between atoms: C_6  and  C_7 
REMARK    4  A    between atoms: C_7  and  C_8 
REMARK    5  A    between atoms: C_8  and  C_9 
REMARK       I    between atoms: C_9  and  N_10 
REMARK    6  A    between atoms: N_10  and  C_11 
REMARK    7  A    between atoms: C_11  and  C_12 
ROOT
HETATM    1  C   UNL     1      39.942 -11.723   6.574  1.00  0.00     0.114 C 
ENDROOT
BRANCH   1   2
HETATM    2  C   UNL     1      40.270 -13.102   6.055  1.00  0.00     0.236 C 
HETATM    3  N   UNL     1      41.241 -13.144   5.083  1.00  0.00    -0.267 N 
HETATM    4  H   UNL     1      41.561 -12.318   4.577  1.00  0.00     0.190 HD
HETATM    5  O   UNL     1      39.664 -14.103   6.441  1.00  0.00    -0.272 OA
BRANCH   3   6
HETATM    6  N   UNL     1      41.496 -14.375   4.467  1.00  0.00    -0.263 N 
HETATM    7  C   UNL     1      42.662 -15.035   4.801  1.00  0.00     0.270 C 
HETATM    8  O   UNL     1      43.449 -14.599   5.638  1.00  0.00    -0.266 OA
HETATM    9  H   UNL     1      40.967 -14.570   3.619  1.00  0.00     0.190 HD
BRANCH   7  10
HETATM   10  C   UNL     1      42.937 -16.310   4.079  1.00  0.00     0.033 A 
HETATM   11  C   UNL     1      43.756 -17.264   4.699  1.00  0.00     0.018 A 
HETATM   12  C   UNL     1      44.020 -18.484   4.071  1.00  0.00     0.020 A 
HETATM   13  C   UNL     1      43.457 -18.755   2.825  1.00  0.00     0.011 A 
HETATM   14  C   UNL     1      42.631 -17.819   2.204  1.00  0.00     0.020 A 
HETATM   15 BR   UNL     1      43.801 -20.409   1.979  1.00  0.00    -0.051 Br
HETATM   16  C   UNL     1      42.367 -16.597   2.830  1.00  0.00     0.018 A 
ENDBRANCH   7  10
ENDBRANCH   3   6
ENDBRANCH   1   2
BRANCH   1  17
HETATM   17  C   UNL     1      40.335 -10.673   5.546  1.00  0.00     0.112 C 
BRANCH  17  18
HETATM   18  C   UNL     1      41.398  -9.723   6.062  1.00  0.00     0.218 C 
HETATM   19  N   UNL     1      41.806  -9.962   7.349  1.00  0.00    -0.357 N 
HETATM   20  H   UNL     1      41.633 -10.875   7.767  1.00  0.00     0.162 HD
HETATM   21  O   UNL     1      41.809  -8.785   5.384  1.00  0.00    -0.274 OA
BRANCH  19  22
HETATM   22  C   UNL     1      42.798  -9.138   7.998  1.00  0.00     0.161 C 
BRANCH  22  23
HETATM   23  C   UNL     1      42.620  -9.195   9.494  1.00  0.00    -0.038 A 
HETATM   24  C   UNL     1      41.368  -9.483  10.058  1.00  0.00     0.048 A 
HETATM   25  C   UNL     1      41.262  -9.493  11.433  1.00  0.00     0.105 A 
HETATM   26  C   UNL     1      42.340  -9.229  12.246  1.00  0.00     0.105 A 
HETATM   27  O   UNL     1      40.129  -9.748  12.141  1.00  0.00    -0.323 OA
HETATM   28  O   UNL     1      42.019  -9.282  13.568  1.00  0.00    -0.323 OA
HETATM   29  C   UNL     1      43.584  -8.945  11.733  1.00  0.00     0.040 A 
HETATM   30  C   UNL     1      40.618  -9.619  13.492  1.00  0.00     0.352 A 
HETATM   31  C   UNL     1      43.723  -8.930  10.343  1.00  0.00     0.012 A 
ENDBRANCH  22  23
ENDBRANCH  19  22
ENDBRANCH  17  18
ENDBRANCH   1  17
TORSDOF 7
ENDMDL
