MODEL 1
REMARK VINA RESULT:      -8.4      0.000      0.000
REMARK  8 active torsions:
REMARK  status: ('A' for Active; 'I' for Inactive)
REMARK    1  A    between atoms: C_4  and  N_5 
REMARK       I    between atoms: N_5  and  C_6 
REMARK    2  A    between atoms: C_6  and  C_7 
REMARK    3  A    between atoms: C_7  and  N_8 
REMARK    4  A    between atoms: N_8  and  C_10 
REMARK    5  A    between atoms: N_8  and  C_13 
REMARK    6  A    between atoms: C_13  and  C_14 
REMARK    7  A    between atoms: C_16  and  C_17 
REMARK    8  A    between atoms: C_27  and  O_28 
ROOT
HETATM    1  N   UNL     1      39.549 -14.145   0.550  1.00  0.00    -0.055 N 
HETATM    2  H   UNL     1      38.527 -14.018   0.492  1.00  0.00     0.281 HD
ENDROOT
BRANCH   1   3
HETATM    3  C   UNL     1      40.026 -12.847   1.240  1.00  0.00     0.338 C 
BRANCH   3   4
HETATM    4  C   UNL     1      39.109 -12.434   2.394  1.00  0.00     0.248 C 
HETATM    5  N   UNL     1      39.594 -12.435   3.667  1.00  0.00    -0.323 N 
HETATM    6  H   UNL     1      39.096 -11.829   4.318  1.00  0.00     0.169 HD
HETATM    7  O   UNL     1      37.981 -11.997   2.150  1.00  0.00    -0.271 OA
BRANCH   5   8
HETATM    8  C   UNL     1      40.703 -13.103   4.222  1.00  0.00     0.069 A 
HETATM    9  C   UNL     1      40.607 -14.382   4.782  1.00  0.00     0.039 A 
HETATM   10  C   UNL     1      41.724 -14.983   5.376  1.00  0.00    -0.060 A 
HETATM   11  C   UNL     1      41.608 -16.315   6.059  1.00  0.00     0.048 C 
HETATM   12  C   UNL     1      42.933 -14.281   5.418  1.00  0.00     0.009 A 
HETATM   13  C   UNL     1      43.032 -12.995   4.878  1.00  0.00     0.039 A 
HETATM   14  C   UNL     1      41.920 -12.395   4.287  1.00  0.00     0.095 A 
BRANCH  14  15
HETATM   15  O   UNL     1      41.904 -11.141   3.726  1.00  0.00    -0.354 OA
HETATM   16  C   UNL     1      42.133 -10.040   4.601  1.00  0.00     0.210 C 
ENDBRANCH  14  15
ENDBRANCH   5   8
ENDBRANCH   3   4
ENDBRANCH   1   3
BRANCH   1  17
HETATM   17  C   UNL     1      39.985 -14.221  -0.892  1.00  0.00     0.189 A 
HETATM   18  C   UNL     1      38.939 -14.519  -1.930  1.00  0.00     0.035 A 
HETATM   19  C   UNL     1      39.601 -13.173  -1.897  1.00  0.00     0.035 A 
ENDBRANCH   1  17
BRANCH   1  20
HETATM   20  C   UNL     1      39.783 -15.381   1.375  1.00  0.00     0.274 C 
BRANCH  20  21
HETATM   21  C   UNL     1      41.232 -15.672   1.665  1.00  0.00    -0.032 A 
HETATM   22  C   UNL     1      41.620 -16.921   2.182  1.00  0.00     0.021 A 
HETATM   23  C   UNL     1      42.968 -17.217   2.458  1.00  0.00    -0.024 A 
HETATM   24  C   UNL     1      43.923 -16.220   2.210  1.00  0.00     0.012 A 
HETATM   25  C   UNL     1      43.553 -14.975   1.698  1.00  0.00     0.001 A 
HETATM   26  C   UNL     1      42.214 -14.702   1.424  1.00  0.00     0.009 A 
BRANCH  23  27
HETATM   27  C   UNL     1      43.362 -18.534   2.982  1.00  0.00    -0.008 A 
HETATM   28  C   UNL     1      43.279 -19.692   2.206  1.00  0.00     0.128 A 
HETATM   29  N   UNL     1      43.601 -20.935   2.633  1.00  0.00    -0.272 NA
HETATM   30  C   UNL     1      44.056 -21.044   3.897  1.00  0.00     0.116 A 
HETATM   31  C   UNL     1      44.194 -19.967   4.754  1.00  0.00     0.020 A 
HETATM   32  C   UNL     1      43.839 -18.701   4.289  1.00  0.00     0.015 A 
ENDBRANCH  23  27
ENDBRANCH  20  21
ENDBRANCH   1  20
TORSDOF 8
ENDMDL
MODEL 2
REMARK VINA RESULT:      -8.1      1.749      4.567
REMARK  8 active torsions:
REMARK  status: ('A' for Active; 'I' for Inactive)
REMARK    1  A    between atoms: C_4  and  N_5 
REMARK       I    between atoms: N_5  and  C_6 
REMARK    2  A    between atoms: C_6  and  C_7 
REMARK    3  A    between atoms: C_7  and  N_8 
REMARK    4  A    between atoms: N_8  and  C_10 
REMARK    5  A    between atoms: N_8  and  C_13 
REMARK    6  A    between atoms: C_13  and  C_14 
REMARK    7  A    between atoms: C_16  and  C_17 
REMARK    8  A    between atoms: C_27  and  O_28 
ROOT
HETATM    1  N   UNL     1      42.435 -12.526   5.407  1.00  0.00    -0.055 N 
HETATM    2  H   UNL     1      43.120 -12.369   4.652  1.00  0.00     0.281 HD
ENDROOT
BRANCH   1   3
HETATM    3  C   UNL     1      41.282 -11.563   5.041  1.00  0.00     0.338 C 
BRANCH   3   4
HETATM    4  C   UNL     1      39.915 -12.114   5.455  1.00  0.00     0.248 C 
HETATM    5  N   UNL     1      39.143 -12.752   4.532  1.00  0.00    -0.323 N 
HETATM    6  H   UNL     1      38.452 -13.395   4.917  1.00  0.00     0.169 HD
HETATM    7  O   UNL     1      39.576 -12.078   6.642  1.00  0.00    -0.271 OA
BRANCH   5   8
HETATM    8  C   UNL     1      39.174 -12.703   3.124  1.00  0.00     0.069 A 
HETATM    9  C   UNL     1      39.658 -13.761   2.346  1.00  0.00     0.039 A 
HETATM   10  C   UNL     1      39.724 -13.644   0.952  1.00  0.00    -0.060 A 
HETATM   11  C   UNL     1      40.327 -14.739   0.117  1.00  0.00     0.048 C 
HETATM   12  C   UNL     1      39.318 -12.450   0.348  1.00  0.00     0.009 A 
HETATM   13  C   UNL     1      38.852 -11.382   1.120  1.00  0.00     0.039 A 
HETATM   14  C   UNL     1      38.785 -11.497   2.508  1.00  0.00     0.095 A 
BRANCH  14  15
HETATM   15  O   UNL     1      38.344 -10.514   3.362  1.00  0.00    -0.354 OA
HETATM   16  C   UNL     1      38.918  -9.220   3.207  1.00  0.00     0.210 C 
ENDBRANCH  14  15
ENDBRANCH   5   8
ENDBRANCH   3   4
ENDBRANCH   1   3
BRANCH   1  17
HETATM   17  C   UNL     1      43.166 -12.096   6.653  1.00  0.00     0.189 A 
HETATM   18  C   UNL     1      44.668 -12.180   6.655  1.00  0.00     0.035 A 
HETATM   19  C   UNL     1      43.992 -10.841   6.700  1.00  0.00     0.035 A 
ENDBRANCH   1  17
BRANCH   1  20
HETATM   20  C   UNL     1      42.045 -13.977   5.341  1.00  0.00     0.274 C 
BRANCH  20  21
HETATM   21  C   UNL     1      42.600 -14.719   4.154  1.00  0.00    -0.032 A 
HETATM   22  C   UNL     1      42.801 -16.110   4.211  1.00  0.00     0.021 A 
HETATM   23  C   UNL     1      43.316 -16.825   3.114  1.00  0.00    -0.024 A 
HETATM   24  C   UNL     1      43.637 -16.105   1.953  1.00  0.00     0.012 A 
HETATM   25  C   UNL     1      43.444 -14.724   1.883  1.00  0.00     0.001 A 
HETATM   26  C   UNL     1      42.927 -14.034   2.976  1.00  0.00     0.009 A 
BRANCH  23  27
HETATM   27  C   UNL     1      43.504 -18.282   3.181  1.00  0.00    -0.008 A 
HETATM   28  C   UNL     1      44.012 -18.910   4.321  1.00  0.00     0.128 A 
HETATM   29  N   UNL     1      44.233 -20.240   4.441  1.00  0.00    -0.272 NA
HETATM   30  C   UNL     1      43.912 -21.006   3.379  1.00  0.00     0.116 A 
HETATM   31  C   UNL     1      43.389 -20.499   2.203  1.00  0.00     0.020 A 
HETATM   32  C   UNL     1      43.187 -19.123   2.106  1.00  0.00     0.015 A 
ENDBRANCH  23  27
ENDBRANCH  20  21
ENDBRANCH   1  20
TORSDOF 8
ENDMDL
MODEL 3
REMARK VINA RESULT:      -8.0      1.843      4.947
REMARK  8 active torsions:
REMARK  status: ('A' for Active; 'I' for Inactive)
REMARK    1  A    between atoms: C_4  and  N_5 
REMARK       I    between atoms: N_5  and  C_6 
REMARK    2  A    between atoms: C_6  and  C_7 
REMARK    3  A    between atoms: C_7  and  N_8 
REMARK    4  A    between atoms: N_8  and  C_10 
REMARK    5  A    between atoms: N_8  and  C_13 
REMARK    6  A    between atoms: C_13  and  C_14 
REMARK    7  A    between atoms: C_16  and  C_17 
REMARK    8  A    between atoms: C_27  and  O_28 
ROOT
HETATM    1  N   UNL     1      42.430 -12.490   5.539  1.00  0.00    -0.055 N 
HETATM    2  H   UNL     1      42.973 -12.281   4.687  1.00  0.00     0.281 HD
ENDROOT
BRANCH   1   3
HETATM    3  C   UNL     1      41.155 -11.634   5.362  1.00  0.00     0.338 C 
BRANCH   3   4
HETATM    4  C   UNL     1      39.878 -12.472   5.460  1.00  0.00     0.248 C 
HETATM    5  N   UNL     1      39.308 -12.958   4.322  1.00  0.00    -0.323 N 
HETATM    6  H   UNL     1      38.713 -13.775   4.453  1.00  0.00     0.169 HD
HETATM    7  O   UNL     1      39.443 -12.795   6.569  1.00  0.00    -0.271 OA
BRANCH   5   8
HETATM    8  C   UNL     1      39.444 -12.543   2.983  1.00  0.00     0.069 A 
HETATM    9  C   UNL     1      39.328 -11.204   2.595  1.00  0.00     0.039 A 
HETATM   10  C   UNL     1      39.412 -10.846   1.243  1.00  0.00    -0.060 A 
HETATM   11  C   UNL     1      39.196  -9.424   0.810  1.00  0.00     0.048 C 
HETATM   12  C   UNL     1      39.596 -11.846   0.284  1.00  0.00     0.009 A 
HETATM   13  C   UNL     1      39.695 -13.189   0.662  1.00  0.00     0.039 A 
HETATM   14  C   UNL     1      39.611 -13.547   2.007  1.00  0.00     0.095 A 
BRANCH  14  15
HETATM   15  O   UNL     1      39.695 -14.831   2.490  1.00  0.00    -0.354 OA
HETATM   16  C   UNL     1      39.923 -15.864   1.536  1.00  0.00     0.210 C 
ENDBRANCH  14  15
ENDBRANCH   5   8
ENDBRANCH   3   4
ENDBRANCH   1   3
BRANCH   1  17
HETATM   17  C   UNL     1      43.307 -11.987   6.658  1.00  0.00     0.189 A 
HETATM   18  C   UNL     1      44.657 -11.429   6.300  1.00  0.00     0.035 A 
HETATM   19  C   UNL     1      43.594 -10.525   6.851  1.00  0.00     0.035 A 
ENDBRANCH   1  17
BRANCH   1  20
HETATM   20  C   UNL     1      42.162 -13.970   5.527  1.00  0.00     0.274 C 
BRANCH  20  21
HETATM   21  C   UNL     1      42.660 -14.685   4.299  1.00  0.00    -0.032 A 
HETATM   22  C   UNL     1      42.852 -16.078   4.311  1.00  0.00     0.021 A 
HETATM   23  C   UNL     1      43.314 -16.767   3.175  1.00  0.00    -0.024 A 
HETATM   24  C   UNL     1      43.590 -16.019   2.020  1.00  0.00     0.012 A 
HETATM   25  C   UNL     1      43.405 -14.636   1.993  1.00  0.00     0.001 A 
HETATM   26  C   UNL     1      42.941 -13.971   3.126  1.00  0.00     0.009 A 
BRANCH  23  27
HETATM   27  C   UNL     1      43.493 -18.227   3.196  1.00  0.00    -0.008 A 
HETATM   28  C   UNL     1      43.990 -18.894   4.318  1.00  0.00     0.128 A 
HETATM   29  N   UNL     1      44.202 -20.228   4.396  1.00  0.00    -0.272 NA
HETATM   30  C   UNL     1      43.883 -20.958   3.308  1.00  0.00     0.116 A 
HETATM   31  C   UNL     1      43.370 -20.410   2.145  1.00  0.00     0.020 A 
HETATM   32  C   UNL     1      43.177 -19.030   2.092  1.00  0.00     0.015 A 
ENDBRANCH  23  27
ENDBRANCH  20  21
ENDBRANCH   1  20
TORSDOF 8
ENDMDL
MODEL 4
REMARK VINA RESULT:      -7.9      4.217      8.364
REMARK  8 active torsions:
REMARK  status: ('A' for Active; 'I' for Inactive)
REMARK    1  A    between atoms: C_4  and  N_5 
REMARK       I    between atoms: N_5  and  C_6 
REMARK    2  A    between atoms: C_6  and  C_7 
REMARK    3  A    between atoms: C_7  and  N_8 
REMARK    4  A    between atoms: N_8  and  C_10 
REMARK    5  A    between atoms: N_8  and  C_13 
REMARK    6  A    between atoms: C_13  and  C_14 
REMARK    7  A    between atoms: C_16  and  C_17 
REMARK    8  A    between atoms: C_27  and  O_28 
ROOT
HETATM    1  N   UNL     1      43.463 -13.042   6.369  1.00  0.00    -0.055 N 
HETATM    2  H   UNL     1      42.971 -12.763   7.232  1.00  0.00     0.281 HD
ENDROOT
BRANCH   1   3
HETATM    3  C   UNL     1      42.605 -12.404   5.253  1.00  0.00     0.338 C 
BRANCH   3   4
HETATM    4  C   UNL     1      43.407 -12.166   3.971  1.00  0.00     0.248 C 
HETATM    5  N   UNL     1      43.162 -12.939   2.876  1.00  0.00    -0.323 N 
HETATM    6  H   UNL     1      43.434 -12.523   1.986  1.00  0.00     0.169 HD
HETATM    7  O   UNL     1      44.182 -11.207   3.905  1.00  0.00    -0.271 OA
BRANCH   5   8
HETATM    8  C   UNL     1      42.551 -14.203   2.768  1.00  0.00     0.069 A 
HETATM    9  C   UNL     1      43.277 -15.398   2.834  1.00  0.00     0.039 A 
HETATM   10  C   UNL     1      42.634 -16.630   2.662  1.00  0.00    -0.060 A 
HETATM   11  C   UNL     1      43.420 -17.910   2.641  1.00  0.00     0.048 C 
HETATM   12  C   UNL     1      41.260 -16.651   2.405  1.00  0.00     0.009 A 
HETATM   13  C   UNL     1      40.531 -15.462   2.318  1.00  0.00     0.039 A 
HETATM   14  C   UNL     1      41.170 -14.234   2.489  1.00  0.00     0.095 A 
BRANCH  14  15
HETATM   15  O   UNL     1      40.554 -13.007   2.426  1.00  0.00    -0.354 OA
HETATM   16  C   UNL     1      39.385 -12.831   3.222  1.00  0.00     0.210 C 
ENDBRANCH  14  15
ENDBRANCH   5   8
ENDBRANCH   3   4
ENDBRANCH   1   3
BRANCH   1  17
HETATM   17  C   UNL     1      43.374 -14.547   6.372  1.00  0.00     0.189 A 
HETATM   18  C   UNL     1      42.908 -15.223   7.632  1.00  0.00     0.035 A 
HETATM   19  C   UNL     1      42.056 -15.267   6.398  1.00  0.00     0.035 A 
ENDBRANCH   1  17
BRANCH   1  20
HETATM   20  C   UNL     1      44.849 -12.464   6.460  1.00  0.00     0.274 C 
BRANCH  20  21
HETATM   21  C   UNL     1      44.987 -11.319   7.428  1.00  0.00    -0.032 A 
HETATM   22  C   UNL     1      44.043 -11.133   8.454  1.00  0.00     0.021 A 
HETATM   23  C   UNL     1      44.153 -10.072   9.371  1.00  0.00    -0.024 A 
HETATM   24  C   UNL     1      45.236  -9.190   9.229  1.00  0.00     0.012 A 
HETATM   25  C   UNL     1      46.180  -9.363   8.215  1.00  0.00     0.001 A 
HETATM   26  C   UNL     1      46.059 -10.423   7.320  1.00  0.00     0.009 A 
BRANCH  23  27
HETATM   27  C   UNL     1      43.169  -9.898  10.450  1.00  0.00    -0.008 A 
HETATM   28  C   UNL     1      41.927  -9.300  10.227  1.00  0.00     0.128 A 
HETATM   29  N   UNL     1      40.986  -9.088  11.177  1.00  0.00    -0.272 NA
HETATM   30  C   UNL     1      41.277  -9.512  12.423  1.00  0.00     0.116 A 
HETATM   31  C   UNL     1      42.468 -10.131  12.761  1.00  0.00     0.020 A 
HETATM   32  C   UNL     1      43.422 -10.321  11.762  1.00  0.00     0.015 A 
ENDBRANCH  23  27
ENDBRANCH  20  21
ENDBRANCH   1  20
TORSDOF 8
ENDMDL
MODEL 5
REMARK VINA RESULT:      -7.8      2.224      3.193
REMARK  8 active torsions:
REMARK  status: ('A' for Active; 'I' for Inactive)
REMARK    1  A    between atoms: C_4  and  N_5 
REMARK       I    between atoms: N_5  and  C_6 
REMARK    2  A    between atoms: C_6  and  C_7 
REMARK    3  A    between atoms: C_7  and  N_8 
REMARK    4  A    between atoms: N_8  and  C_10 
REMARK    5  A    between atoms: N_8  and  C_13 
REMARK    6  A    between atoms: C_13  and  C_14 
REMARK    7  A    between atoms: C_16  and  C_17 
REMARK    8  A    between atoms: C_27  and  O_28 
ROOT
HETATM    1  N   UNL     1      41.775 -11.285   2.795  1.00  0.00    -0.055 N 
HETATM    2  H   UNL     1      40.924 -11.672   3.231  1.00  0.00     0.281 HD
ENDROOT
BRANCH   1   3
HETATM    3  C   UNL     1      42.280 -10.272   3.847  1.00  0.00     0.338 C 
BRANCH   3   4
HETATM    4  C   UNL     1      41.266 -10.054   4.974  1.00  0.00     0.248 C 
HETATM    5  N   UNL     1      41.247 -10.912   6.031  1.00  0.00    -0.323 N 
HETATM    6  H   UNL     1      40.839 -10.534   6.886  1.00  0.00     0.169 HD
HETATM    7  O   UNL     1      40.557  -9.044   4.970  1.00  0.00    -0.271 OA
BRANCH   5   8
HETATM    8  C   UNL     1      41.743 -12.225   6.153  1.00  0.00     0.069 A 
HETATM    9  C   UNL     1      40.945 -13.353   5.930  1.00  0.00     0.039 A 
HETATM   10  C   UNL     1      41.467 -14.639   6.120  1.00  0.00    -0.060 A 
HETATM   11  C   UNL     1      40.592 -15.852   5.972  1.00  0.00     0.048 C 
HETATM   12  C   UNL     1      42.789 -14.782   6.553  1.00  0.00     0.009 A 
HETATM   13  C   UNL     1      43.586 -13.659   6.795  1.00  0.00     0.039 A 
HETATM   14  C   UNL     1      43.068 -12.378   6.607  1.00  0.00     0.095 A 
BRANCH  14  15
HETATM   15  O   UNL     1      43.760 -11.208   6.814  1.00  0.00    -0.354 OA
HETATM   16  C   UNL     1      45.166 -11.243   6.592  1.00  0.00     0.210 C 
ENDBRANCH  14  15
ENDBRANCH   5   8
ENDBRANCH   3   4
ENDBRANCH   1   3
BRANCH   1  17
HETATM   17  C   UNL     1      41.265 -10.610   1.547  1.00  0.00     0.189 A 
HETATM   18  C   UNL     1      39.793 -10.320   1.453  1.00  0.00     0.035 A 
HETATM   19  C   UNL     1      40.774  -9.190   1.553  1.00  0.00     0.035 A 
ENDBRANCH   1  17
BRANCH   1  20
HETATM   20  C   UNL     1      42.713 -12.441   2.582  1.00  0.00     0.274 C 
BRANCH  20  21
HETATM   21  C   UNL     1      42.038 -13.783   2.483  1.00  0.00    -0.032 A 
HETATM   22  C   UNL     1      42.739 -14.961   2.799  1.00  0.00     0.021 A 
HETATM   23  C   UNL     1      42.128 -16.226   2.717  1.00  0.00    -0.024 A 
HETATM   24  C   UNL     1      40.791 -16.283   2.298  1.00  0.00     0.012 A 
HETATM   25  C   UNL     1      40.083 -15.123   1.980  1.00  0.00     0.001 A 
HETATM   26  C   UNL     1      40.702 -13.878   2.073  1.00  0.00     0.009 A 
BRANCH  23  27
HETATM   27  C   UNL     1      42.868 -17.448   3.068  1.00  0.00    -0.008 A 
HETATM   28  C   UNL     1      43.561 -17.571   4.275  1.00  0.00     0.128 A 
HETATM   29  N   UNL     1      44.280 -18.655   4.649  1.00  0.00    -0.272 NA
HETATM   30  C   UNL     1      44.301 -19.694   3.791  1.00  0.00     0.116 A 
HETATM   31  C   UNL     1      43.642 -19.694   2.574  1.00  0.00     0.020 A 
HETATM   32  C   UNL     1      42.922 -18.556   2.212  1.00  0.00     0.015 A 
ENDBRANCH  23  27
ENDBRANCH  20  21
ENDBRANCH   1  20
TORSDOF 8
ENDMDL
MODEL 6
REMARK VINA RESULT:      -7.7      4.369      8.565
REMARK  8 active torsions:
REMARK  status: ('A' for Active; 'I' for Inactive)
REMARK    1  A    between atoms: C_4  and  N_5 
REMARK       I    between atoms: N_5  and  C_6 
REMARK    2  A    between atoms: C_6  and  C_7 
REMARK    3  A    between atoms: C_7  and  N_8 
REMARK    4  A    between atoms: N_8  and  C_10 
REMARK    5  A    between atoms: N_8  and  C_13 
REMARK    6  A    between atoms: C_13  and  C_14 
REMARK    7  A    between atoms: C_16  and  C_17 
REMARK    8  A    between atoms: C_27  and  O_28 
ROOT
HETATM    1  N   UNL     1      42.629 -12.411   5.564  1.00  0.00    -0.055 N 
HETATM    2  H   UNL     1      43.657 -12.484   5.604  1.00  0.00     0.281 HD
ENDROOT
BRANCH   1   3
HETATM    3  C   UNL     1      42.157 -13.703   6.269  1.00  0.00     0.338 C 
BRANCH   3   4
HETATM    4  C   UNL     1      40.710 -14.059   5.918  1.00  0.00     0.248 C 
HETATM    5  N   UNL     1      40.451 -15.208   5.234  1.00  0.00    -0.323 N 
HETATM    6  H   UNL     1      39.506 -15.573   5.346  1.00  0.00     0.169 HD
HETATM    7  O   UNL     1      39.788 -13.366   6.355  1.00  0.00    -0.271 OA
BRANCH   5   8
HETATM    8  C   UNL     1      41.293 -16.003   4.430  1.00  0.00     0.069 A 
HETATM    9  C   UNL     1      42.348 -16.754   4.960  1.00  0.00     0.039 A 
HETATM   10  C   UNL     1      43.195 -17.482   4.115  1.00  0.00    -0.060 A 
HETATM   11  C   UNL     1      44.384 -18.216   4.667  1.00  0.00     0.048 C 
HETATM   12  C   UNL     1      42.983 -17.437   2.734  1.00  0.00     0.009 A 
HETATM   13  C   UNL     1      41.942 -16.674   2.195  1.00  0.00     0.039 A 
HETATM   14  C   UNL     1      41.099 -15.947   3.035  1.00  0.00     0.095 A 
BRANCH  14  15
HETATM   15  O   UNL     1      40.048 -15.167   2.616  1.00  0.00    -0.354 OA
HETATM   16  C   UNL     1      40.075 -14.720   1.264  1.00  0.00     0.210 C 
ENDBRANCH  14  15
ENDBRANCH   5   8
ENDBRANCH   3   4
ENDBRANCH   1   3
BRANCH   1  17
HETATM   17  C   UNL     1      42.323 -12.421   4.087  1.00  0.00     0.189 A 
HETATM   18  C   UNL     1      43.180 -11.577   3.184  1.00  0.00     0.035 A 
HETATM   19  C   UNL     1      43.237 -13.073   3.088  1.00  0.00     0.035 A 
ENDBRANCH   1  17
BRANCH   1  20
HETATM   20  C   UNL     1      42.256 -11.157   6.305  1.00  0.00     0.274 C 
BRANCH  20  21
HETATM   21  C   UNL     1      43.276 -10.702   7.315  1.00  0.00    -0.032 A 
HETATM   22  C   UNL     1      42.899  -9.878   8.391  1.00  0.00     0.021 A 
HETATM   23  C   UNL     1      43.834  -9.444   9.348  1.00  0.00    -0.024 A 
HETATM   24  C   UNL     1      45.168  -9.851   9.195  1.00  0.00     0.012 A 
HETATM   25  C   UNL     1      45.557 -10.668   8.132  1.00  0.00     0.001 A 
HETATM   26  C   UNL     1      44.616 -11.094   7.197  1.00  0.00     0.009 A 
BRANCH  23  27
HETATM   27  C   UNL     1      43.423  -8.596  10.478  1.00  0.00    -0.008 A 
HETATM   28  C   UNL     1      42.810  -7.356  10.286  1.00  0.00     0.128 A 
HETATM   29  N   UNL     1      42.430  -6.517  11.277  1.00  0.00    -0.272 NA
HETATM   30  C   UNL     1      42.645  -6.935  12.541  1.00  0.00     0.116 A 
HETATM   31  C   UNL     1      43.230  -8.149  12.854  1.00  0.00     0.020 A 
HETATM   32  C   UNL     1      43.624  -8.984  11.809  1.00  0.00     0.015 A 
ENDBRANCH  23  27
ENDBRANCH  20  21
ENDBRANCH   1  20
TORSDOF 8
ENDMDL
MODEL 7
REMARK VINA RESULT:      -7.5      1.936      3.338
REMARK  8 active torsions:
REMARK  status: ('A' for Active; 'I' for Inactive)
REMARK    1  A    between atoms: C_4  and  N_5 
REMARK       I    between atoms: N_5  and  C_6 
REMARK    2  A    between atoms: C_6  and  C_7 
REMARK    3  A    between atoms: C_7  and  N_8 
REMARK    4  A    between atoms: N_8  and  C_10 
REMARK    5  A    between atoms: N_8  and  C_13 
REMARK    6  A    between atoms: C_13  and  C_14 
REMARK    7  A    between atoms: C_16  and  C_17 
REMARK    8  A    between atoms: C_27  and  O_28 
ROOT
HETATM    1  N   UNL     1      41.324 -13.332   1.873  1.00  0.00    -0.055 N 
HETATM    2  H   UNL     1      40.754 -14.000   2.414  1.00  0.00     0.281 HD
ENDROOT
BRANCH   1   3
HETATM    3  C   UNL     1      40.738 -11.960   2.279  1.00  0.00     0.338 C 
BRANCH   3   4
HETATM    4  C   UNL     1      41.719 -10.813   2.024  1.00  0.00     0.248 C 
HETATM    5  N   UNL     1      42.329 -10.207   3.080  1.00  0.00    -0.323 N 
HETATM    6  H   UNL     1      43.205  -9.734   2.859  1.00  0.00     0.169 HD
HETATM    7  O   UNL     1      42.035 -10.527   0.865  1.00  0.00    -0.271 OA
BRANCH   5   8
HETATM    8  C   UNL     1      41.970 -10.166   4.442  1.00  0.00     0.069 A 
HETATM    9  C   UNL     1      40.748  -9.644   4.882  1.00  0.00     0.039 A 
HETATM   10  C   UNL     1      40.460  -9.570   6.250  1.00  0.00    -0.060 A 
HETATM   11  C   UNL     1      39.191  -8.928   6.734  1.00  0.00     0.048 C 
HETATM   12  C   UNL     1      41.416 -10.006   7.173  1.00  0.00     0.009 A 
HETATM   13  C   UNL     1      42.647 -10.510   6.742  1.00  0.00     0.039 A 
HETATM   14  C   UNL     1      42.936 -10.585   5.379  1.00  0.00     0.095 A 
BRANCH  14  15
HETATM   15  O   UNL     1      44.109 -11.062   4.845  1.00  0.00    -0.354 OA
HETATM   16  C   UNL     1      45.145 -11.398   5.762  1.00  0.00     0.210 C 
ENDBRANCH  14  15
ENDBRANCH   5   8
ENDBRANCH   3   4
ENDBRANCH   1   3
BRANCH   1  17
HETATM   17  C   UNL     1      41.023 -13.681   0.437  1.00  0.00     0.189 A 
HETATM   18  C   UNL     1      40.088 -14.828   0.171  1.00  0.00     0.035 A 
HETATM   19  C   UNL     1      39.676 -13.429  -0.179  1.00  0.00     0.035 A 
ENDBRANCH   1  17
BRANCH   1  20
HETATM   20  C   UNL     1      42.749 -13.526   2.313  1.00  0.00     0.274 C 
BRANCH  20  21
HETATM   21  C   UNL     1      42.933 -14.553   3.398  1.00  0.00    -0.032 A 
HETATM   22  C   UNL     1      43.121 -15.909   3.075  1.00  0.00     0.021 A 
HETATM   23  C   UNL     1      43.297 -16.885   4.073  1.00  0.00    -0.024 A 
HETATM   24  C   UNL     1      43.272 -16.469   5.412  1.00  0.00     0.012 A 
HETATM   25  C   UNL     1      43.085 -15.127   5.748  1.00  0.00     0.001 A 
HETATM   26  C   UNL     1      42.918 -14.173   4.747  1.00  0.00     0.009 A 
BRANCH  23  27
HETATM   27  C   UNL     1      43.512 -18.298   3.720  1.00  0.00    -0.008 A 
HETATM   28  C   UNL     1      44.000 -19.224   4.644  1.00  0.00     0.128 A 
HETATM   29  N   UNL     1      44.243 -20.529   4.380  1.00  0.00    -0.272 NA
HETATM   30  C   UNL     1      43.966 -20.956   3.132  1.00  0.00     0.116 A 
HETATM   31  C   UNL     1      43.466 -20.135   2.137  1.00  0.00     0.020 A 
HETATM   32  C   UNL     1      43.241 -18.792   2.437  1.00  0.00     0.015 A 
ENDBRANCH  23  27
ENDBRANCH  20  21
ENDBRANCH   1  20
TORSDOF 8
ENDMDL
MODEL 8
REMARK VINA RESULT:      -7.5      1.864      3.350
REMARK  8 active torsions:
REMARK  status: ('A' for Active; 'I' for Inactive)
REMARK    1  A    between atoms: C_4  and  N_5 
REMARK       I    between atoms: N_5  and  C_6 
REMARK    2  A    between atoms: C_6  and  C_7 
REMARK    3  A    between atoms: C_7  and  N_8 
REMARK    4  A    between atoms: N_8  and  C_10 
REMARK    5  A    between atoms: N_8  and  C_13 
REMARK    6  A    between atoms: C_13  and  C_14 
REMARK    7  A    between atoms: C_16  and  C_17 
REMARK    8  A    between atoms: C_27  and  O_28 
ROOT
HETATM    1  N   UNL     1      40.888 -13.910   3.168  1.00  0.00    -0.055 N 
HETATM    2  H   UNL     1      40.201 -13.151   3.037  1.00  0.00     0.281 HD
ENDROOT
BRANCH   1   3
HETATM    3  C   UNL     1      42.188 -13.312   2.583  1.00  0.00     0.338 C 
BRANCH   3   4
HETATM    4  C   UNL     1      42.004 -11.862   2.129  1.00  0.00     0.248 C 
HETATM    5  N   UNL     1      42.457 -10.850   2.921  1.00  0.00    -0.323 N 
HETATM    6  H   UNL     1      42.644  -9.973   2.436  1.00  0.00     0.169 HD
HETATM    7  O   UNL     1      41.554 -11.627   1.004  1.00  0.00    -0.271 OA
BRANCH   5   8
HETATM    8  C   UNL     1      42.756 -10.831   4.298  1.00  0.00     0.069 A 
HETATM    9  C   UNL     1      44.013 -11.186   4.800  1.00  0.00     0.039 A 
HETATM   10  C   UNL     1      44.246 -11.208   6.181  1.00  0.00    -0.060 A 
HETATM   11  C   UNL     1      45.563 -11.676   6.730  1.00  0.00     0.048 C 
HETATM   12  C   UNL     1      43.200 -10.889   7.053  1.00  0.00     0.009 A 
HETATM   13  C   UNL     1      41.936 -10.552   6.560  1.00  0.00     0.039 A 
HETATM   14  C   UNL     1      41.703 -10.530   5.185  1.00  0.00     0.095 A 
BRANCH  14  15
HETATM   15  O   UNL     1      40.504 -10.213   4.592  1.00  0.00    -0.354 OA
HETATM   16  C   UNL     1      39.603  -9.410   5.349  1.00  0.00     0.210 C 
ENDBRANCH  14  15
ENDBRANCH   5   8
ENDBRANCH   3   4
ENDBRANCH   1   3
BRANCH   1  17
HETATM   17  C   UNL     1      40.346 -15.037   2.326  1.00  0.00     0.189 A 
HETATM   18  C   UNL     1      39.857 -14.711   0.942  1.00  0.00     0.035 A 
HETATM   19  C   UNL     1      41.081 -15.560   1.125  1.00  0.00     0.035 A 
ENDBRANCH   1  17
BRANCH   1  20
HETATM   20  C   UNL     1      40.964 -14.170   4.648  1.00  0.00     0.274 C 
BRANCH  20  21
HETATM   21  C   UNL     1      42.132 -15.020   5.073  1.00  0.00    -0.032 A 
HETATM   22  C   UNL     1      42.329 -16.296   4.514  1.00  0.00     0.021 A 
HETATM   23  C   UNL     1      43.414 -17.106   4.895  1.00  0.00    -0.024 A 
HETATM   24  C   UNL     1      44.300 -16.607   5.862  1.00  0.00     0.012 A 
HETATM   25  C   UNL     1      44.116 -15.343   6.425  1.00  0.00     0.001 A 
HETATM   26  C   UNL     1      43.039 -14.552   6.032  1.00  0.00     0.009 A 
BRANCH  23  27
HETATM   27  C   UNL     1      43.618 -18.432   4.290  1.00  0.00    -0.008 A 
HETATM   28  C   UNL     1      43.959 -19.548   5.056  1.00  0.00     0.128 A 
HETATM   29  N   UNL     1      44.185 -20.788   4.562  1.00  0.00    -0.272 NA
HETATM   30  C   UNL     1      44.044 -20.945   3.230  1.00  0.00     0.116 A 
HETATM   31  C   UNL     1      43.696 -19.916   2.373  1.00  0.00     0.020 A 
HETATM   32  C   UNL     1      43.484 -18.648   2.912  1.00  0.00     0.015 A 
ENDBRANCH  23  27
ENDBRANCH  20  21
ENDBRANCH   1  20
TORSDOF 8
ENDMDL
MODEL 9
REMARK VINA RESULT:      -7.4      4.739      8.817
REMARK  8 active torsions:
REMARK  status: ('A' for Active; 'I' for Inactive)
REMARK    1  A    between atoms: C_4  and  N_5 
REMARK       I    between atoms: N_5  and  C_6 
REMARK    2  A    between atoms: C_6  and  C_7 
REMARK    3  A    between atoms: C_7  and  N_8 
REMARK    4  A    between atoms: N_8  and  C_10 
REMARK    5  A    between atoms: N_8  and  C_13 
REMARK    6  A    between atoms: C_13  and  C_14 
REMARK    7  A    between atoms: C_16  and  C_17 
REMARK    8  A    between atoms: C_27  and  O_28 
ROOT
HETATM    1  N   UNL     1      43.073 -11.480   6.043  1.00  0.00    -0.055 N 
HETATM    2  H   UNL     1      43.659 -10.822   5.507  1.00  0.00     0.281 HD
ENDROOT
BRANCH   1   3
HETATM    3  C   UNL     1      42.684 -12.542   4.989  1.00  0.00     0.338 C 
BRANCH   3   4
HETATM    4  C   UNL     1      43.267 -12.228   3.609  1.00  0.00     0.248 C 
HETATM    5  N   UNL     1      42.923 -13.005   2.545  1.00  0.00    -0.323 N 
HETATM    6  H   UNL     1      43.027 -12.559   1.634  1.00  0.00     0.169 HD
HETATM    7  O   UNL     1      43.949 -11.211   3.451  1.00  0.00    -0.271 OA
BRANCH   5   8
HETATM    8  C   UNL     1      42.400 -14.312   2.498  1.00  0.00     0.069 A 
HETATM    9  C   UNL     1      43.199 -15.448   2.669  1.00  0.00     0.039 A 
HETATM   10  C   UNL     1      42.644 -16.729   2.555  1.00  0.00    -0.060 A 
HETATM   11  C   UNL     1      43.512 -17.952   2.646  1.00  0.00     0.048 C 
HETATM   12  C   UNL     1      41.286 -16.860   2.253  1.00  0.00     0.009 A 
HETATM   13  C   UNL     1      40.484 -15.730   2.063  1.00  0.00     0.039 A 
HETATM   14  C   UNL     1      41.035 -14.453   2.174  1.00  0.00     0.095 A 
BRANCH  14  15
HETATM   15  O   UNL     1      40.343 -13.277   2.009  1.00  0.00    -0.354 OA
HETATM   16  C   UNL     1      39.407 -12.932   3.026  1.00  0.00     0.210 C 
ENDBRANCH  14  15
ENDBRANCH   5   8
ENDBRANCH   3   4
ENDBRANCH   1   3
BRANCH   1  17
HETATM   17  C   UNL     1      41.894 -10.644   6.475  1.00  0.00     0.189 A 
HETATM   18  C   UNL     1      41.903  -9.181   6.128  1.00  0.00     0.035 A 
HETATM   19  C   UNL     1      40.901 -10.097   5.490  1.00  0.00     0.035 A 
ENDBRANCH   1  17
BRANCH   1  20
HETATM   20  C   UNL     1      43.935 -12.024   7.148  1.00  0.00     0.274 C 
BRANCH  20  21
HETATM   21  C   UNL     1      44.457 -10.982   8.103  1.00  0.00    -0.032 A 
HETATM   22  C   UNL     1      43.760 -10.684   9.287  1.00  0.00     0.021 A 
HETATM   23  C   UNL     1      44.230  -9.717  10.194  1.00  0.00    -0.024 A 
HETATM   24  C   UNL     1      45.421  -9.045   9.880  1.00  0.00     0.012 A 
HETATM   25  C   UNL     1      46.123  -9.330   8.707  1.00  0.00     0.001 A 
HETATM   26  C   UNL     1      45.646 -10.295   7.823  1.00  0.00     0.009 A 
BRANCH  23  27
HETATM   27  C   UNL     1      43.500  -9.428  11.439  1.00  0.00    -0.008 A 
HETATM   28  C   UNL     1      42.637 -10.359  12.021  1.00  0.00     0.128 A 
HETATM   29  N   UNL     1      41.917 -10.149  13.148  1.00  0.00    -0.272 NA
HETATM   30  C   UNL     1      42.074  -8.955  13.755  1.00  0.00     0.116 A 
HETATM   31  C   UNL     1      42.912  -7.962  13.279  1.00  0.00     0.020 A 
HETATM   32  C   UNL     1      43.628  -8.204  12.108  1.00  0.00     0.015 A 
ENDBRANCH  23  27
ENDBRANCH  20  21
ENDBRANCH   1  20
TORSDOF 8
ENDMDL
MODEL 10
REMARK VINA RESULT:      -7.4      1.858      4.686
REMARK  8 active torsions:
REMARK  status: ('A' for Active; 'I' for Inactive)
REMARK    1  A    between atoms: C_4  and  N_5 
REMARK       I    between atoms: N_5  and  C_6 
REMARK    2  A    between atoms: C_6  and  C_7 
REMARK    3  A    between atoms: C_7  and  N_8 
REMARK    4  A    between atoms: N_8  and  C_10 
REMARK    5  A    between atoms: N_8  and  C_13 
REMARK    6  A    between atoms: C_13  and  C_14 
REMARK    7  A    between atoms: C_16  and  C_17 
REMARK    8  A    between atoms: C_27  and  O_28 
ROOT
HETATM    1  N   UNL     1      42.234 -13.114   4.836  1.00  0.00    -0.055 N 
HETATM    2  H   UNL     1      43.161 -13.206   4.392  1.00  0.00     0.281 HD
ENDROOT
BRANCH   1   3
HETATM    3  C   UNL     1      41.661 -11.832   4.190  1.00  0.00     0.338 C 
BRANCH   3   4
HETATM    4  C   UNL     1      42.590 -11.261   3.116  1.00  0.00     0.248 C 
HETATM    5  N   UNL     1      42.079 -10.930   1.897  1.00  0.00    -0.323 N 
HETATM    6  H   UNL     1      42.622 -10.244   1.374  1.00  0.00     0.169 HD
HETATM    7  O   UNL     1      43.762 -10.999   3.399  1.00  0.00    -0.271 OA
BRANCH   5   8
HETATM    8  C   UNL     1      40.895 -11.348   1.258  1.00  0.00     0.069 A 
HETATM    9  C   UNL     1      40.809 -12.551   0.547  1.00  0.00     0.039 A 
HETATM   10  C   UNL     1      39.628 -12.896  -0.122  1.00  0.00    -0.060 A 
HETATM   11  C   UNL     1      39.557 -14.139  -0.962  1.00  0.00     0.048 C 
HETATM   12  C   UNL     1      38.541 -12.016  -0.085  1.00  0.00     0.009 A 
HETATM   13  C   UNL     1      38.626 -10.805   0.607  1.00  0.00     0.039 A 
HETATM   14  C   UNL     1      39.802 -10.459   1.273  1.00  0.00     0.095 A 
BRANCH  14  15
HETATM   15  O   UNL     1      39.996  -9.298   1.983  1.00  0.00    -0.354 OA
HETATM   16  C   UNL     1      39.585  -8.085   1.360  1.00  0.00     0.210 C 
ENDBRANCH  14  15
ENDBRANCH   5   8
ENDBRANCH   3   4
ENDBRANCH   1   3
BRANCH   1  17
HETATM   17  C   UNL     1      42.551 -12.927   6.298  1.00  0.00     0.189 A 
HETATM   18  C   UNL     1      43.735 -13.661   6.864  1.00  0.00     0.035 A 
HETATM   19  C   UNL     1      43.760 -12.165   6.761  1.00  0.00     0.035 A 
ENDBRANCH   1  17
BRANCH   1  20
HETATM   20  C   UNL     1      41.463 -14.356   4.483  1.00  0.00     0.274 C 
BRANCH  20  21
HETATM   21  C   UNL     1      42.183 -15.295   3.551  1.00  0.00    -0.032 A 
HETATM   22  C   UNL     1      42.546 -16.586   3.976  1.00  0.00     0.021 A 
HETATM   23  C   UNL     1      43.217 -17.480   3.122  1.00  0.00    -0.024 A 
HETATM   24  C   UNL     1      43.525 -17.044   1.825  1.00  0.00     0.012 A 
HETATM   25  C   UNL     1      43.173 -15.765   1.390  1.00  0.00     0.001 A 
HETATM   26  C   UNL     1      42.503 -14.895   2.247  1.00  0.00     0.009 A 
BRANCH  23  27
HETATM   27  C   UNL     1      43.575 -18.834   3.574  1.00  0.00    -0.008 A 
HETATM   28  C   UNL     1      43.599 -19.922   2.699  1.00  0.00     0.128 A 
HETATM   29  N   UNL     1      43.894 -21.195   3.052  1.00  0.00    -0.272 NA
HETATM   30  C   UNL     1      44.208 -21.408   4.345  1.00  0.00     0.116 A 
HETATM   31  C   UNL     1      44.232 -20.407   5.300  1.00  0.00     0.020 A 
HETATM   32  C   UNL     1      43.908 -19.109   4.907  1.00  0.00     0.015 A 
ENDBRANCH  23  27
ENDBRANCH  20  21
ENDBRANCH   1  20
TORSDOF 8
ENDMDL
