MODEL 1
REMARK VINA RESULT:      -8.9      0.000      0.000
REMARK  5 active torsions:
REMARK  status: ('A' for Active; 'I' for Inactive)
REMARK    1  A    between atoms: C_2  and  C_3 
REMARK    2  A    between atoms: C_3  and  O_4 
REMARK    3  A    between atoms: O_4  and  C_5 
REMARK    4  A    between atoms: C_8  and  C_9 
REMARK    5  A    between atoms: C_15  and  C_16 
ROOT
HETATM    1  C   UNL     1      41.024 -16.094   4.957  1.00  0.00     0.066 C 
HETATM    2  C   UNL     1      42.438 -16.162   5.420  1.00  0.00     0.028 A 
HETATM    3  C   UNL     1      42.991 -15.218   6.246  1.00  0.00     0.133 A 
HETATM    4  N   UNL     1      44.286 -15.570   6.451  1.00  0.00    -0.261 N 
HETATM    5  H   UNL     1      44.997 -15.108   7.009  1.00  0.00     0.191 HD
HETATM    6  N   UNL     1      44.629 -16.679   5.786  1.00  0.00    -0.172 NA
HETATM    7  C   UNL     1      43.516 -17.057   5.128  1.00  0.00     0.098 A 
HETATM    8  N   UNL     1      42.303 -14.113   6.679  1.00  0.00    -0.312 N 
HETATM    9  C   UNL     1      40.918 -13.969   6.362  1.00  0.00     0.224 C 
HETATM   10  O   UNL     1      40.405 -12.908   6.680  1.00  0.00    -0.273 OA
HETATM   11  C   UNL     1      40.170 -15.160   5.821  1.00  0.00     0.117 C 
HETATM   12  H   UNL     1      42.748 -13.352   7.180  1.00  0.00     0.170 HD
ENDROOT
BRANCH   1  13
HETATM   13  C   UNL     1      41.014 -15.688   3.494  1.00  0.00    -0.049 A 
HETATM   14  C   UNL     1      39.990 -16.196   2.673  1.00  0.00     0.010 A 
HETATM   15  C   UNL     1      39.873 -15.812   1.333  1.00  0.00     0.037 A 
HETATM   16  C   UNL     1      40.775 -14.903   0.788  1.00  0.00     0.069 A 
HETATM   17  C   UNL     1      41.812 -14.413   1.581  1.00  0.00     0.037 A 
HETATM   18  C   UNL     1      41.925 -14.786   2.924  1.00  0.00     0.010 A 
BRANCH  16  19
HETATM   19  O   UNL     1      40.755 -14.438  -0.497  1.00  0.00    -0.348 OA
BRANCH  19  20
HETATM   20  C   UNL     1      39.469 -14.119  -1.028  1.00  0.00     0.202 C 
BRANCH  20  21
HETATM   21  C   UNL     1      39.477 -14.501  -2.478  1.00  0.00    -0.011 C 
HETATM   22  C   UNL     1      38.387 -14.820  -3.188  1.00  0.00     0.009 C 
ENDBRANCH  20  21
ENDBRANCH  19  20
ENDBRANCH  16  19
ENDBRANCH   1  13
BRANCH   7  23
HETATM   23  C   UNL     1      43.554 -18.201   4.215  1.00  0.00    -0.005 A 
HETATM   24  C   UNL     1      43.278 -18.070   2.849  1.00  0.00     0.014 A 
HETATM   25  C   UNL     1      43.360 -19.176   1.999  1.00  0.00     0.001 A 
HETATM   26  C   UNL     1      43.704 -20.428   2.507  1.00  0.00     0.000 A 
HETATM   27  C   UNL     1      43.959 -20.577   3.868  1.00  0.00     0.001 A 
HETATM   28  C   UNL     1      43.883 -19.471   4.716  1.00  0.00     0.014 A 
ENDBRANCH   7  23
TORSDOF 5
ENDMDL
MODEL 2
REMARK VINA RESULT:      -8.7      2.526      4.637
REMARK  5 active torsions:
REMARK  status: ('A' for Active; 'I' for Inactive)
REMARK    1  A    between atoms: C_2  and  C_3 
REMARK    2  A    between atoms: C_3  and  O_4 
REMARK    3  A    between atoms: O_4  and  C_5 
REMARK    4  A    between atoms: C_8  and  C_9 
REMARK    5  A    between atoms: C_15  and  C_16 
ROOT
HETATM    1  C   UNL     1      44.113 -16.742   4.569  1.00  0.00     0.066 C 
HETATM    2  C   UNL     1      43.643 -16.365   5.931  1.00  0.00     0.028 A 
HETATM    3  C   UNL     1      43.298 -17.295   6.877  1.00  0.00     0.133 A 
HETATM    4  N   UNL     1      42.900 -16.616   7.983  1.00  0.00    -0.261 N 
HETATM    5  H   UNL     1      42.578 -16.976   8.876  1.00  0.00     0.191 HD
HETATM    6  N   UNL     1      42.935 -15.289   7.814  1.00  0.00    -0.172 NA
HETATM    7  C   UNL     1      43.373 -15.105   6.553  1.00  0.00     0.098 A 
HETATM    8  N   UNL     1      43.316 -18.645   6.636  1.00  0.00    -0.312 N 
HETATM    9  C   UNL     1      43.816 -19.137   5.392  1.00  0.00     0.224 C 
HETATM   10  O   UNL     1      43.692 -20.336   5.204  1.00  0.00    -0.273 OA
HETATM   11  C   UNL     1      44.582 -18.199   4.495  1.00  0.00     0.117 C 
HETATM   12  H   UNL     1      42.940 -19.323   7.287  1.00  0.00     0.170 HD
ENDROOT
BRANCH   1  13
HETATM   13  C   UNL     1      43.002 -16.448   3.576  1.00  0.00    -0.049 A 
HETATM   14  C   UNL     1      41.671 -16.599   4.009  1.00  0.00     0.010 A 
HETATM   15  C   UNL     1      40.594 -16.279   3.175  1.00  0.00     0.037 A 
HETATM   16  C   UNL     1      40.828 -15.793   1.892  1.00  0.00     0.069 A 
HETATM   17  C   UNL     1      42.140 -15.665   1.440  1.00  0.00     0.037 A 
HETATM   18  C   UNL     1      43.219 -15.972   2.275  1.00  0.00     0.010 A 
BRANCH  16  19
HETATM   19  O   UNL     1      39.864 -15.430   0.994  1.00  0.00    -0.348 OA
BRANCH  19  20
HETATM   20  C   UNL     1      40.196 -14.353   0.119  1.00  0.00     0.202 C 
BRANCH  20  21
HETATM   21  C   UNL     1      39.478 -14.590  -1.176  1.00  0.00    -0.011 C 
HETATM   22  C   UNL     1      39.870 -14.112  -2.364  1.00  0.00     0.009 C 
ENDBRANCH  20  21
ENDBRANCH  19  20
ENDBRANCH  16  19
ENDBRANCH   1  13
BRANCH   7  23
HETATM   23  C   UNL     1      43.449 -13.755   5.992  1.00  0.00    -0.005 A 
HETATM   24  C   UNL     1      42.650 -13.353   4.915  1.00  0.00     0.014 A 
HETATM   25  C   UNL     1      42.722 -12.045   4.427  1.00  0.00     0.001 A 
HETATM   26  C   UNL     1      43.602 -11.129   5.002  1.00  0.00     0.000 A 
HETATM   27  C   UNL     1      44.419 -11.522   6.058  1.00  0.00     0.001 A 
HETATM   28  C   UNL     1      44.344 -12.826   6.549  1.00  0.00     0.014 A 
ENDBRANCH   7  23
TORSDOF 5
ENDMDL
MODEL 3
REMARK VINA RESULT:      -8.3      2.704      5.811
REMARK  5 active torsions:
REMARK  status: ('A' for Active; 'I' for Inactive)
REMARK    1  A    between atoms: C_2  and  C_3 
REMARK    2  A    between atoms: C_3  and  O_4 
REMARK    3  A    between atoms: O_4  and  C_5 
REMARK    4  A    between atoms: C_8  and  C_9 
REMARK    5  A    between atoms: C_15  and  C_16 
ROOT
HETATM    1  C   UNL     1      43.048 -13.184   4.467  1.00  0.00     0.066 C 
HETATM    2  C   UNL     1      41.624 -12.784   4.637  1.00  0.00     0.028 A 
HETATM    3  C   UNL     1      41.166 -12.136   5.755  1.00  0.00     0.133 A 
HETATM    4  N   UNL     1      39.832 -11.941   5.591  1.00  0.00    -0.261 N 
HETATM    5  H   UNL     1      39.167 -11.494   6.213  1.00  0.00     0.191 HD
HETATM    6  N   UNL     1      39.375 -12.449   4.440  1.00  0.00    -0.172 NA
HETATM    7  C   UNL     1      40.454 -12.989   3.838  1.00  0.00     0.098 A 
HETATM    8  N   UNL     1      41.970 -11.841   6.826  1.00  0.00    -0.312 N 
HETATM    9  C   UNL     1      43.371 -12.109   6.757  1.00  0.00     0.224 C 
HETATM   10  O   UNL     1      44.000 -11.930   7.787  1.00  0.00    -0.273 OA
HETATM   11  C   UNL     1      43.984 -12.430   5.418  1.00  0.00     0.117 C 
HETATM   12  H   UNL     1      41.608 -11.481   7.701  1.00  0.00     0.170 HD
ENDROOT
BRANCH   1  13
HETATM   13  C   UNL     1      43.150 -14.689   4.639  1.00  0.00    -0.049 A 
HETATM   14  C   UNL     1      43.226 -15.484   3.479  1.00  0.00     0.010 A 
HETATM   15  C   UNL     1      43.393 -16.871   3.557  1.00  0.00     0.037 A 
HETATM   16  C   UNL     1      43.495 -17.491   4.798  1.00  0.00     0.069 A 
HETATM   17  C   UNL     1      43.393 -16.720   5.956  1.00  0.00     0.037 A 
HETATM   18  C   UNL     1      43.239 -15.333   5.882  1.00  0.00     0.010 A 
BRANCH  16  19
HETATM   19  O   UNL     1      43.677 -18.829   5.004  1.00  0.00    -0.348 OA
BRANCH  19  20
HETATM   20  C   UNL     1      44.558 -19.489   4.096  1.00  0.00     0.202 C 
BRANCH  20  21
HETATM   21  C   UNL     1      43.740 -20.471   3.313  1.00  0.00    -0.011 C 
HETATM   22  C   UNL     1      43.374 -20.310   2.034  1.00  0.00     0.009 C 
ENDBRANCH  20  21
ENDBRANCH  19  20
ENDBRANCH  16  19
ENDBRANCH   1  13
BRANCH   7  23
HETATM   23  C   UNL     1      40.302 -13.721   2.580  1.00  0.00    -0.005 A 
HETATM   24  C   UNL     1      39.951 -15.075   2.547  1.00  0.00     0.014 A 
HETATM   25  C   UNL     1      39.779 -15.734   1.326  1.00  0.00     0.001 A 
HETATM   26  C   UNL     1      39.971 -15.051   0.126  1.00  0.00     0.000 A 
HETATM   27  C   UNL     1      40.344 -13.709   0.144  1.00  0.00     0.001 A 
HETATM   28  C   UNL     1      40.510 -13.049   1.363  1.00  0.00     0.014 A 
ENDBRANCH   7  23
TORSDOF 5
ENDMDL
MODEL 4
REMARK VINA RESULT:      -7.9      3.503      6.500
REMARK  5 active torsions:
REMARK  status: ('A' for Active; 'I' for Inactive)
REMARK    1  A    between atoms: C_2  and  C_3 
REMARK    2  A    between atoms: C_3  and  O_4 
REMARK    3  A    between atoms: O_4  and  C_5 
REMARK    4  A    between atoms: C_8  and  C_9 
REMARK    5  A    between atoms: C_15  and  C_16 
ROOT
HETATM    1  C   UNL     1      42.046 -13.237   2.090  1.00  0.00     0.066 C 
HETATM    2  C   UNL     1      41.012 -14.274   2.358  1.00  0.00     0.028 A 
HETATM    3  C   UNL     1      39.675 -14.055   2.151  1.00  0.00     0.133 A 
HETATM    4  N   UNL     1      39.020 -15.189   2.511  1.00  0.00    -0.261 N 
HETATM    5  H   UNL     1      38.025 -15.390   2.490  1.00  0.00     0.191 HD
HETATM    6  N   UNL     1      39.845 -16.136   2.972  1.00  0.00    -0.172 NA
HETATM    7  C   UNL     1      41.078 -15.595   2.905  1.00  0.00     0.098 A 
HETATM    8  N   UNL     1      39.175 -12.852   1.722  1.00  0.00    -0.312 N 
HETATM    9  C   UNL     1      40.070 -11.799   1.362  1.00  0.00     0.224 C 
HETATM   10  O   UNL     1      39.553 -10.724   1.104  1.00  0.00    -0.273 OA
HETATM   11  C   UNL     1      41.531 -12.120   1.177  1.00  0.00     0.117 C 
HETATM   12  H   UNL     1      38.183 -12.650   1.693  1.00  0.00     0.170 HD
ENDROOT
BRANCH   1  13
HETATM   13  C   UNL     1      42.549 -12.701   3.420  1.00  0.00    -0.049 A 
HETATM   14  C   UNL     1      43.864 -12.202   3.478  1.00  0.00     0.010 A 
HETATM   15  C   UNL     1      44.373 -11.628   4.648  1.00  0.00     0.037 A 
HETATM   16  C   UNL     1      43.574 -11.535   5.782  1.00  0.00     0.069 A 
HETATM   17  C   UNL     1      42.279 -12.050   5.749  1.00  0.00     0.037 A 
HETATM   18  C   UNL     1      41.762 -12.614   4.578  1.00  0.00     0.010 A 
BRANCH  16  19
HETATM   19  O   UNL     1      43.949 -10.981   6.974  1.00  0.00    -0.348 OA
BRANCH  19  20
HETATM   20  C   UNL     1      45.300 -11.211   7.374  1.00  0.00     0.202 C 
BRANCH  20  21
HETATM   21  C   UNL     1      45.586 -10.298   8.529  1.00  0.00    -0.011 C 
HETATM   22  C   UNL     1      45.781  -8.976   8.426  1.00  0.00     0.009 C 
ENDBRANCH  20  21
ENDBRANCH  19  20
ENDBRANCH  16  19
ENDBRANCH   1  13
BRANCH   7  23
HETATM   23  C   UNL     1      42.232 -16.333   3.420  1.00  0.00    -0.005 A 
HETATM   24  C   UNL     1      42.791 -16.056   4.674  1.00  0.00     0.014 A 
HETATM   25  C   UNL     1      43.871 -16.805   5.151  1.00  0.00     0.001 A 
HETATM   26  C   UNL     1      44.413 -17.827   4.374  1.00  0.00     0.000 A 
HETATM   27  C   UNL     1      43.882 -18.099   3.116  1.00  0.00     0.001 A 
HETATM   28  C   UNL     1      42.800 -17.355   2.642  1.00  0.00     0.014 A 
ENDBRANCH   7  23
TORSDOF 5
ENDMDL
MODEL 5
REMARK VINA RESULT:      -7.9      3.495      7.182
REMARK  5 active torsions:
REMARK  status: ('A' for Active; 'I' for Inactive)
REMARK    1  A    between atoms: C_2  and  C_3 
REMARK    2  A    between atoms: C_3  and  O_4 
REMARK    3  A    between atoms: O_4  and  C_5 
REMARK    4  A    between atoms: C_8  and  C_9 
REMARK    5  A    between atoms: C_15  and  C_16 
ROOT
HETATM    1  C   UNL     1      39.663 -13.538   0.534  1.00  0.00     0.066 C 
HETATM    2  C   UNL     1      40.405 -12.250   0.613  1.00  0.00     0.028 A 
HETATM    3  C   UNL     1      41.068 -11.711  -0.460  1.00  0.00     0.133 A 
HETATM    4  N   UNL     1      41.644 -10.557  -0.039  1.00  0.00    -0.261 N 
HETATM    5  H   UNL     1      42.210  -9.894  -0.561  1.00  0.00     0.191 HD
HETATM    6  N   UNL     1      41.425 -10.314   1.258  1.00  0.00    -0.172 NA
HETATM    7  C   UNL     1      40.678 -11.349   1.691  1.00  0.00     0.098 A 
HETATM    8  N   UNL     1      41.138 -12.333  -1.680  1.00  0.00    -0.312 N 
HETATM    9  C   UNL     1      40.410 -13.541  -1.905  1.00  0.00     0.224 C 
HETATM   10  O   UNL     1      40.614 -14.097  -2.971  1.00  0.00    -0.273 OA
HETATM   11  C   UNL     1      39.352 -13.946  -0.910  1.00  0.00     0.117 C 
HETATM   12  H   UNL     1      41.733 -12.002  -2.431  1.00  0.00     0.170 HD
ENDROOT
BRANCH   1  13
HETATM   13  C   UNL     1      40.463 -14.601   1.268  1.00  0.00    -0.049 A 
HETATM   14  C   UNL     1      41.838 -14.708   0.985  1.00  0.00     0.010 A 
HETATM   15  C   UNL     1      42.654 -15.613   1.671  1.00  0.00     0.037 A 
HETATM   16  C   UNL     1      42.112 -16.426   2.662  1.00  0.00     0.069 A 
HETATM   17  C   UNL     1      40.746 -16.351   2.933  1.00  0.00     0.037 A 
HETATM   18  C   UNL     1      39.930 -15.439   2.258  1.00  0.00     0.010 A 
BRANCH  16  19
HETATM   19  O   UNL     1      42.806 -17.333   3.412  1.00  0.00    -0.348 OA
BRANCH  19  20
HETATM   20  C   UNL     1      43.766 -18.124   2.710  1.00  0.00     0.202 C 
BRANCH  20  21
HETATM   21  C   UNL     1      43.050 -19.330   2.180  1.00  0.00    -0.011 C 
HETATM   22  C   UNL     1      43.648 -20.472   1.815  1.00  0.00     0.009 C 
ENDBRANCH  20  21
ENDBRANCH  19  20
ENDBRANCH  16  19
ENDBRANCH   1  13
BRANCH   7  23
HETATM   23  C   UNL     1      40.323 -11.457   3.107  1.00  0.00    -0.005 A 
HETATM   24  C   UNL     1      39.248 -10.750   3.658  1.00  0.00     0.014 A 
HETATM   25  C   UNL     1      38.914 -10.904   5.007  1.00  0.00     0.001 A 
HETATM   26  C   UNL     1      39.659 -11.755   5.821  1.00  0.00     0.000 A 
HETATM   27  C   UNL     1      40.746 -12.446   5.292  1.00  0.00     0.001 A 
HETATM   28  C   UNL     1      41.076 -12.297   3.944  1.00  0.00     0.014 A 
ENDBRANCH   7  23
TORSDOF 5
ENDMDL
MODEL 6
REMARK VINA RESULT:      -7.5      3.339      7.087
REMARK  5 active torsions:
REMARK  status: ('A' for Active; 'I' for Inactive)
REMARK    1  A    between atoms: C_2  and  C_3 
REMARK    2  A    between atoms: C_3  and  O_4 
REMARK    3  A    between atoms: O_4  and  C_5 
REMARK    4  A    between atoms: C_8  and  C_9 
REMARK    5  A    between atoms: C_15  and  C_16 
ROOT
HETATM    1  C   UNL     1      41.628 -15.356   5.428  1.00  0.00     0.066 C 
HETATM    2  C   UNL     1      42.095 -15.786   4.081  1.00  0.00     0.028 A 
HETATM    3  C   UNL     1      42.926 -16.861   3.895  1.00  0.00     0.133 A 
HETATM    4  N   UNL     1      43.167 -16.960   2.563  1.00  0.00    -0.261 N 
HETATM    5  H   UNL     1      43.735 -17.635   2.061  1.00  0.00     0.191 HD
HETATM    6  N   UNL     1      42.566 -15.994   1.858  1.00  0.00    -0.172 NA
HETATM    7  C   UNL     1      41.912 -15.246   2.769  1.00  0.00     0.098 A 
HETATM    8  N   UNL     1      43.428 -17.602   4.935  1.00  0.00    -0.312 N 
HETATM    9  C   UNL     1      42.998 -17.334   6.270  1.00  0.00     0.224 C 
HETATM   10  O   UNL     1      43.575 -17.953   7.150  1.00  0.00    -0.273 OA
HETATM   11  C   UNL     1      41.793 -16.456   6.483  1.00  0.00     0.117 C 
HETATM   12  H   UNL     1      44.140 -18.311   4.809  1.00  0.00     0.170 HD
ENDROOT
BRANCH   1  13
HETATM   13  C   UNL     1      42.362 -14.083   5.810  1.00  0.00    -0.049 A 
HETATM   14  C   UNL     1      41.695 -12.856   5.631  1.00  0.00     0.010 A 
HETATM   15  C   UNL     1      42.278 -11.646   6.025  1.00  0.00     0.037 A 
HETATM   16  C   UNL     1      43.539 -11.641   6.614  1.00  0.00     0.069 A 
HETATM   17  C   UNL     1      44.223 -12.846   6.772  1.00  0.00     0.037 A 
HETATM   18  C   UNL     1      43.639 -14.057   6.390  1.00  0.00     0.010 A 
BRANCH  16  19
HETATM   19  O   UNL     1      44.203 -10.532   7.055  1.00  0.00    -0.348 OA
BRANCH  19  20
HETATM   20  C   UNL     1      45.502 -10.755   7.604  1.00  0.00     0.202 C 
BRANCH  20  21
HETATM   21  C   UNL     1      45.758  -9.668   8.604  1.00  0.00    -0.011 C 
HETATM   22  C   UNL     1      45.448  -9.740   9.905  1.00  0.00     0.009 C 
ENDBRANCH  20  21
ENDBRANCH  19  20
ENDBRANCH  16  19
ENDBRANCH   1  13
BRANCH   7  23
HETATM   23  C   UNL     1      41.208 -14.032   2.352  1.00  0.00    -0.005 A 
HETATM   24  C   UNL     1      39.818 -13.905   2.462  1.00  0.00     0.014 A 
HETATM   25  C   UNL     1      39.182 -12.717   2.089  1.00  0.00     0.001 A 
HETATM   26  C   UNL     1      39.926 -11.650   1.588  1.00  0.00     0.000 A 
HETATM   27  C   UNL     1      41.307 -11.771   1.451  1.00  0.00     0.001 A 
HETATM   28  C   UNL     1      41.943 -12.955   1.829  1.00  0.00     0.014 A 
ENDBRANCH   7  23
TORSDOF 5
ENDMDL
MODEL 7
REMARK VINA RESULT:      -7.4      8.536     12.650
REMARK  5 active torsions:
REMARK  status: ('A' for Active; 'I' for Inactive)
REMARK    1  A    between atoms: C_2  and  C_3 
REMARK    2  A    between atoms: C_3  and  O_4 
REMARK    3  A    between atoms: O_4  and  C_5 
REMARK    4  A    between atoms: C_8  and  C_9 
REMARK    5  A    between atoms: C_15  and  C_16 
ROOT
HETATM    1  C   UNL     1      41.500  -8.454  12.896  1.00  0.00     0.066 C 
HETATM    2  C   UNL     1      40.291  -7.640  12.590  1.00  0.00     0.028 A 
HETATM    3  C   UNL     1      39.024  -8.164  12.603  1.00  0.00     0.133 A 
HETATM    4  N   UNL     1      38.171  -7.165  12.264  1.00  0.00    -0.261 N 
HETATM    5  H   UNL     1      37.160  -7.186  12.174  1.00  0.00     0.191 HD
HETATM    6  N   UNL     1      38.802  -6.015  12.000  1.00  0.00    -0.172 NA
HETATM    7  C   UNL     1      40.112  -6.282  12.176  1.00  0.00     0.098 A 
HETATM    8  N   UNL     1      38.769  -9.488  12.856  1.00  0.00    -0.312 N 
HETATM    9  C   UNL     1      39.837 -10.358  13.233  1.00  0.00     0.224 C 
HETATM   10  O   UNL     1      39.554 -11.541  13.326  1.00  0.00    -0.273 OA
HETATM   11  C   UNL     1      41.159  -9.754  13.633  1.00  0.00     0.117 C 
HETATM   12  H   UNL     1      37.852  -9.901  12.738  1.00  0.00     0.170 HD
ENDROOT
BRANCH   1  13
HETATM   13  C   UNL     1      42.249  -8.711  11.600  1.00  0.00    -0.049 A 
HETATM   14  C   UNL     1      43.654  -8.776  11.650  1.00  0.00     0.010 A 
HETATM   15  C   UNL     1      44.410  -9.080  10.512  1.00  0.00     0.037 A 
HETATM   16  C   UNL     1      43.772  -9.332   9.301  1.00  0.00     0.069 A 
HETATM   17  C   UNL     1      42.383  -9.244   9.230  1.00  0.00     0.037 A 
HETATM   18  C   UNL     1      41.624  -8.952  10.368  1.00  0.00     0.010 A 
BRANCH  16  19
HETATM   19  O   UNL     1      44.396  -9.656   8.129  1.00  0.00    -0.348 OA
BRANCH  19  20
HETATM   20  C   UNL     1      45.456 -10.606   8.224  1.00  0.00     0.202 C 
BRANCH  20  21
HETATM   21  C   UNL     1      45.248 -11.619   7.139  1.00  0.00    -0.011 C 
HETATM   22  C   UNL     1      44.088 -12.243   6.890  1.00  0.00     0.009 C 
ENDBRANCH  20  21
ENDBRANCH  19  20
ENDBRANCH  16  19
ENDBRANCH   1  13
BRANCH   7  23
HETATM   23  C   UNL     1      41.116  -5.258  11.882  1.00  0.00    -0.005 A 
HETATM   24  C   UNL     1      41.526  -4.324  12.840  1.00  0.00     0.014 A 
HETATM   25  C   UNL     1      42.514  -3.383  12.536  1.00  0.00     0.001 A 
HETATM   26  C   UNL     1      43.091  -3.356  11.268  1.00  0.00     0.000 A 
HETATM   27  C   UNL     1      42.676  -4.264  10.297  1.00  0.00     0.001 A 
HETATM   28  C   UNL     1      41.693  -5.208  10.603  1.00  0.00     0.014 A 
ENDBRANCH   7  23
TORSDOF 5
ENDMDL
MODEL 8
REMARK VINA RESULT:      -7.4     13.932     16.438
REMARK  5 active torsions:
REMARK  status: ('A' for Active; 'I' for Inactive)
REMARK    1  A    between atoms: C_2  and  C_3 
REMARK    2  A    between atoms: C_3  and  O_4 
REMARK    3  A    between atoms: O_4  and  C_5 
REMARK    4  A    between atoms: C_8  and  C_9 
REMARK    5  A    between atoms: C_15  and  C_16 
ROOT
HETATM    1  C   UNL     1      47.086 -28.754   1.033  1.00  0.00     0.066 C 
HETATM    2  C   UNL     1      45.738 -29.383   1.103  1.00  0.00     0.028 A 
HETATM    3  C   UNL     1      45.256 -29.976   2.242  1.00  0.00     0.133 A 
HETATM    4  N   UNL     1      44.021 -30.459   1.953  1.00  0.00    -0.261 N 
HETATM    5  H   UNL     1      43.369 -30.954   2.553  1.00  0.00     0.191 HD
HETATM    6  N   UNL     1      43.669 -30.246   0.680  1.00  0.00    -0.172 NA
HETATM    7  C   UNL     1      44.714 -29.600   0.127  1.00  0.00     0.098 A 
HETATM    8  N   UNL     1      45.990 -30.075   3.396  1.00  0.00    -0.312 N 
HETATM    9  C   UNL     1      47.271 -29.449   3.480  1.00  0.00     0.224 C 
HETATM   10  O   UNL     1      47.912 -29.680   4.492  1.00  0.00    -0.273 OA
HETATM   11  C   UNL     1      47.661 -28.451   2.421  1.00  0.00     0.117 C 
HETATM   12  H   UNL     1      45.687 -30.624   4.192  1.00  0.00     0.170 HD
ENDROOT
BRANCH   1  13
HETATM   13  C   UNL     1      47.999 -29.657   0.221  1.00  0.00    -0.049 A 
HETATM   14  C   UNL     1      48.503 -29.164  -0.997  1.00  0.00     0.010 A 
HETATM   15  C   UNL     1      49.405 -29.908  -1.766  1.00  0.00     0.037 A 
HETATM   16  C   UNL     1      49.827 -31.159  -1.326  1.00  0.00     0.069 A 
HETATM   17  C   UNL     1      49.314 -31.672  -0.136  1.00  0.00     0.037 A 
HETATM   18  C   UNL     1      48.422 -30.927   0.640  1.00  0.00     0.010 A 
BRANCH  16  19
HETATM   19  O   UNL     1      50.714 -31.970  -1.976  1.00  0.00    -0.348 OA
BRANCH  19  20
HETATM   20  C   UNL     1      52.068 -31.518  -2.011  1.00  0.00     0.202 C 
BRANCH  20  21
HETATM   21  C   UNL     1      52.876 -32.464  -1.175  1.00  0.00    -0.011 C 
HETATM   22  C   UNL     1      54.162 -32.769  -1.396  1.00  0.00     0.009 C 
ENDBRANCH  20  21
ENDBRANCH  19  20
ENDBRANCH  16  19
ENDBRANCH   1  13
BRANCH   7  23
HETATM   23  C   UNL     1      44.708 -29.283  -1.302  1.00  0.00    -0.005 A 
HETATM   24  C   UNL     1      45.137 -28.043  -1.790  1.00  0.00     0.014 A 
HETATM   25  C   UNL     1      45.153 -27.787  -3.164  1.00  0.00     0.001 A 
HETATM   26  C   UNL     1      44.727 -28.763  -4.064  1.00  0.00     0.000 A 
HETATM   27  C   UNL     1      44.276 -29.992  -3.592  1.00  0.00     0.001 A 
HETATM   28  C   UNL     1      44.265 -30.250  -2.220  1.00  0.00     0.014 A 
ENDBRANCH   7  23
TORSDOF 5
ENDMDL
MODEL 9
REMARK VINA RESULT:      -7.4      3.417      7.142
REMARK  5 active torsions:
REMARK  status: ('A' for Active; 'I' for Inactive)
REMARK    1  A    between atoms: C_2  and  C_3 
REMARK    2  A    between atoms: C_3  and  O_4 
REMARK    3  A    between atoms: O_4  and  C_5 
REMARK    4  A    between atoms: C_8  and  C_9 
REMARK    5  A    between atoms: C_15  and  C_16 
ROOT
HETATM    1  C   UNL     1      39.795 -13.645   0.585  1.00  0.00     0.066 C 
HETATM    2  C   UNL     1      40.485 -12.330   0.692  1.00  0.00     0.028 A 
HETATM    3  C   UNL     1      41.083 -11.719  -0.380  1.00  0.00     0.133 A 
HETATM    4  N   UNL     1      41.627 -10.559   0.068  1.00  0.00    -0.261 N 
HETATM    5  H   UNL     1      42.144  -9.852  -0.445  1.00  0.00     0.191 HD
HETATM    6  N   UNL     1      41.447 -10.379   1.382  1.00  0.00    -0.172 NA
HETATM    7  C   UNL     1      40.761 -11.462   1.797  1.00  0.00     0.098 A 
HETATM    8  N   UNL     1      41.133 -12.287  -1.628  1.00  0.00    -0.312 N 
HETATM    9  C   UNL     1      40.447 -13.515  -1.877  1.00  0.00     0.224 C 
HETATM   10  O   UNL     1      40.634 -14.018  -2.973  1.00  0.00    -0.273 OA
HETATM   11  C   UNL     1      39.446 -14.006  -0.863  1.00  0.00     0.117 C 
HETATM   12  H   UNL     1      41.684 -11.900  -2.384  1.00  0.00     0.170 HD
ENDROOT
BRANCH   1  13
HETATM   13  C   UNL     1      40.665 -14.701   1.244  1.00  0.00    -0.049 A 
HETATM   14  C   UNL     1      40.042 -15.635   2.093  1.00  0.00     0.010 A 
HETATM   15  C   UNL     1      40.765 -16.680   2.680  1.00  0.00     0.037 A 
HETATM   16  C   UNL     1      42.125 -16.816   2.422  1.00  0.00     0.069 A 
HETATM   17  C   UNL     1      42.761 -15.881   1.605  1.00  0.00     0.037 A 
HETATM   18  C   UNL     1      42.040 -14.843   1.008  1.00  0.00     0.010 A 
BRANCH  16  19
HETATM   19  O   UNL     1      42.933 -17.800   2.919  1.00  0.00    -0.348 OA
BRANCH  19  20
HETATM   20  C   UNL     1      43.925 -17.384   3.856  1.00  0.00     0.202 C 
BRANCH  20  21
HETATM   21  C   UNL     1      43.217 -17.023   5.127  1.00  0.00    -0.011 C 
HETATM   22  C   UNL     1      43.213 -15.801   5.677  1.00  0.00     0.009 C 
ENDBRANCH  20  21
ENDBRANCH  19  20
ENDBRANCH  16  19
ENDBRANCH   1  13
BRANCH   7  23
HETATM   23  C   UNL     1      40.464 -11.644   3.219  1.00  0.00    -0.005 A 
HETATM   24  C   UNL     1      39.374 -11.017   3.835  1.00  0.00     0.014 A 
HETATM   25  C   UNL     1      39.099 -11.241   5.187  1.00  0.00     0.001 A 
HETATM   26  C   UNL     1      39.918 -12.081   5.940  1.00  0.00     0.000 A 
HETATM   27  C   UNL     1      41.019 -12.692   5.346  1.00  0.00     0.001 A 
HETATM   28  C   UNL     1      41.291 -12.473   3.994  1.00  0.00     0.014 A 
ENDBRANCH   7  23
TORSDOF 5
ENDMDL
MODEL 10
REMARK VINA RESULT:      -7.3     14.135     15.590
REMARK  5 active torsions:
REMARK  status: ('A' for Active; 'I' for Inactive)
REMARK    1  A    between atoms: C_2  and  C_3 
REMARK    2  A    between atoms: C_3  and  O_4 
REMARK    3  A    between atoms: O_4  and  C_5 
REMARK    4  A    between atoms: C_8  and  C_9 
REMARK    5  A    between atoms: C_15  and  C_16 
ROOT
HETATM    1  C   UNL     1      46.507 -30.778   0.580  1.00  0.00     0.066 C 
HETATM    2  C   UNL     1      46.949 -29.508  -0.058  1.00  0.00     0.028 A 
HETATM    3  C   UNL     1      47.668 -28.553   0.616  1.00  0.00     0.133 A 
HETATM    4  N   UNL     1      47.884 -27.528  -0.246  1.00  0.00    -0.261 N 
HETATM    5  H   UNL     1      48.381 -26.656  -0.095  1.00  0.00     0.191 HD
HETATM    6  N   UNL     1      47.326 -27.736  -1.445  1.00  0.00    -0.172 NA
HETATM    7  C   UNL     1      46.728 -28.940  -1.353  1.00  0.00     0.098 A 
HETATM    8  N   UNL     1      48.002 -28.671   1.941  1.00  0.00    -0.312 N 
HETATM    9  C   UNL     1      47.697 -29.875   2.646  1.00  0.00     0.224 C 
HETATM   10  O   UNL     1      47.918 -29.861   3.846  1.00  0.00    -0.273 OA
HETATM   11  C   UNL     1      47.290 -31.094   1.859  1.00  0.00     0.117 C 
HETATM   12  H   UNL     1      48.418 -27.914   2.471  1.00  0.00     0.170 HD
ENDROOT
BRANCH   1  13
HETATM   13  C   UNL     1      45.011 -30.698   0.830  1.00  0.00    -0.049 A 
HETATM   14  C   UNL     1      44.220 -31.805   0.470  1.00  0.00     0.010 A 
HETATM   15  C   UNL     1      42.846 -31.835   0.733  1.00  0.00     0.037 A 
HETATM   16  C   UNL     1      42.237 -30.758   1.370  1.00  0.00     0.069 A 
HETATM   17  C   UNL     1      43.002 -29.643   1.708  1.00  0.00     0.037 A 
HETATM   18  C   UNL     1      44.377 -29.615   1.456  1.00  0.00     0.010 A 
BRANCH  16  19
HETATM   19  O   UNL     1      40.913 -30.676   1.697  1.00  0.00    -0.348 OA
BRANCH  19  20
HETATM   20  C   UNL     1      40.400 -31.733   2.507  1.00  0.00     0.202 C 
BRANCH  20  21
HETATM   21  C   UNL     1      40.550 -31.314   3.938  1.00  0.00    -0.011 C 
HETATM   22  C   UNL     1      39.906 -31.877   4.970  1.00  0.00     0.009 C 
ENDBRANCH  20  21
ENDBRANCH  19  20
ENDBRANCH  16  19
ENDBRANCH   1  13
BRANCH   7  23
HETATM   23  C   UNL     1      45.932 -29.452  -2.470  1.00  0.00    -0.005 A 
HETATM   24  C   UNL     1      46.409 -30.455  -3.323  1.00  0.00     0.014 A 
HETATM   25  C   UNL     1      45.608 -30.946  -4.357  1.00  0.00     0.001 A 
HETATM   26  C   UNL     1      44.329 -30.431  -4.560  1.00  0.00     0.000 A 
HETATM   27  C   UNL     1      43.851 -29.417  -3.734  1.00  0.00     0.001 A 
HETATM   28  C   UNL     1      44.648 -28.930  -2.697  1.00  0.00     0.014 A 
ENDBRANCH   7  23
TORSDOF 5
ENDMDL
