MODEL 1
REMARK VINA RESULT:      -8.0      0.000      0.000
REMARK  8 active torsions:
REMARK  status: ('A' for Active; 'I' for Inactive)
REMARK    1  A    between atoms: C_2  and  C_3 
REMARK    2  A    between atoms: C_3  and  C_4 
REMARK       I    between atoms: C_4  and  N_5 
REMARK    3  A    between atoms: N_8  and  C_9 
REMARK    4  A    between atoms: C_12  and  N_13 
REMARK    5  A    between atoms: N_13  and  C_14 
REMARK    6  A    between atoms: C_14  and  N_15 
REMARK       I    between atoms: N_15  and  C_16 
REMARK    7  A    between atoms: C_16  and  C_17 
REMARK    8  A    between atoms: C_18  and  O_19 
ROOT
HETATM    1  C   UNL     1      41.924 -12.372   5.772  1.00  0.00     0.030 A 
HETATM    2  C   UNL     1      40.571 -12.006   5.759  1.00  0.00     0.031 A 
HETATM    3  C   UNL     1      40.119 -10.808   6.325  1.00  0.00     0.032 A 
HETATM    4  C   UNL     1      41.014  -9.930   6.930  1.00  0.00     0.034 A 
HETATM    5  C   UNL     1      42.373 -10.226   6.888  1.00  0.00     0.032 A 
HETATM    6  C   UNL     1      42.812 -11.441   6.337  1.00  0.00     0.031 A 
ENDROOT
BRANCH   4   7
HETATM    7  N   UNL     1      40.585  -8.728   7.534  1.00  0.00    -0.333 N 
HETATM    8  H   UNL     1      40.722  -7.887   6.989  1.00  0.00     0.168 HD
BRANCH   7   9
HETATM    9  C   UNL     1      40.345  -8.534   8.897  1.00  0.00     0.179 C 
HETATM   10  S   UNL     1      39.511  -9.608   9.877  1.00  0.00    -0.040 SA
BRANCH   9  11
HETATM   11  N   UNL     1      40.930  -7.328   9.323  1.00  0.00    -0.299 N 
HETATM   12  C   UNL     1      42.250  -6.888   9.434  1.00  0.00     0.260 C 
HETATM   13  O   UNL     1      42.505  -5.689   9.377  1.00  0.00    -0.267 OA
HETATM   14  H   UNL     1      40.299  -6.541   9.349  1.00  0.00     0.171 HD
BRANCH  12  15
HETATM   15  C   UNL     1      43.314  -7.872   9.729  1.00  0.00     0.067 A 
HETATM   16  C   UNL     1      43.318  -8.594  10.931  1.00  0.00     0.084 A 
HETATM   17  C   UNL     1      44.360  -9.495  11.180  1.00  0.00     0.039 A 
HETATM   18  C   UNL     1      45.359  -9.701  10.223  1.00  0.00     0.026 A 
HETATM   19  C   UNL     1      45.319  -9.008   9.015  1.00  0.00     0.035 A 
HETATM   20 CL   UNL     1      46.551  -9.265   7.841  1.00  0.00    -0.084 Cl
HETATM   21  C   UNL     1      44.299  -8.100   8.755  1.00  0.00     0.043 A 
BRANCH  16  22
HETATM   22  O   UNL     1      42.353  -8.313  11.860  1.00  0.00    -0.355 OA
HETATM   23  C   UNL     1      42.856  -7.814  13.097  1.00  0.00     0.210 C 
ENDBRANCH  16  22
ENDBRANCH  12  15
ENDBRANCH   9  11
ENDBRANCH   7   9
ENDBRANCH   4   7
BRANCH   1  24
HETATM   24  N   UNL     1      42.373 -13.624   5.334  1.00  0.00    -0.378 N 
HETATM   25  C   UNL     1      41.957 -14.070   3.988  1.00  0.00     0.143 C 
HETATM   26  C   UNL     1      42.894 -15.184   3.473  1.00  0.00     0.145 C 
HETATM   27  N   UNL     1      43.088 -16.280   4.432  1.00  0.00    -0.349 N 
HETATM   28  C   UNL     1      43.563 -17.541   4.074  1.00  0.00     0.219 C 
HETATM   29  C   UNL     1      43.348 -15.858   5.811  1.00  0.00     0.145 C 
HETATM   30  O   UNL     1      43.942 -18.355   4.917  1.00  0.00    -0.273 OA
HETATM   31  C   UNL     1      42.423 -14.738   6.305  1.00  0.00     0.143 C 
BRANCH  28  32
HETATM   32  C   UNL     1      43.585 -17.874   2.591  1.00  0.00     0.103 C 
BRANCH  32  33
HETATM   33  C   UNL     1      42.792 -19.144   2.278  1.00  0.00     0.005 C 
HETATM   34  C   UNL     1      43.707 -20.307   1.934  1.00  0.00     0.005 C 
ENDBRANCH  32  33
ENDBRANCH  28  32
ENDBRANCH   1  24
TORSDOF 8
ENDMDL
MODEL 2
REMARK VINA RESULT:      -7.9      2.361      3.069
REMARK  8 active torsions:
REMARK  status: ('A' for Active; 'I' for Inactive)
REMARK    1  A    between atoms: C_2  and  C_3 
REMARK    2  A    between atoms: C_3  and  C_4 
REMARK       I    between atoms: C_4  and  N_5 
REMARK    3  A    between atoms: N_8  and  C_9 
REMARK    4  A    between atoms: C_12  and  N_13 
REMARK    5  A    between atoms: N_13  and  C_14 
REMARK    6  A    between atoms: C_14  and  N_15 
REMARK       I    between atoms: N_15  and  C_16 
REMARK    7  A    between atoms: C_16  and  C_17 
REMARK    8  A    between atoms: C_18  and  O_19 
ROOT
HETATM    1  C   UNL     1      43.161 -12.829   6.060  1.00  0.00     0.030 A 
HETATM    2  C   UNL     1      42.123 -11.962   5.690  1.00  0.00     0.031 A 
HETATM    3  C   UNL     1      41.894 -10.751   6.354  1.00  0.00     0.032 A 
HETATM    4  C   UNL     1      42.701 -10.364   7.420  1.00  0.00     0.034 A 
HETATM    5  C   UNL     1      43.788 -11.163   7.759  1.00  0.00     0.032 A 
HETATM    6  C   UNL     1      43.995 -12.387   7.101  1.00  0.00     0.031 A 
ENDROOT
BRANCH   4   7
HETATM    7  N   UNL     1      42.477  -9.162   8.127  1.00  0.00    -0.333 N 
HETATM    8  H   UNL     1      43.296  -8.738   8.545  1.00  0.00     0.168 HD
BRANCH   7   9
HETATM    9  C   UNL     1      41.247  -8.711   8.611  1.00  0.00     0.179 C 
HETATM   10  S   UNL     1      40.517  -7.272   8.154  1.00  0.00    -0.040 SA
BRANCH   9  11
HETATM   11  N   UNL     1      40.706  -9.651   9.505  1.00  0.00    -0.299 N 
HETATM   12  C   UNL     1      40.420  -9.624  10.871  1.00  0.00     0.260 C 
HETATM   13  O   UNL     1      39.548 -10.356  11.331  1.00  0.00    -0.267 OA
HETATM   14  H   UNL     1      40.220 -10.419   9.065  1.00  0.00     0.171 HD
BRANCH  12  15
HETATM   15  C   UNL     1      41.252  -8.789  11.764  1.00  0.00     0.067 A 
HETATM   16  C   UNL     1      42.639  -8.979  11.847  1.00  0.00     0.084 A 
HETATM   17  C   UNL     1      43.383  -8.183  12.726  1.00  0.00     0.039 A 
HETATM   18  C   UNL     1      42.756  -7.185  13.478  1.00  0.00     0.026 A 
HETATM   19  C   UNL     1      41.383  -6.979  13.355  1.00  0.00     0.035 A 
HETATM   20 CL   UNL     1      40.616  -5.751  14.284  1.00  0.00    -0.084 Cl
HETATM   21  C   UNL     1      40.625  -7.769  12.496  1.00  0.00     0.043 A 
BRANCH  16  22
HETATM   22  O   UNL     1      43.197 -10.006  11.136  1.00  0.00    -0.355 OA
HETATM   23  C   UNL     1      44.604  -9.889  10.939  1.00  0.00     0.210 C 
ENDBRANCH  16  22
ENDBRANCH  12  15
ENDBRANCH   9  11
ENDBRANCH   7   9
ENDBRANCH   4   7
BRANCH   1  24
HETATM   24  N   UNL     1      43.318 -14.101   5.500  1.00  0.00    -0.378 N 
HETATM   25  C   UNL     1      42.511 -14.430   4.306  1.00  0.00     0.143 C 
HETATM   26  C   UNL     1      43.133 -15.619   3.542  1.00  0.00     0.145 C 
HETATM   27  N   UNL     1      43.432 -16.777   4.397  1.00  0.00    -0.349 N 
HETATM   28  C   UNL     1      43.634 -18.065   3.907  1.00  0.00     0.219 C 
HETATM   29  C   UNL     1      44.096 -16.455   5.664  1.00  0.00     0.145 C 
HETATM   30  O   UNL     1      44.116 -18.958   4.605  1.00  0.00    -0.273 OA
HETATM   31  C   UNL     1      43.481 -15.260   6.405  1.00  0.00     0.143 C 
BRANCH  28  32
HETATM   32  C   UNL     1      43.226 -18.326   2.465  1.00  0.00     0.103 C 
BRANCH  32  33
HETATM   33  C   UNL     1      42.793 -19.777   2.248  1.00  0.00     0.005 C 
HETATM   34  C   UNL     1      43.894 -20.601   1.602  1.00  0.00     0.005 C 
ENDBRANCH  32  33
ENDBRANCH  28  32
ENDBRANCH   1  24
TORSDOF 8
ENDMDL
MODEL 3
REMARK VINA RESULT:      -7.8      3.123     10.383
REMARK  8 active torsions:
REMARK  status: ('A' for Active; 'I' for Inactive)
REMARK    1  A    between atoms: C_2  and  C_3 
REMARK    2  A    between atoms: C_3  and  C_4 
REMARK       I    between atoms: C_4  and  N_5 
REMARK    3  A    between atoms: N_8  and  C_9 
REMARK    4  A    between atoms: C_12  and  N_13 
REMARK    5  A    between atoms: N_13  and  C_14 
REMARK    6  A    between atoms: C_14  and  N_15 
REMARK       I    between atoms: N_15  and  C_16 
REMARK    7  A    between atoms: C_16  and  C_17 
REMARK    8  A    between atoms: C_18  and  O_19 
ROOT
HETATM    1  C   UNL     1      43.276  -9.947   8.433  1.00  0.00     0.030 A 
HETATM    2  C   UNL     1      44.301 -10.895   8.309  1.00  0.00     0.031 A 
HETATM    3  C   UNL     1      44.343 -11.810   7.249  1.00  0.00     0.032 A 
HETATM    4  C   UNL     1      43.352 -11.806   6.272  1.00  0.00     0.034 A 
HETATM    5  C   UNL     1      42.366 -10.826   6.323  1.00  0.00     0.032 A 
HETATM    6  C   UNL     1      42.321  -9.928   7.403  1.00  0.00     0.031 A 
ENDROOT
BRANCH   4   7
HETATM    7  N   UNL     1      43.352 -12.734   5.208  1.00  0.00    -0.333 N 
HETATM    8  H   UNL     1      44.263 -13.037   4.887  1.00  0.00     0.168 HD
BRANCH   7   9
HETATM    9  C   UNL     1      42.289 -12.984   4.335  1.00  0.00     0.179 C 
HETATM   10  S   UNL     1      42.220 -12.454   2.746  1.00  0.00    -0.040 SA
BRANCH   9  11
HETATM   11  N   UNL     1      41.312 -13.766   4.977  1.00  0.00    -0.299 N 
HETATM   12  C   UNL     1      41.197 -15.132   5.242  1.00  0.00     0.260 C 
HETATM   13  O   UNL     1      40.522 -15.518   6.192  1.00  0.00    -0.267 OA
HETATM   14  H   UNL     1      40.672 -13.245   5.557  1.00  0.00     0.171 HD
BRANCH  12  15
HETATM   15  C   UNL     1      41.804 -16.100   4.304  1.00  0.00     0.067 A 
HETATM   16  C   UNL     1      41.314 -16.248   2.998  1.00  0.00     0.084 A 
HETATM   17  C   UNL     1      41.903 -17.197   2.154  1.00  0.00     0.039 A 
HETATM   18  C   UNL     1      42.991 -17.956   2.596  1.00  0.00     0.026 A 
HETATM   19  C   UNL     1      43.495 -17.769   3.881  1.00  0.00     0.035 A 
HETATM   20 CL   UNL     1      44.833 -18.707   4.420  1.00  0.00    -0.084 Cl
HETATM   21  C   UNL     1      42.915 -16.840   4.738  1.00  0.00     0.043 A 
BRANCH  16  22
HETATM   22  O   UNL     1      40.211 -15.525   2.633  1.00  0.00    -0.355 OA
HETATM   23  C   UNL     1      40.075 -15.328   1.229  1.00  0.00     0.210 C 
ENDBRANCH  16  22
ENDBRANCH  12  15
ENDBRANCH   9  11
ENDBRANCH   7   9
ENDBRANCH   4   7
BRANCH   1  24
HETATM   24  N   UNL     1      43.144  -9.120   9.555  1.00  0.00    -0.378 N 
HETATM   25  C   UNL     1      43.362  -9.727  10.884  1.00  0.00     0.143 C 
HETATM   26  C   UNL     1      43.666  -8.636  11.935  1.00  0.00     0.145 C 
HETATM   27  N   UNL     1      42.696  -7.532  11.934  1.00  0.00    -0.349 N 
HETATM   28  C   UNL     1      42.533  -6.650  13.000  1.00  0.00     0.219 C 
HETATM   29  C   UNL     1      42.345  -7.017  10.608  1.00  0.00     0.145 C 
HETATM   30  O   UNL     1      41.897  -5.601  12.884  1.00  0.00    -0.273 OA
HETATM   31  C   UNL     1      42.064  -8.110   9.568  1.00  0.00     0.143 C 
BRANCH  28  32
HETATM   32  C   UNL     1      43.173  -7.041  14.323  1.00  0.00     0.103 C 
BRANCH  32  33
HETATM   33  C   UNL     1      42.126  -7.320  15.403  1.00  0.00     0.005 C 
HETATM   34  C   UNL     1      41.180  -8.435  14.994  1.00  0.00     0.005 C 
ENDBRANCH  32  33
ENDBRANCH  28  32
ENDBRANCH   1  24
TORSDOF 8
ENDMDL
MODEL 4
REMARK VINA RESULT:      -7.5      7.001      9.237
REMARK  8 active torsions:
REMARK  status: ('A' for Active; 'I' for Inactive)
REMARK    1  A    between atoms: C_2  and  C_3 
REMARK    2  A    between atoms: C_3  and  C_4 
REMARK       I    between atoms: C_4  and  N_5 
REMARK    3  A    between atoms: N_8  and  C_9 
REMARK    4  A    between atoms: C_12  and  N_13 
REMARK    5  A    between atoms: N_13  and  C_14 
REMARK    6  A    between atoms: C_14  and  N_15 
REMARK       I    between atoms: N_15  and  C_16 
REMARK    7  A    between atoms: C_16  and  C_17 
REMARK    8  A    between atoms: C_18  and  O_19 
ROOT
HETATM    1  C   UNL     1      40.733 -14.171   3.039  1.00  0.00     0.030 A 
HETATM    2  C   UNL     1      40.675 -13.993   1.650  1.00  0.00     0.031 A 
HETATM    3  C   UNL     1      39.818 -13.059   1.055  1.00  0.00     0.032 A 
HETATM    4  C   UNL     1      38.983 -12.267   1.837  1.00  0.00     0.034 A 
HETATM    5  C   UNL     1      39.075 -12.362   3.222  1.00  0.00     0.032 A 
HETATM    6  C   UNL     1      39.922 -13.318   3.807  1.00  0.00     0.031 A 
ENDROOT
BRANCH   4   7
HETATM    7  N   UNL     1      38.088 -11.336   1.265  1.00  0.00    -0.333 N 
HETATM    8  H   UNL     1      37.161 -11.686   1.058  1.00  0.00     0.168 HD
BRANCH   7   9
HETATM    9  C   UNL     1      38.439 -10.140   0.632  1.00  0.00     0.179 C 
HETATM   10  S   UNL     1      39.638  -9.099   1.170  1.00  0.00    -0.040 SA
BRANCH   9  11
HETATM   11  N   UNL     1      37.664  -9.963  -0.527  1.00  0.00    -0.299 N 
HETATM   12  C   UNL     1      37.406 -10.762  -1.642  1.00  0.00     0.260 C 
HETATM   13  O   UNL     1      36.368 -10.609  -2.279  1.00  0.00    -0.267 OA
HETATM   14  H   UNL     1      36.982  -9.221  -0.467  1.00  0.00     0.171 HD
BRANCH  12  15
HETATM   15  C   UNL     1      38.442 -11.710  -2.103  1.00  0.00     0.067 A 
HETATM   16  C   UNL     1      39.716 -11.261  -2.482  1.00  0.00     0.084 A 
HETATM   17  C   UNL     1      40.657 -12.191  -2.939  1.00  0.00     0.039 A 
HETATM   18  C   UNL     1      40.343 -13.553  -2.975  1.00  0.00     0.026 A 
HETATM   19  C   UNL     1      39.088 -13.990  -2.556  1.00  0.00     0.035 A 
HETATM   20 CL   UNL     1      38.706 -15.667  -2.604  1.00  0.00    -0.084 Cl
HETATM   21  C   UNL     1      38.136 -13.079  -2.111  1.00  0.00     0.043 A 
BRANCH  16  22
HETATM   22  O   UNL     1      39.955  -9.913  -2.485  1.00  0.00    -0.355 OA
HETATM   23  C   UNL     1      41.324  -9.559  -2.312  1.00  0.00     0.210 C 
ENDBRANCH  16  22
ENDBRANCH  12  15
ENDBRANCH   9  11
ENDBRANCH   7   9
ENDBRANCH   4   7
BRANCH   1  24
HETATM   24  N   UNL     1      41.480 -15.191   3.640  1.00  0.00    -0.378 N 
HETATM   25  C   UNL     1      42.042 -16.238   2.762  1.00  0.00     0.143 C 
HETATM   26  C   UNL     1      43.202 -16.972   3.468  1.00  0.00     0.145 C 
HETATM   27  N   UNL     1      42.866 -17.443   4.819  1.00  0.00    -0.349 N 
HETATM   28  C   UNL     1      43.584 -18.430   5.491  1.00  0.00     0.219 C 
HETATM   29  C   UNL     1      42.164 -16.467   5.658  1.00  0.00     0.145 C 
HETATM   30  O   UNL     1      43.434 -18.634   6.697  1.00  0.00    -0.273 OA
HETATM   31  C   UNL     1      41.026 -15.731   4.940  1.00  0.00     0.143 C 
BRANCH  28  32
HETATM   32  C   UNL     1      44.560 -19.255   4.668  1.00  0.00     0.103 C 
BRANCH  32  33
HETATM   33  C   UNL     1      43.948 -20.583   4.217  1.00  0.00     0.005 C 
HETATM   34  C   UNL     1      43.620 -20.574   2.734  1.00  0.00     0.005 C 
ENDBRANCH  32  33
ENDBRANCH  28  32
ENDBRANCH   1  24
TORSDOF 8
ENDMDL
MODEL 5
REMARK VINA RESULT:      -7.4      1.758      2.353
REMARK  8 active torsions:
REMARK  status: ('A' for Active; 'I' for Inactive)
REMARK    1  A    between atoms: C_2  and  C_3 
REMARK    2  A    between atoms: C_3  and  C_4 
REMARK       I    between atoms: C_4  and  N_5 
REMARK    3  A    between atoms: N_8  and  C_9 
REMARK    4  A    between atoms: C_12  and  N_13 
REMARK    5  A    between atoms: N_13  and  C_14 
REMARK    6  A    between atoms: C_14  and  N_15 
REMARK       I    between atoms: N_15  and  C_16 
REMARK    7  A    between atoms: C_16  and  C_17 
REMARK    8  A    between atoms: C_18  and  O_19 
ROOT
HETATM    1  C   UNL     1      42.507 -12.263   5.485  1.00  0.00     0.030 A 
HETATM    2  C   UNL     1      42.804 -11.796   6.773  1.00  0.00     0.031 A 
HETATM    3  C   UNL     1      42.598 -10.462   7.146  1.00  0.00     0.032 A 
HETATM    4  C   UNL     1      42.085  -9.543   6.235  1.00  0.00     0.034 A 
HETATM    5  C   UNL     1      41.704  -9.994   4.975  1.00  0.00     0.032 A 
HETATM    6  C   UNL     1      41.936 -11.329   4.604  1.00  0.00     0.031 A 
ENDROOT
BRANCH   4   7
HETATM    7  N   UNL     1      41.893  -8.186   6.573  1.00  0.00    -0.333 N 
HETATM    8  H   UNL     1      42.549  -7.532   6.164  1.00  0.00     0.168 HD
BRANCH   7   9
HETATM    9  C   UNL     1      41.160  -7.706   7.662  1.00  0.00     0.179 C 
HETATM   10  S   UNL     1      39.626  -8.238   8.081  1.00  0.00    -0.040 SA
BRANCH   9  11
HETATM   11  N   UNL     1      41.909  -6.744   8.361  1.00  0.00    -0.299 N 
HETATM   12  C   UNL     1      43.109  -6.792   9.072  1.00  0.00     0.260 C 
HETATM   13  O   UNL     1      43.792  -5.778   9.192  1.00  0.00    -0.267 OA
HETATM   14  H   UNL     1      41.675  -5.787   8.140  1.00  0.00     0.171 HD
BRANCH  12  15
HETATM   15  C   UNL     1      43.486  -8.043   9.764  1.00  0.00     0.067 A 
HETATM   16  C   UNL     1      44.639  -8.753   9.396  1.00  0.00     0.084 A 
HETATM   17  C   UNL     1      44.942  -9.947  10.061  1.00  0.00     0.039 A 
HETATM   18  C   UNL     1      44.129 -10.401  11.103  1.00  0.00     0.026 A 
HETATM   19  C   UNL     1      43.010  -9.664  11.486  1.00  0.00     0.035 A 
HETATM   20 CL   UNL     1      42.011 -10.228  12.769  1.00  0.00    -0.084 Cl
HETATM   21  C   UNL     1      42.686  -8.481  10.829  1.00  0.00     0.043 A 
BRANCH  16  22
HETATM   22  O   UNL     1      45.369  -8.300   8.332  1.00  0.00    -0.355 OA
HETATM   23  C   UNL     1      46.310  -9.240   7.821  1.00  0.00     0.210 C 
ENDBRANCH  16  22
ENDBRANCH  12  15
ENDBRANCH   9  11
ENDBRANCH   7   9
ENDBRANCH   4   7
BRANCH   1  24
HETATM   24  N   UNL     1      42.833 -13.554   5.056  1.00  0.00    -0.378 N 
HETATM   25  C   UNL     1      42.223 -14.035   3.799  1.00  0.00     0.143 C 
HETATM   26  C   UNL     1      43.029 -15.218   3.223  1.00  0.00     0.145 C 
HETATM   27  N   UNL     1      43.296 -16.282   4.201  1.00  0.00    -0.349 N 
HETATM   28  C   UNL     1      43.658 -17.580   3.848  1.00  0.00     0.219 C 
HETATM   29  C   UNL     1      43.756 -15.815   5.512  1.00  0.00     0.145 C 
HETATM   30  O   UNL     1      44.107 -18.377   4.674  1.00  0.00    -0.273 OA
HETATM   31  C   UNL     1      42.958 -14.627   6.067  1.00  0.00     0.143 C 
BRANCH  28  32
HETATM   32  C   UNL     1      43.469 -17.977   2.393  1.00  0.00     0.103 C 
BRANCH  32  33
HETATM   33  C   UNL     1      42.748 -19.319   2.255  1.00  0.00     0.005 C 
HETATM   34  C   UNL     1      43.697 -20.425   1.826  1.00  0.00     0.005 C 
ENDBRANCH  32  33
ENDBRANCH  28  32
ENDBRANCH   1  24
TORSDOF 8
ENDMDL
MODEL 6
REMARK VINA RESULT:      -7.2      6.504      9.955
REMARK  8 active torsions:
REMARK  status: ('A' for Active; 'I' for Inactive)
REMARK    1  A    between atoms: C_2  and  C_3 
REMARK    2  A    between atoms: C_3  and  C_4 
REMARK       I    between atoms: C_4  and  N_5 
REMARK    3  A    between atoms: N_8  and  C_9 
REMARK    4  A    between atoms: C_12  and  N_13 
REMARK    5  A    between atoms: N_13  and  C_14 
REMARK    6  A    between atoms: C_14  and  N_15 
REMARK       I    between atoms: N_15  and  C_16 
REMARK    7  A    between atoms: C_16  and  C_17 
REMARK    8  A    between atoms: C_18  and  O_19 
ROOT
HETATM    1  C   UNL     1      42.218  -8.480  12.877  1.00  0.00     0.030 A 
HETATM    2  C   UNL     1      41.210  -9.002  13.701  1.00  0.00     0.031 A 
HETATM    3  C   UNL     1      41.041  -8.582  15.026  1.00  0.00     0.032 A 
HETATM    4  C   UNL     1      41.882  -7.619  15.576  1.00  0.00     0.034 A 
HETATM    5  C   UNL     1      42.839  -7.023  14.760  1.00  0.00     0.032 A 
HETATM    6  C   UNL     1      43.015  -7.468  13.439  1.00  0.00     0.031 A 
ENDROOT
BRANCH   4   7
HETATM    7  N   UNL     1      41.754  -7.196  16.916  1.00  0.00    -0.333 N 
HETATM    8  H   UNL     1      42.501  -7.474  17.540  1.00  0.00     0.168 HD
BRANCH   7   9
HETATM    9  C   UNL     1      40.574  -6.773  17.536  1.00  0.00     0.179 C 
HETATM   10  S   UNL     1      39.946  -5.223  17.424  1.00  0.00    -0.040 SA
BRANCH   9  11
HETATM   11  N   UNL     1      39.985  -7.843  18.232  1.00  0.00    -0.299 N 
HETATM   12  C   UNL     1      39.737  -8.089  19.583  1.00  0.00     0.260 C 
HETATM   13  O   UNL     1      38.823  -8.840  19.913  1.00  0.00    -0.267 OA
HETATM   14  H   UNL     1      39.430  -8.463  17.660  1.00  0.00     0.171 HD
BRANCH  12  15
HETATM   15  C   UNL     1      40.654  -7.525  20.597  1.00  0.00     0.067 A 
HETATM   16  C   UNL     1      41.943  -8.047  20.777  1.00  0.00     0.084 A 
HETATM   17  C   UNL     1      42.766  -7.500  21.768  1.00  0.00     0.039 A 
HETATM   18  C   UNL     1      42.322  -6.419  22.537  1.00  0.00     0.026 A 
HETATM   19  C   UNL     1      41.055  -5.883  22.319  1.00  0.00     0.035 A 
HETATM   20 CL   UNL     1      40.513  -4.555  23.269  1.00  0.00    -0.084 Cl
HETATM   21  C   UNL     1      40.218  -6.423  21.348  1.00  0.00     0.043 A 
BRANCH  16  22
HETATM   22  O   UNL     1      42.309  -9.142  20.041  1.00  0.00    -0.355 OA
HETATM   23  C   UNL     1      42.608 -10.299  20.818  1.00  0.00     0.210 C 
ENDBRANCH  16  22
ENDBRANCH  12  15
ENDBRANCH   9  11
ENDBRANCH   7   9
ENDBRANCH   4   7
BRANCH   1  24
HETATM   24  N   UNL     1      42.487  -8.985  11.600  1.00  0.00    -0.378 N 
HETATM   25  C   UNL     1      43.752  -9.724  11.407  1.00  0.00     0.143 C 
HETATM   26  C   UNL     1      43.676 -10.609  10.144  1.00  0.00     0.145 C 
HETATM   27  N   UNL     1      43.216  -9.889   8.948  1.00  0.00    -0.349 N 
HETATM   28  C   UNL     1      43.419 -10.348   7.648  1.00  0.00     0.219 C 
HETATM   29  C   UNL     1      42.051  -9.025   9.155  1.00  0.00     0.145 C 
HETATM   30  O   UNL     1      42.822  -9.861   6.687  1.00  0.00    -0.273 OA
HETATM   31  C   UNL     1      42.130  -8.164  10.423  1.00  0.00     0.143 C 
BRANCH  28  32
HETATM   32  C   UNL     1      44.418 -11.479   7.464  1.00  0.00     0.103 C 
BRANCH  32  33
HETATM   33  C   UNL     1      45.705 -11.000   6.788  1.00  0.00     0.005 C 
HETATM   34  C   UNL     1      46.477 -10.034   7.671  1.00  0.00     0.005 C 
ENDBRANCH  32  33
ENDBRANCH  28  32
ENDBRANCH   1  24
TORSDOF 8
ENDMDL
MODEL 7
REMARK VINA RESULT:      -7.1      5.949      9.393
REMARK  8 active torsions:
REMARK  status: ('A' for Active; 'I' for Inactive)
REMARK    1  A    between atoms: C_2  and  C_3 
REMARK    2  A    between atoms: C_3  and  C_4 
REMARK       I    between atoms: C_4  and  N_5 
REMARK    3  A    between atoms: N_8  and  C_9 
REMARK    4  A    between atoms: C_12  and  N_13 
REMARK    5  A    between atoms: N_13  and  C_14 
REMARK    6  A    between atoms: C_14  and  N_15 
REMARK       I    between atoms: N_15  and  C_16 
REMARK    7  A    between atoms: C_16  and  C_17 
REMARK    8  A    between atoms: C_18  and  O_19 
ROOT
HETATM    1  C   UNL     1      40.981 -11.752   1.847  1.00  0.00     0.030 A 
HETATM    2  C   UNL     1      42.230 -12.200   2.299  1.00  0.00     0.031 A 
HETATM    3  C   UNL     1      42.457 -12.544   3.637  1.00  0.00     0.032 A 
HETATM    4  C   UNL     1      41.433 -12.448   4.575  1.00  0.00     0.034 A 
HETATM    5  C   UNL     1      40.162 -12.084   4.143  1.00  0.00     0.032 A 
HETATM    6  C   UNL     1      39.951 -11.720   2.803  1.00  0.00     0.031 A 
ENDROOT
BRANCH   4   7
HETATM    7  N   UNL     1      41.639 -12.760   5.937  1.00  0.00    -0.333 N 
HETATM    8  H   UNL     1      41.871 -11.980   6.538  1.00  0.00     0.168 HD
BRANCH   7   9
HETATM    9  C   UNL     1      41.917 -14.028   6.456  1.00  0.00     0.179 C 
HETATM   10  S   UNL     1      43.369 -14.463   7.172  1.00  0.00    -0.040 SA
BRANCH   9  11
HETATM   11  N   UNL     1      40.794 -14.862   6.317  1.00  0.00    -0.299 N 
HETATM   12  C   UNL     1      40.523 -15.985   5.532  1.00  0.00     0.260 C 
HETATM   13  O   UNL     1      39.687 -16.805   5.902  1.00  0.00    -0.267 OA
HETATM   14  H   UNL     1      40.125 -14.796   7.070  1.00  0.00     0.171 HD
BRANCH  12  15
HETATM   15  C   UNL     1      41.171 -16.112   4.209  1.00  0.00     0.067 A 
HETATM   16  C   UNL     1      42.396 -16.777   4.066  1.00  0.00     0.084 A 
HETATM   17  C   UNL     1      42.987 -16.849   2.798  1.00  0.00     0.039 A 
HETATM   18  C   UNL     1      42.340 -16.301   1.686  1.00  0.00     0.026 A 
HETATM   19  C   UNL     1      41.102 -15.679   1.837  1.00  0.00     0.035 A 
HETATM   20 CL   UNL     1      40.312 -15.004   0.466  1.00  0.00    -0.084 Cl
HETATM   21  C   UNL     1      40.506 -15.587   3.090  1.00  0.00     0.043 A 
BRANCH  16  22
HETATM   22  O   UNL     1      43.018 -17.245   5.192  1.00  0.00    -0.355 OA
HETATM   23  C   UNL     1      44.370 -17.648   4.993  1.00  0.00     0.210 C 
ENDBRANCH  16  22
ENDBRANCH  12  15
ENDBRANCH   9  11
ENDBRANCH   7   9
ENDBRANCH   4   7
BRANCH   1  24
HETATM   24  N   UNL     1      40.774 -11.275   0.547  1.00  0.00    -0.378 N 
HETATM   25  C   UNL     1      41.567 -10.107   0.110  1.00  0.00     0.143 C 
HETATM   26  C   UNL     1      41.596 -10.018  -1.431  1.00  0.00     0.145 C 
HETATM   27  N   UNL     1      40.266 -10.103  -2.051  1.00  0.00    -0.349 N 
HETATM   28  C   UNL     1      39.994  -9.680  -3.351  1.00  0.00     0.219 C 
HETATM   29  C   UNL     1      39.402 -11.161  -1.521  1.00  0.00     0.145 C 
HETATM   30  O   UNL     1      38.946  -9.979  -3.925  1.00  0.00    -0.273 OA
HETATM   31  C   UNL     1      39.396 -11.252   0.011  1.00  0.00     0.143 C 
BRANCH  28  32
HETATM   32  C   UNL     1      41.049  -8.821  -4.032  1.00  0.00     0.103 C 
BRANCH  32  33
HETATM   33  C   UNL     1      40.429  -7.634  -4.771  1.00  0.00     0.005 C 
HETATM   34  C   UNL     1      40.429  -7.847  -6.275  1.00  0.00     0.005 C 
ENDBRANCH  32  33
ENDBRANCH  28  32
ENDBRANCH   1  24
TORSDOF 8
ENDMDL
MODEL 8
REMARK VINA RESULT:      -7.1      5.918      8.323
REMARK  8 active torsions:
REMARK  status: ('A' for Active; 'I' for Inactive)
REMARK    1  A    between atoms: C_2  and  C_3 
REMARK    2  A    between atoms: C_3  and  C_4 
REMARK       I    between atoms: C_4  and  N_5 
REMARK    3  A    between atoms: N_8  and  C_9 
REMARK    4  A    between atoms: C_12  and  N_13 
REMARK    5  A    between atoms: N_13  and  C_14 
REMARK    6  A    between atoms: C_14  and  N_15 
REMARK       I    between atoms: N_15  and  C_16 
REMARK    7  A    between atoms: C_16  and  C_17 
REMARK    8  A    between atoms: C_18  and  O_19 
ROOT
HETATM    1  C   UNL     1      41.025 -13.465   3.967  1.00  0.00     0.030 A 
HETATM    2  C   UNL     1      41.544 -12.205   4.299  1.00  0.00     0.031 A 
HETATM    3  C   UNL     1      40.910 -11.016   3.917  1.00  0.00     0.032 A 
HETATM    4  C   UNL     1      39.728 -11.049   3.182  1.00  0.00     0.034 A 
HETATM    5  C   UNL     1      39.146 -12.282   2.908  1.00  0.00     0.032 A 
HETATM    6  C   UNL     1      39.802 -13.469   3.276  1.00  0.00     0.031 A 
ENDROOT
BRANCH   4   7
HETATM    7  N   UNL     1      39.082  -9.867   2.759  1.00  0.00    -0.333 N 
HETATM    8  H   UNL     1      38.267  -9.594   3.294  1.00  0.00     0.168 HD
BRANCH   7   9
HETATM    9  C   UNL     1      39.214  -9.262   1.506  1.00  0.00     0.179 C 
HETATM   10  S   UNL     1      37.992  -8.422   0.724  1.00  0.00    -0.040 SA
BRANCH   9  11
HETATM   11  N   UNL     1      40.523  -9.436   1.022  1.00  0.00    -0.299 N 
HETATM   12  C   UNL     1      41.052 -10.029  -0.126  1.00  0.00     0.260 C 
HETATM   13  O   UNL     1      42.140  -9.663  -0.559  1.00  0.00    -0.267 OA
HETATM   14  H   UNL     1      41.213  -8.839   1.453  1.00  0.00     0.171 HD
BRANCH  12  15
HETATM   15  C   UNL     1      40.339 -11.168  -0.741  1.00  0.00     0.067 A 
HETATM   16  C   UNL     1      39.553 -10.995  -1.889  1.00  0.00     0.084 A 
HETATM   17  C   UNL     1      38.874 -12.097  -2.421  1.00  0.00     0.039 A 
HETATM   18  C   UNL     1      39.012 -13.361  -1.838  1.00  0.00     0.026 A 
HETATM   19  C   UNL     1      39.829 -13.527  -0.722  1.00  0.00     0.035 A 
HETATM   20 CL   UNL     1      39.995 -15.083  -0.007  1.00  0.00    -0.084 Cl
HETATM   21  C   UNL     1      40.502 -12.441  -0.172  1.00  0.00     0.043 A 
BRANCH  16  22
HETATM   22  O   UNL     1      39.401  -9.729  -2.387  1.00  0.00    -0.355 OA
HETATM   23  C   UNL     1      39.052  -9.679  -3.768  1.00  0.00     0.210 C 
ENDBRANCH  16  22
ENDBRANCH  12  15
ENDBRANCH   9  11
ENDBRANCH   7   9
ENDBRANCH   4   7
BRANCH   1  24
HETATM   24  N   UNL     1      41.714 -14.656   4.222  1.00  0.00    -0.378 N 
HETATM   25  C   UNL     1      42.090 -15.493   3.063  1.00  0.00     0.143 C 
HETATM   26  C   UNL     1      43.227 -16.466   3.442  1.00  0.00     0.145 C 
HETATM   27  N   UNL     1      42.962 -17.230   4.669  1.00  0.00    -0.349 N 
HETATM   28  C   UNL     1      43.633 -18.405   5.004  1.00  0.00     0.219 C 
HETATM   29  C   UNL     1      42.439 -16.442   5.789  1.00  0.00     0.145 C 
HETATM   30  O   UNL     1      43.569 -18.890   6.135  1.00  0.00    -0.273 OA
HETATM   31  C   UNL     1      41.323 -15.465   5.396  1.00  0.00     0.143 C 
BRANCH  28  32
HETATM   32  C   UNL     1      44.446 -19.072   3.906  1.00  0.00     0.103 C 
BRANCH  32  33
HETATM   33  C   UNL     1      43.771 -20.343   3.386  1.00  0.00     0.005 C 
HETATM   34  C   UNL     1      43.318 -20.188   1.944  1.00  0.00     0.005 C 
ENDBRANCH  32  33
ENDBRANCH  28  32
ENDBRANCH   1  24
TORSDOF 8
ENDMDL
MODEL 9
REMARK VINA RESULT:      -7.0      6.602     12.446
REMARK  8 active torsions:
REMARK  status: ('A' for Active; 'I' for Inactive)
REMARK    1  A    between atoms: C_2  and  C_3 
REMARK    2  A    between atoms: C_3  and  C_4 
REMARK       I    between atoms: C_4  and  N_5 
REMARK    3  A    between atoms: N_8  and  C_9 
REMARK    4  A    between atoms: C_12  and  N_13 
REMARK    5  A    between atoms: N_13  and  C_14 
REMARK    6  A    between atoms: C_14  and  N_15 
REMARK       I    between atoms: N_15  and  C_16 
REMARK    7  A    between atoms: C_16  and  C_17 
REMARK    8  A    between atoms: C_18  and  O_19 
ROOT
HETATM    1  C   UNL     1      42.141  -7.312  15.306  1.00  0.00     0.030 A 
HETATM    2  C   UNL     1      43.129  -7.071  14.341  1.00  0.00     0.031 A 
HETATM    3  C   UNL     1      43.314  -7.917  13.240  1.00  0.00     0.032 A 
HETATM    4  C   UNL     1      42.512  -9.042  13.068  1.00  0.00     0.034 A 
HETATM    5  C   UNL     1      41.471  -9.263  13.964  1.00  0.00     0.032 A 
HETATM    6  C   UNL     1      41.308  -8.421  15.077  1.00  0.00     0.031 A 
ENDROOT
BRANCH   4   7
HETATM    7  N   UNL     1      42.694  -9.928  11.984  1.00  0.00    -0.333 N 
HETATM    8  H   UNL     1      43.212 -10.773  12.188  1.00  0.00     0.168 HD
BRANCH   7   9
HETATM    9  C   UNL     1      42.567  -9.606  10.630  1.00  0.00     0.179 C 
HETATM   10  S   UNL     1      43.857  -9.420   9.575  1.00  0.00    -0.040 SA
BRANCH   9  11
HETATM   11  N   UNL     1      41.209  -9.495  10.285  1.00  0.00    -0.299 N 
HETATM   12  C   UNL     1      40.355  -8.410  10.080  1.00  0.00     0.260 C 
HETATM   13  O   UNL     1      39.374  -8.529   9.352  1.00  0.00    -0.267 OA
HETATM   14  H   UNL     1      40.806 -10.332   9.891  1.00  0.00     0.171 HD
BRANCH  12  15
HETATM   15  C   UNL     1      40.588  -7.159  10.834  1.00  0.00     0.067 A 
HETATM   16  C   UNL     1      39.830  -6.849  11.972  1.00  0.00     0.084 A 
HETATM   17  C   UNL     1      40.066  -5.640  12.638  1.00  0.00     0.039 A 
HETATM   18  C   UNL     1      41.074  -4.777  12.197  1.00  0.00     0.026 A 
HETATM   19  C   UNL     1      41.848  -5.117  11.090  1.00  0.00     0.035 A 
HETATM   20 CL   UNL     1      43.086  -4.051  10.551  1.00  0.00    -0.084 Cl
HETATM   21  C   UNL     1      41.619  -6.308  10.408  1.00  0.00     0.043 A 
BRANCH  16  22
HETATM   22  O   UNL     1      38.816  -7.697  12.328  1.00  0.00    -0.355 OA
HETATM   23  C   UNL     1      37.648  -7.044  12.816  1.00  0.00     0.210 C 
ENDBRANCH  16  22
ENDBRANCH  12  15
ENDBRANCH   9  11
ENDBRANCH   7   9
ENDBRANCH   4   7
BRANCH   1  24
HETATM   24  N   UNL     1      42.032  -6.558  16.480  1.00  0.00    -0.378 N 
HETATM   25  C   UNL     1      41.738  -7.280  17.735  1.00  0.00     0.143 C 
HETATM   26  C   UNL     1      42.130  -6.423  18.958  1.00  0.00     0.145 C 
HETATM   27  N   UNL     1      41.592  -5.056  18.916  1.00  0.00    -0.349 N 
HETATM   28  C   UNL     1      41.485  -4.236  20.037  1.00  0.00     0.219 C 
HETATM   29  C   UNL     1      41.734  -4.375  17.626  1.00  0.00     0.145 C 
HETATM   30  O   UNL     1      41.262  -3.028  19.940  1.00  0.00    -0.273 OA
HETATM   31  C   UNL     1      41.360  -5.242  16.417  1.00  0.00     0.143 C 
BRANCH  28  32
HETATM   32  C   UNL     1      41.650  -4.899  21.395  1.00  0.00     0.103 C 
BRANCH  32  33
HETATM   33  C   UNL     1      40.308  -5.084  22.107  1.00  0.00     0.005 C 
HETATM   34  C   UNL     1      39.781  -6.500  21.953  1.00  0.00     0.005 C 
ENDBRANCH  32  33
ENDBRANCH  28  32
ENDBRANCH   1  24
TORSDOF 8
ENDMDL
MODEL 10
REMARK VINA RESULT:      -7.0      4.099      6.969
REMARK  8 active torsions:
REMARK  status: ('A' for Active; 'I' for Inactive)
REMARK    1  A    between atoms: C_2  and  C_3 
REMARK    2  A    between atoms: C_3  and  C_4 
REMARK       I    between atoms: C_4  and  N_5 
REMARK    3  A    between atoms: N_8  and  C_9 
REMARK    4  A    between atoms: C_12  and  N_13 
REMARK    5  A    between atoms: N_13  and  C_14 
REMARK    6  A    between atoms: C_14  and  N_15 
REMARK       I    between atoms: N_15  and  C_16 
REMARK    7  A    between atoms: C_16  and  C_17 
REMARK    8  A    between atoms: C_18  and  O_19 
ROOT
HETATM    1  C   UNL     1      43.168  -7.893  11.023  1.00  0.00     0.030 A 
HETATM    2  C   UNL     1      43.302  -8.324  12.350  1.00  0.00     0.031 A 
HETATM    3  C   UNL     1      42.951  -7.510  13.435  1.00  0.00     0.032 A 
HETATM    4  C   UNL     1      42.453  -6.228  13.225  1.00  0.00     0.034 A 
HETATM    5  C   UNL     1      42.233  -5.801  11.919  1.00  0.00     0.032 A 
HETATM    6  C   UNL     1      42.609  -6.617  10.839  1.00  0.00     0.031 A 
ENDROOT
BRANCH   4   7
HETATM    7  N   UNL     1      42.118  -5.374  14.299  1.00  0.00    -0.333 N 
HETATM    8  H   UNL     1      42.715  -4.566  14.423  1.00  0.00     0.168 HD
BRANCH   7   9
HETATM    9  C   UNL     1      41.314  -5.706  15.393  1.00  0.00     0.179 C 
HETATM   10  S   UNL     1      41.851  -6.532  16.749  1.00  0.00    -0.040 SA
BRANCH   9  11
HETATM   11  N   UNL     1      40.010  -5.219  15.198  1.00  0.00    -0.299 N 
HETATM   12  C   UNL     1      38.866  -5.748  14.597  1.00  0.00     0.260 C 
HETATM   13  O   UNL     1      37.754  -5.362  14.946  1.00  0.00    -0.267 OA
HETATM   14  H   UNL     1      39.762  -4.435  15.784  1.00  0.00     0.171 HD
BRANCH  12  15
HETATM   15  C   UNL     1      39.018  -6.692  13.469  1.00  0.00     0.067 A 
HETATM   16  C   UNL     1      38.835  -6.270  12.144  1.00  0.00     0.084 A 
HETATM   17  C   UNL     1      38.962  -7.204  11.109  1.00  0.00     0.039 A 
HETATM   18  C   UNL     1      39.307  -8.529  11.392  1.00  0.00     0.026 A 
HETATM   19  C   UNL     1      39.526  -8.925  12.710  1.00  0.00     0.035 A 
HETATM   20 CL   UNL     1      39.949 -10.557  13.053  1.00  0.00    -0.084 Cl
HETATM   21  C   UNL     1      39.393  -8.014  13.752  1.00  0.00     0.043 A 
BRANCH  16  22
HETATM   22  O   UNL     1      38.441  -4.978  11.922  1.00  0.00    -0.355 OA
HETATM   23  C   UNL     1      38.935  -4.412  10.711  1.00  0.00     0.210 C 
ENDBRANCH  16  22
ENDBRANCH  12  15
ENDBRANCH   9  11
ENDBRANCH   7   9
ENDBRANCH   4   7
BRANCH   1  24
HETATM   24  N   UNL     1      43.640  -8.638   9.936  1.00  0.00    -0.378 N 
HETATM   25  C   UNL     1      42.662  -9.457   9.189  1.00  0.00     0.143 C 
HETATM   26  C   UNL     1      43.205  -9.804   7.786  1.00  0.00     0.145 C 
HETATM   27  N   UNL     1      44.565 -10.363   7.802  1.00  0.00    -0.349 N 
HETATM   28  C   UNL     1      45.112 -11.085   6.744  1.00  0.00     0.219 C 
HETATM   29  C   UNL     1      45.515  -9.653   8.663  1.00  0.00     0.145 C 
HETATM   30  O   UNL     1      46.318 -11.331   6.681  1.00  0.00    -0.273 OA
HETATM   31  C   UNL     1      44.958  -9.298  10.048  1.00  0.00     0.143 C 
BRANCH  28  32
HETATM   32  C   UNL     1      44.153 -11.565   5.667  1.00  0.00     0.103 C 
BRANCH  32  33
HETATM   33  C   UNL     1      43.638 -12.978   5.949  1.00  0.00     0.005 C 
HETATM   34  C   UNL     1      42.891 -13.552   4.757  1.00  0.00     0.005 C 
ENDBRANCH  32  33
ENDBRANCH  28  32
ENDBRANCH   1  24
TORSDOF 8
ENDMDL
