MODEL 1
REMARK VINA RESULT:      -8.6      0.000      0.000
REMARK  6 active torsions:
REMARK  status: ('A' for Active; 'I' for Inactive)
REMARK    1  A    between atoms: C_5  and  C_6 
REMARK    2  A    between atoms: C_6  and  N_7 
REMARK    3  A    between atoms: C_6  and  C_11 
REMARK       I    between atoms: N_7  and  C_8 
REMARK    4  A    between atoms: C_11  and  C_12 
REMARK       I    between atoms: C_12  and  N_13 
REMARK    5  A    between atoms: N_13  and  C_14 
REMARK    6  A    between atoms: C_16  and  C_17 
ROOT
HETATM    1  C   UNL     1      42.962 -14.093   6.728  1.00  0.00     0.224 C 
HETATM    2  N   UNL     1      43.270 -12.801   6.342  1.00  0.00    -0.327 N 
HETATM    3  O   UNL     1      43.259 -14.631   7.790  1.00  0.00    -0.273 OA
HETATM    4  H   UNL     1      42.827 -12.463   5.495  1.00  0.00     0.169 HD
ENDROOT
BRANCH   1   5
HETATM    5  C   UNL     1      42.128 -14.835   5.702  1.00  0.00     0.133 C 
BRANCH   5   6
HETATM    6  C   UNL     1      42.861 -14.869   4.356  1.00  0.00     0.126 C 
BRANCH   6   7
HETATM    7  C   UNL     1      43.096 -16.282   3.837  1.00  0.00    -0.035 A 
HETATM    8  C   UNL     1      42.530 -16.678   2.616  1.00  0.00     0.010 A 
HETATM    9  C   UNL     1      42.756 -17.959   2.103  1.00  0.00     0.007 A 
HETATM   10  C   UNL     1      43.556 -18.870   2.798  1.00  0.00    -0.062 A 
HETATM   11  C   UNL     1      43.792 -20.252   2.266  1.00  0.00     0.048 C 
HETATM   12  C   UNL     1      44.117 -18.484   4.020  1.00  0.00     0.007 A 
HETATM   13  C   UNL     1      43.891 -17.204   4.532  1.00  0.00     0.010 A 
ENDBRANCH   6   7
BRANCH   6  14
HETATM   14  N   UNL     1      42.266 -14.027   3.319  1.00  0.00    -0.352 N 
HETATM   15  C   UNL     1      42.722 -12.784   2.948  1.00  0.00     0.214 C 
HETATM   16  C   UNL     1      41.856 -12.096   1.927  1.00  0.00     0.117 C 
HETATM   17  O   UNL     1      43.732 -12.253   3.397  1.00  0.00    -0.274 OA
HETATM   18  H   UNL     1      41.331 -14.284   3.030  1.00  0.00     0.163 HD
ENDBRANCH   6  14
ENDBRANCH   5   6
ENDBRANCH   1   5
BRANCH   2  19
HETATM   19  C   UNL     1      44.066 -11.862   7.031  1.00  0.00     0.035 A 
HETATM   20  C   UNL     1      43.614 -11.095   8.109  1.00  0.00     0.042 A 
HETATM   21  C   UNL     1      44.464 -10.185   8.762  1.00  0.00    -0.021 A 
HETATM   22  C   UNL     1      45.787 -10.062   8.318  1.00  0.00     0.012 A 
HETATM   23  C   UNL     1      46.249 -10.825   7.245  1.00  0.00     0.003 A 
HETATM   24  C   UNL     1      45.392 -11.721   6.607  1.00  0.00     0.029 A 
BRANCH  21  25
HETATM   25  C   UNL     1      43.995  -9.387   9.888  1.00  0.00     0.010 A 
HETATM   26  C   UNL     1      43.960  -9.669  11.275  1.00  0.00     0.152 A 
HETATM   27  N   UNL     1      43.461  -8.663  11.999  1.00  0.00    -0.187 NA
HETATM   28  N   UNL     1      43.168  -7.732  11.078  1.00  0.00    -0.289 N 
HETATM   29  H   UNL     1      42.764  -6.855  11.390  1.00  0.00     0.188 HD
HETATM   30  C   UNL     1      43.475  -8.113   9.804  1.00  0.00     0.123 A 
ENDBRANCH  21  25
ENDBRANCH   2  19
TORSDOF 6
ENDMDL
MODEL 2
REMARK VINA RESULT:      -8.5      1.825      2.547
REMARK  6 active torsions:
REMARK  status: ('A' for Active; 'I' for Inactive)
REMARK    1  A    between atoms: C_5  and  C_6 
REMARK    2  A    between atoms: C_6  and  N_7 
REMARK    3  A    between atoms: C_6  and  C_11 
REMARK       I    between atoms: N_7  and  C_8 
REMARK    4  A    between atoms: C_11  and  C_12 
REMARK       I    between atoms: C_12  and  N_13 
REMARK    5  A    between atoms: N_13  and  C_14 
REMARK    6  A    between atoms: C_16  and  C_17 
ROOT
HETATM    1  C   UNL     1      43.861 -11.330   4.846  1.00  0.00     0.224 C 
HETATM    2  N   UNL     1      44.794 -11.589   5.833  1.00  0.00    -0.327 N 
HETATM    3  O   UNL     1      43.078 -10.386   4.807  1.00  0.00    -0.273 OA
HETATM    4  H   UNL     1      45.461 -12.329   5.644  1.00  0.00     0.169 HD
ENDROOT
BRANCH   1   5
HETATM    5  C   UNL     1      43.906 -12.333   3.710  1.00  0.00     0.133 C 
BRANCH   5   6
HETATM    6  C   UNL     1      42.592 -13.119   3.650  1.00  0.00     0.126 C 
BRANCH   6   7
HETATM    7  C   UNL     1      42.791 -14.600   3.361  1.00  0.00    -0.035 A 
HETATM    8  C   UNL     1      42.951 -15.036   2.036  1.00  0.00     0.010 A 
HETATM    9  C   UNL     1      43.167 -16.387   1.747  1.00  0.00     0.007 A 
HETATM   10  C   UNL     1      43.231 -17.331   2.776  1.00  0.00    -0.062 A 
HETATM   11  C   UNL     1      43.446 -18.785   2.475  1.00  0.00     0.048 C 
HETATM   12  C   UNL     1      43.065 -16.905   4.097  1.00  0.00     0.007 A 
HETATM   13  C   UNL     1      42.850 -15.555   4.386  1.00  0.00     0.010 A 
ENDBRANCH   6   7
BRANCH   6  14
HETATM   14  N   UNL     1      41.716 -12.928   4.806  1.00  0.00    -0.352 N 
HETATM   15  C   UNL     1      40.350 -12.785   4.751  1.00  0.00     0.214 C 
HETATM   16  C   UNL     1      39.713 -12.498   6.085  1.00  0.00     0.117 C 
HETATM   17  O   UNL     1      39.683 -12.870   3.725  1.00  0.00    -0.274 OA
HETATM   18  H   UNL     1      42.178 -12.654   5.663  1.00  0.00     0.163 HD
ENDBRANCH   6  14
ENDBRANCH   5   6
ENDBRANCH   1   5
BRANCH   2  19
HETATM   19  C   UNL     1      44.985 -10.889   7.043  1.00  0.00     0.035 A 
HETATM   20  C   UNL     1      44.079 -10.905   8.108  1.00  0.00     0.042 A 
HETATM   21  C   UNL     1      44.336 -10.196   9.294  1.00  0.00    -0.021 A 
HETATM   22  C   UNL     1      45.530  -9.470   9.398  1.00  0.00     0.012 A 
HETATM   23  C   UNL     1      46.443  -9.450   8.343  1.00  0.00     0.003 A 
HETATM   24  C   UNL     1      46.171 -10.157   7.172  1.00  0.00     0.029 A 
BRANCH  21  25
HETATM   25  C   UNL     1      43.395 -10.215  10.406  1.00  0.00     0.010 A 
HETATM   26  C   UNL     1      42.125  -9.607  10.557  1.00  0.00     0.152 A 
HETATM   27  N   UNL     1      41.557  -9.871  11.737  1.00  0.00    -0.187 NA
HETATM   28  N   UNL     1      42.464 -10.647  12.351  1.00  0.00    -0.289 N 
HETATM   29  H   UNL     1      42.257 -10.982  13.287  1.00  0.00     0.188 HD
HETATM   30  C   UNL     1      43.574 -10.887  11.597  1.00  0.00     0.123 A 
ENDBRANCH  21  25
ENDBRANCH   2  19
TORSDOF 6
ENDMDL
MODEL 3
REMARK VINA RESULT:      -8.3      4.393      8.559
REMARK  6 active torsions:
REMARK  status: ('A' for Active; 'I' for Inactive)
REMARK    1  A    between atoms: C_5  and  C_6 
REMARK    2  A    between atoms: C_6  and  N_7 
REMARK    3  A    between atoms: C_6  and  C_11 
REMARK       I    between atoms: N_7  and  C_8 
REMARK    4  A    between atoms: C_11  and  C_12 
REMARK       I    between atoms: C_12  and  N_13 
REMARK    5  A    between atoms: N_13  and  C_14 
REMARK    6  A    between atoms: C_16  and  C_17 
ROOT
HETATM    1  C   UNL     1      41.593 -13.914   2.999  1.00  0.00     0.224 C 
HETATM    2  N   UNL     1      41.865 -13.149   1.879  1.00  0.00    -0.327 N 
HETATM    3  O   UNL     1      40.488 -14.280   3.386  1.00  0.00    -0.273 OA
HETATM    4  H   UNL     1      42.841 -13.056   1.620  1.00  0.00     0.169 HD
ENDROOT
BRANCH   1   5
HETATM    5  C   UNL     1      42.843 -14.345   3.740  1.00  0.00     0.133 C 
BRANCH   5   6
HETATM    6  C   UNL     1      42.554 -15.597   4.576  1.00  0.00     0.126 C 
BRANCH   6   7
HETATM    7  C   UNL     1      42.936 -16.891   3.870  1.00  0.00    -0.035 A 
HETATM    8  C   UNL     1      43.899 -17.737   4.442  1.00  0.00     0.010 A 
HETATM    9  C   UNL     1      44.246 -18.945   3.829  1.00  0.00     0.007 A 
HETATM   10  C   UNL     1      43.634 -19.336   2.635  1.00  0.00    -0.062 A 
HETATM   11  C   UNL     1      44.011 -20.622   1.961  1.00  0.00     0.048 C 
HETATM   12  C   UNL     1      42.680 -18.494   2.056  1.00  0.00     0.007 A 
HETATM   13  C   UNL     1      42.334 -17.286   2.668  1.00  0.00     0.010 A 
ENDBRANCH   6   7
BRANCH   6  14
HETATM   14  N   UNL     1      43.101 -15.562   5.932  1.00  0.00    -0.352 N 
HETATM   15  C   UNL     1      42.385 -15.790   7.083  1.00  0.00     0.214 C 
HETATM   16  C   UNL     1      43.178 -15.586   8.346  1.00  0.00     0.117 C 
HETATM   17  O   UNL     1      41.204 -16.121   7.111  1.00  0.00    -0.274 OA
HETATM   18  H   UNL     1      44.003 -15.114   6.026  1.00  0.00     0.163 HD
ENDBRANCH   6  14
ENDBRANCH   5   6
ENDBRANCH   1   5
BRANCH   2  19
HETATM   19  C   UNL     1      40.940 -12.547   1.001  1.00  0.00     0.035 A 
HETATM   20  C   UNL     1      40.343 -13.205  -0.078  1.00  0.00     0.042 A 
HETATM   21  C   UNL     1      39.416 -12.552  -0.908  1.00  0.00    -0.021 A 
HETATM   22  C   UNL     1      39.090 -11.217  -0.632  1.00  0.00     0.012 A 
HETATM   23  C   UNL     1      39.677 -10.551   0.444  1.00  0.00     0.003 A 
HETATM   24  C   UNL     1      40.597 -11.214   1.257  1.00  0.00     0.029 A 
BRANCH  21  25
HETATM   25  C   UNL     1      38.791 -13.237  -2.031  1.00  0.00     0.010 A 
HETATM   26  C   UNL     1      39.258 -14.293  -2.851  1.00  0.00     0.152 A 
HETATM   27  N   UNL     1      38.373 -14.660  -3.783  1.00  0.00    -0.187 NA
HETATM   28  N   UNL     1      37.335 -13.837  -3.569  1.00  0.00    -0.289 N 
HETATM   29  H   UNL     1      36.520 -13.922  -4.167  1.00  0.00     0.188 HD
HETATM   30  C   UNL     1      37.532 -12.974  -2.531  1.00  0.00     0.123 A 
ENDBRANCH  21  25
ENDBRANCH   2  19
TORSDOF 6
ENDMDL
MODEL 4
REMARK VINA RESULT:      -8.1      4.254      8.394
REMARK  6 active torsions:
REMARK  status: ('A' for Active; 'I' for Inactive)
REMARK    1  A    between atoms: C_5  and  C_6 
REMARK    2  A    between atoms: C_6  and  N_7 
REMARK    3  A    between atoms: C_6  and  C_11 
REMARK       I    between atoms: N_7  and  C_8 
REMARK    4  A    between atoms: C_11  and  C_12 
REMARK       I    between atoms: C_12  and  N_13 
REMARK    5  A    between atoms: N_13  and  C_14 
REMARK    6  A    between atoms: C_16  and  C_17 
ROOT
HETATM    1  C   UNL     1      40.940 -15.098   0.979  1.00  0.00     0.224 C 
HETATM    2  N   UNL     1      40.912 -14.395  -0.212  1.00  0.00    -0.327 N 
HETATM    3  O   UNL     1      39.970 -15.462   1.637  1.00  0.00    -0.273 OA
HETATM    4  H   UNL     1      41.795 -14.298  -0.701  1.00  0.00     0.169 HD
ENDROOT
BRANCH   1   5
HETATM    5  C   UNL     1      42.344 -15.458   1.422  1.00  0.00     0.133 C 
BRANCH   5   6
HETATM    6  C   UNL     1      42.406 -15.546   2.951  1.00  0.00     0.126 C 
BRANCH   6   7
HETATM    7  C   UNL     1      42.987 -16.861   3.453  1.00  0.00    -0.035 A 
HETATM    8  C   UNL     1      43.272 -17.020   4.818  1.00  0.00     0.010 A 
HETATM    9  C   UNL     1      43.776 -18.229   5.309  1.00  0.00     0.007 A 
HETATM   10  C   UNL     1      44.003 -19.304   4.447  1.00  0.00    -0.062 A 
HETATM   11  C   UNL     1      44.560 -20.599   4.960  1.00  0.00     0.048 C 
HETATM   12  C   UNL     1      43.730 -19.150   3.085  1.00  0.00     0.007 A 
HETATM   13  C   UNL     1      43.225 -17.943   2.594  1.00  0.00     0.010 A 
ENDBRANCH   6   7
BRANCH   6  14
HETATM   14  N   UNL     1      43.058 -14.408   3.599  1.00  0.00    -0.352 N 
HETATM   15  C   UNL     1      42.408 -13.383   4.244  1.00  0.00     0.214 C 
HETATM   16  C   UNL     1      43.323 -12.290   4.728  1.00  0.00     0.117 C 
HETATM   17  O   UNL     1      41.195 -13.330   4.416  1.00  0.00    -0.274 OA
HETATM   18  H   UNL     1      44.027 -14.260   3.348  1.00  0.00     0.163 HD
ENDBRANCH   6  14
ENDBRANCH   5   6
ENDBRANCH   1   5
BRANCH   2  19
HETATM   19  C   UNL     1      39.785 -13.865  -0.874  1.00  0.00     0.035 A 
HETATM   20  C   UNL     1      39.092 -12.727  -0.450  1.00  0.00     0.042 A 
HETATM   21  C   UNL     1      37.983 -12.242  -1.164  1.00  0.00    -0.021 A 
HETATM   22  C   UNL     1      37.581 -12.919  -2.324  1.00  0.00     0.012 A 
HETATM   23  C   UNL     1      38.268 -14.053  -2.758  1.00  0.00     0.003 A 
HETATM   24  C   UNL     1      39.365 -14.522  -2.036  1.00  0.00     0.029 A 
BRANCH  21  25
HETATM   25  C   UNL     1      37.261 -11.055  -0.726  1.00  0.00     0.010 A 
HETATM   26  C   UNL     1      37.025 -10.538   0.571  1.00  0.00     0.152 A 
HETATM   27  N   UNL     1      36.319  -9.404   0.560  1.00  0.00    -0.187 NA
HETATM   28  N   UNL     1      36.094  -9.190  -0.746  1.00  0.00    -0.289 N 
HETATM   29  H   UNL     1      35.561  -8.370  -1.016  1.00  0.00     0.188 HD
HETATM   30  C   UNL     1      36.640 -10.143  -1.554  1.00  0.00     0.123 A 
ENDBRANCH  21  25
ENDBRANCH   2  19
TORSDOF 6
ENDMDL
MODEL 5
REMARK VINA RESULT:      -7.8      1.576      1.830
REMARK  6 active torsions:
REMARK  status: ('A' for Active; 'I' for Inactive)
REMARK    1  A    between atoms: C_5  and  C_6 
REMARK    2  A    between atoms: C_6  and  N_7 
REMARK    3  A    between atoms: C_6  and  C_11 
REMARK       I    between atoms: N_7  and  C_8 
REMARK    4  A    between atoms: C_11  and  C_12 
REMARK       I    between atoms: C_12  and  N_13 
REMARK    5  A    between atoms: N_13  and  C_14 
REMARK    6  A    between atoms: C_16  and  C_17 
ROOT
HETATM    1  C   UNL     1      43.213 -12.826   6.424  1.00  0.00     0.224 C 
HETATM    2  N   UNL     1      44.411 -12.376   6.949  1.00  0.00    -0.327 N 
HETATM    3  O   UNL     1      42.207 -12.156   6.214  1.00  0.00    -0.273 OA
HETATM    4  H   UNL     1      45.189 -13.025   6.924  1.00  0.00     0.169 HD
ENDROOT
BRANCH   1   5
HETATM    5  C   UNL     1      43.245 -14.295   6.051  1.00  0.00     0.133 C 
BRANCH   5   6
HETATM    6  C   UNL     1      42.794 -14.478   4.598  1.00  0.00     0.126 C 
BRANCH   6   7
HETATM    7  C   UNL     1      43.058 -15.878   4.059  1.00  0.00    -0.035 A 
HETATM    8  C   UNL     1      42.821 -16.160   2.705  1.00  0.00     0.010 A 
HETATM    9  C   UNL     1      43.085 -17.428   2.180  1.00  0.00     0.007 A 
HETATM   10  C   UNL     1      43.595 -18.441   2.996  1.00  0.00    -0.062 A 
HETATM   11  C   UNL     1      43.866 -19.811   2.447  1.00  0.00     0.048 C 
HETATM   12  C   UNL     1      43.826 -18.170   4.348  1.00  0.00     0.007 A 
HETATM   13  C   UNL     1      43.563 -16.902   4.873  1.00  0.00     0.010 A 
ENDBRANCH   6   7
BRANCH   6  14
HETATM   14  N   UNL     1      41.414 -14.071   4.334  1.00  0.00    -0.352 N 
HETATM   15  C   UNL     1      41.017 -13.212   3.337  1.00  0.00     0.214 C 
HETATM   16  C   UNL     1      39.547 -12.887   3.361  1.00  0.00     0.117 C 
HETATM   17  O   UNL     1      41.769 -12.729   2.496  1.00  0.00    -0.274 OA
HETATM   18  H   UNL     1      40.755 -14.256   5.078  1.00  0.00     0.163 HD
ENDBRANCH   6  14
ENDBRANCH   5   6
ENDBRANCH   1   5
BRANCH   2  19
HETATM   19  C   UNL     1      44.706 -11.088   7.441  1.00  0.00     0.035 A 
HETATM   20  C   UNL     1      43.738 -10.166   7.850  1.00  0.00     0.042 A 
HETATM   21  C   UNL     1      44.099  -8.901   8.345  1.00  0.00    -0.021 A 
HETATM   22  C   UNL     1      45.460  -8.575   8.431  1.00  0.00     0.012 A 
HETATM   23  C   UNL     1      46.434  -9.489   8.029  1.00  0.00     0.003 A 
HETATM   24  C   UNL     1      46.058 -10.739   7.538  1.00  0.00     0.029 A 
BRANCH  21  25
HETATM   25  C   UNL     1      43.091  -7.940   8.775  1.00  0.00     0.010 A 
HETATM   26  C   UNL     1      41.699  -7.880   8.523  1.00  0.00     0.152 A 
HETATM   27  N   UNL     1      41.108  -6.835   9.110  1.00  0.00    -0.187 NA
HETATM   28  N   UNL     1      42.120  -6.217   9.737  1.00  0.00    -0.289 N 
HETATM   29  H   UNL     1      41.918  -5.373  10.264  1.00  0.00     0.188 HD
HETATM   30  C   UNL     1      43.322  -6.840   9.574  1.00  0.00     0.123 A 
ENDBRANCH  21  25
ENDBRANCH   2  19
TORSDOF 6
ENDMDL
MODEL 6
REMARK VINA RESULT:      -7.8      4.868      8.320
REMARK  6 active torsions:
REMARK  status: ('A' for Active; 'I' for Inactive)
REMARK    1  A    between atoms: C_5  and  C_6 
REMARK    2  A    between atoms: C_6  and  N_7 
REMARK    3  A    between atoms: C_6  and  C_11 
REMARK       I    between atoms: N_7  and  C_8 
REMARK    4  A    between atoms: C_11  and  C_12 
REMARK       I    between atoms: C_12  and  N_13 
REMARK    5  A    between atoms: N_13  and  C_14 
REMARK    6  A    between atoms: C_16  and  C_17 
ROOT
HETATM    1  C   UNL     1      40.195 -14.632   1.144  1.00  0.00     0.224 C 
HETATM    2  N   UNL     1      40.349 -14.516  -0.226  1.00  0.00    -0.327 N 
HETATM    3  O   UNL     1      39.613 -13.845   1.885  1.00  0.00    -0.273 OA
HETATM    4  H   UNL     1      40.729 -15.323  -0.708  1.00  0.00     0.169 HD
ENDROOT
BRANCH   1   5
HETATM    5  C   UNL     1      40.788 -15.910   1.701  1.00  0.00     0.133 C 
BRANCH   5   6
HETATM    6  C   UNL     1      41.666 -15.595   2.918  1.00  0.00     0.126 C 
BRANCH   6   7
HETATM    7  C   UNL     1      42.472 -16.792   3.403  1.00  0.00    -0.035 A 
HETATM    8  C   UNL     1      42.788 -16.914   4.765  1.00  0.00     0.010 A 
HETATM    9  C   UNL     1      43.500 -18.019   5.239  1.00  0.00     0.007 A 
HETATM   10  C   UNL     1      43.909 -19.028   4.364  1.00  0.00    -0.062 A 
HETATM   11  C   UNL     1      44.688 -20.210   4.860  1.00  0.00     0.048 C 
HETATM   12  C   UNL     1      43.605 -18.910   3.004  1.00  0.00     0.007 A 
HETATM   13  C   UNL     1      42.893 -17.805   2.530  1.00  0.00     0.010 A 
ENDBRANCH   6   7
BRANCH   6  14
HETATM   14  N   UNL     1      42.523 -14.419   2.761  1.00  0.00    -0.352 N 
HETATM   15  C   UNL     1      42.610 -13.376   3.652  1.00  0.00     0.214 C 
HETATM   16  C   UNL     1      43.493 -12.249   3.187  1.00  0.00     0.117 C 
HETATM   17  O   UNL     1      42.026 -13.333   4.730  1.00  0.00    -0.274 OA
HETATM   18  H   UNL     1      42.890 -14.268   1.831  1.00  0.00     0.163 HD
ENDBRANCH   6  14
ENDBRANCH   5   6
ENDBRANCH   1   5
BRANCH   2  19
HETATM   19  C   UNL     1      39.963 -13.438  -1.049  1.00  0.00     0.035 A 
HETATM   20  C   UNL     1      40.705 -12.262  -1.198  1.00  0.00     0.042 A 
HETATM   21  C   UNL     1      40.270 -11.229  -2.046  1.00  0.00    -0.021 A 
HETATM   22  C   UNL     1      39.072 -11.398  -2.754  1.00  0.00     0.012 A 
HETATM   23  C   UNL     1      38.326 -12.569  -2.614  1.00  0.00     0.003 A 
HETATM   24  C   UNL     1      38.770 -13.583  -1.767  1.00  0.00     0.029 A 
BRANCH  21  25
HETATM   25  C   UNL     1      41.044 -10.005  -2.205  1.00  0.00     0.010 A 
HETATM   26  C   UNL     1      41.990  -9.386  -1.352  1.00  0.00     0.152 A 
HETATM   27  N   UNL     1      42.498  -8.262  -1.864  1.00  0.00    -0.187 NA
HETATM   28  N   UNL     1      41.877  -8.151  -3.049  1.00  0.00    -0.289 N 
HETATM   29  H   UNL     1      42.099  -7.355  -3.638  1.00  0.00     0.188 HD
HETATM   30  C   UNL     1      41.005  -9.169  -3.302  1.00  0.00     0.123 A 
ENDBRANCH  21  25
ENDBRANCH   2  19
TORSDOF 6
ENDMDL
MODEL 7
REMARK VINA RESULT:      -7.8      5.593      9.635
REMARK  6 active torsions:
REMARK  status: ('A' for Active; 'I' for Inactive)
REMARK    1  A    between atoms: C_5  and  C_6 
REMARK    2  A    between atoms: C_6  and  N_7 
REMARK    3  A    between atoms: C_6  and  C_11 
REMARK       I    between atoms: N_7  and  C_8 
REMARK    4  A    between atoms: C_11  and  C_12 
REMARK       I    between atoms: C_12  and  N_13 
REMARK    5  A    between atoms: N_13  and  C_14 
REMARK    6  A    between atoms: C_16  and  C_17 
ROOT
HETATM    1  C   UNL     1      40.969 -14.197   0.904  1.00  0.00     0.224 C 
HETATM    2  N   UNL     1      42.241 -14.364   1.421  1.00  0.00    -0.327 N 
HETATM    3  O   UNL     1      39.941 -14.740   1.297  1.00  0.00    -0.273 OA
HETATM    4  H   UNL     1      42.956 -13.734   1.077  1.00  0.00     0.169 HD
ENDROOT
BRANCH   1   5
HETATM    5  C   UNL     1      40.917 -13.189  -0.227  1.00  0.00     0.133 C 
BRANCH   5   6
HETATM    6  C   UNL     1      39.463 -12.805  -0.522  1.00  0.00     0.126 C 
BRANCH   6   7
HETATM    7  C   UNL     1      39.306 -11.365  -0.992  1.00  0.00    -0.035 A 
HETATM    8  C   UNL     1      40.435 -10.641  -1.405  1.00  0.00     0.010 A 
HETATM    9  C   UNL     1      40.313  -9.328  -1.870  1.00  0.00     0.007 A 
HETATM   10  C   UNL     1      39.061  -8.712  -1.936  1.00  0.00    -0.062 A 
HETATM   11  C   UNL     1      38.922  -7.298  -2.417  1.00  0.00     0.048 C 
HETATM   12  C   UNL     1      37.933  -9.424  -1.518  1.00  0.00     0.007 A 
HETATM   13  C   UNL     1      38.054 -10.737  -1.054  1.00  0.00     0.010 A 
ENDBRANCH   6   7
BRANCH   6  14
HETATM   14  N   UNL     1      38.761 -13.724  -1.418  1.00  0.00    -0.352 N 
HETATM   15  C   UNL     1      39.180 -14.077  -2.679  1.00  0.00     0.214 C 
HETATM   16  C   UNL     1      38.210 -14.959  -3.420  1.00  0.00     0.117 C 
HETATM   17  O   UNL     1      40.237 -13.715  -3.186  1.00  0.00    -0.274 OA
HETATM   18  H   UNL     1      37.799 -13.920  -1.176  1.00  0.00     0.163 HD
ENDBRANCH   6  14
ENDBRANCH   5   6
ENDBRANCH   1   5
BRANCH   2  19
HETATM   19  C   UNL     1      42.648 -15.254   2.437  1.00  0.00     0.035 A 
HETATM   20  C   UNL     1      42.874 -16.619   2.236  1.00  0.00     0.042 A 
HETATM   21  C   UNL     1      43.293 -17.451   3.289  1.00  0.00    -0.021 A 
HETATM   22  C   UNL     1      43.490 -16.885   4.556  1.00  0.00     0.012 A 
HETATM   23  C   UNL     1      43.270 -15.523   4.766  1.00  0.00     0.003 A 
HETATM   24  C   UNL     1      42.853 -14.713   3.711  1.00  0.00     0.029 A 
BRANCH  21  25
HETATM   25  C   UNL     1      43.532 -18.873   3.081  1.00  0.00     0.010 A 
HETATM   26  C   UNL     1      43.338 -19.690   1.940  1.00  0.00     0.152 A 
HETATM   27  N   UNL     1      43.691 -20.962   2.144  1.00  0.00    -0.187 NA
HETATM   28  N   UNL     1      44.109 -20.969   3.420  1.00  0.00    -0.289 N 
HETATM   29  H   UNL     1      44.433 -21.845   3.817  1.00  0.00     0.188 HD
HETATM   30  C   UNL     1      44.040 -19.746   4.020  1.00  0.00     0.123 A 
ENDBRANCH  21  25
ENDBRANCH   2  19
TORSDOF 6
ENDMDL
MODEL 8
REMARK VINA RESULT:      -7.8      2.627      8.965
REMARK  6 active torsions:
REMARK  status: ('A' for Active; 'I' for Inactive)
REMARK    1  A    between atoms: C_5  and  C_6 
REMARK    2  A    between atoms: C_6  and  N_7 
REMARK    3  A    between atoms: C_6  and  C_11 
REMARK       I    between atoms: N_7  and  C_8 
REMARK    4  A    between atoms: C_11  and  C_12 
REMARK       I    between atoms: C_12  and  N_13 
REMARK    5  A    between atoms: N_13  and  C_14 
REMARK    6  A    between atoms: C_16  and  C_17 
ROOT
HETATM    1  C   UNL     1      44.747 -11.597   7.153  1.00  0.00     0.224 C 
HETATM    2  N   UNL     1      43.708 -12.509   7.101  1.00  0.00    -0.327 N 
HETATM    3  O   UNL     1      45.592 -11.398   6.285  1.00  0.00    -0.273 OA
HETATM    4  H   UNL     1      43.014 -12.447   7.838  1.00  0.00     0.169 HD
ENDROOT
BRANCH   1   5
HETATM    5  C   UNL     1      44.742 -10.764   8.419  1.00  0.00     0.133 C 
BRANCH   5   6
HETATM    6  C   UNL     1      43.346 -10.176   8.656  1.00  0.00     0.126 C 
BRANCH   6   7
HETATM    7  C   UNL     1      43.200  -9.508  10.016  1.00  0.00    -0.035 A 
HETATM    8  C   UNL     1      43.210 -10.291  11.181  1.00  0.00     0.010 A 
HETATM    9  C   UNL     1      43.108  -9.698  12.443  1.00  0.00     0.007 A 
HETATM   10  C   UNL     1      42.998  -8.311  12.569  1.00  0.00    -0.062 A 
HETATM   11  C   UNL     1      42.871  -7.667  13.918  1.00  0.00     0.048 C 
HETATM   12  C   UNL     1      42.978  -7.526  11.413  1.00  0.00     0.007 A 
HETATM   13  C   UNL     1      43.080  -8.117  10.151  1.00  0.00     0.010 A 
ENDBRANCH   6   7
BRANCH   6  14
HETATM   14  N   UNL     1      42.869  -9.295   7.590  1.00  0.00    -0.352 N 
HETATM   15  C   UNL     1      41.826  -9.573   6.739  1.00  0.00     0.214 C 
HETATM   16  C   UNL     1      41.618  -8.535   5.668  1.00  0.00     0.117 C 
HETATM   17  O   UNL     1      41.116 -10.571   6.812  1.00  0.00    -0.274 OA
HETATM   18  H   UNL     1      43.499  -8.550   7.325  1.00  0.00     0.163 HD
ENDBRANCH   6  14
ENDBRANCH   5   6
ENDBRANCH   1   5
BRANCH   2  19
HETATM   19  C   UNL     1      43.451 -13.466   6.097  1.00  0.00     0.035 A 
HETATM   20  C   UNL     1      43.647 -14.840   6.258  1.00  0.00     0.042 A 
HETATM   21  C   UNL     1      43.357 -15.744   5.221  1.00  0.00    -0.021 A 
HETATM   22  C   UNL     1      42.856 -15.243   4.012  1.00  0.00     0.012 A 
HETATM   23  C   UNL     1      42.653 -13.873   3.842  1.00  0.00     0.003 A 
HETATM   24  C   UNL     1      42.949 -12.990   4.881  1.00  0.00     0.029 A 
BRANCH  21  25
HETATM   25  C   UNL     1      43.558 -17.177   5.388  1.00  0.00     0.010 A 
HETATM   26  C   UNL     1      44.126 -18.143   4.522  1.00  0.00     0.152 A 
HETATM   27  N   UNL     1      44.142 -19.371   5.047  1.00  0.00    -0.187 NA
HETATM   28  N   UNL     1      43.579 -19.200   6.254  1.00  0.00    -0.289 N 
HETATM   29  H   UNL     1      43.474 -20.010   6.857  1.00  0.00     0.188 HD
HETATM   30  C   UNL     1      43.220 -17.909   6.508  1.00  0.00     0.123 A 
ENDBRANCH  21  25
ENDBRANCH   2  19
TORSDOF 6
ENDMDL
MODEL 9
REMARK VINA RESULT:      -7.5      2.401      8.842
REMARK  6 active torsions:
REMARK  status: ('A' for Active; 'I' for Inactive)
REMARK    1  A    between atoms: C_5  and  C_6 
REMARK    2  A    between atoms: C_6  and  N_7 
REMARK    3  A    between atoms: C_6  and  C_11 
REMARK       I    between atoms: N_7  and  C_8 
REMARK    4  A    between atoms: C_11  and  C_12 
REMARK       I    between atoms: C_12  and  N_13 
REMARK    5  A    between atoms: N_13  and  C_14 
REMARK    6  A    between atoms: C_16  and  C_17 
ROOT
HETATM    1  C   UNL     1      44.472 -11.924   6.802  1.00  0.00     0.224 C 
HETATM    2  N   UNL     1      43.609 -12.975   7.053  1.00  0.00    -0.327 N 
HETATM    3  O   UNL     1      45.072 -11.703   5.755  1.00  0.00    -0.273 OA
HETATM    4  H   UNL     1      43.083 -12.933   7.919  1.00  0.00     0.169 HD
ENDROOT
BRANCH   1   5
HETATM    5  C   UNL     1      44.595 -10.967   7.971  1.00  0.00     0.133 C 
BRANCH   5   6
HETATM    6  C   UNL     1      43.229 -10.352   8.294  1.00  0.00     0.126 C 
BRANCH   6   7
HETATM    7  C   UNL     1      43.196  -9.635   9.636  1.00  0.00    -0.035 A 
HETATM    8  C   UNL     1      43.330 -10.372  10.823  1.00  0.00     0.010 A 
HETATM    9  C   UNL     1      43.334  -9.734  12.067  1.00  0.00     0.007 A 
HETATM   10  C   UNL     1      43.208  -8.345  12.152  1.00  0.00    -0.062 A 
HETATM   11  C   UNL     1      43.194  -7.652  13.482  1.00  0.00     0.048 C 
HETATM   12  C   UNL     1      43.065  -7.605  10.974  1.00  0.00     0.007 A 
HETATM   13  C   UNL     1      43.062  -8.242   9.731  1.00  0.00     0.010 A 
ENDBRANCH   6   7
BRANCH   6  14
HETATM   14  N   UNL     1      42.680  -9.503   7.237  1.00  0.00    -0.352 N 
HETATM   15  C   UNL     1      41.699  -9.875   6.348  1.00  0.00     0.214 C 
HETATM   16  C   UNL     1      41.400  -8.838   5.299  1.00  0.00     0.117 C 
HETATM   17  O   UNL     1      41.110 -10.951   6.376  1.00  0.00    -0.274 OA
HETATM   18  H   UNL     1      43.226  -8.682   7.010  1.00  0.00     0.163 HD
ENDBRANCH   6  14
ENDBRANCH   5   6
ENDBRANCH   1   5
BRANCH   2  19
HETATM   19  C   UNL     1      43.307 -14.063   6.207  1.00  0.00     0.035 A 
HETATM   20  C   UNL     1      42.441 -13.986   5.112  1.00  0.00     0.042 A 
HETATM   21  C   UNL     1      42.193 -15.105   4.299  1.00  0.00    -0.021 A 
HETATM   22  C   UNL     1      42.838 -16.312   4.601  1.00  0.00     0.012 A 
HETATM   23  C   UNL     1      43.707 -16.399   5.689  1.00  0.00     0.003 A 
HETATM   24  C   UNL     1      43.940 -15.279   6.487  1.00  0.00     0.029 A 
BRANCH  21  25
HETATM   25  C   UNL     1      41.293 -15.026   3.156  1.00  0.00     0.010 A 
HETATM   26  C   UNL     1      41.338 -15.665   1.893  1.00  0.00     0.152 A 
HETATM   27  N   UNL     1      40.309 -15.338   1.106  1.00  0.00    -0.187 NA
HETATM   28  N   UNL     1      39.601 -14.482   1.860  1.00  0.00    -0.289 N 
HETATM   29  H   UNL     1      38.753 -14.084   1.470  1.00  0.00     0.188 HD
HETATM   30  C   UNL     1      40.142 -14.268   3.093  1.00  0.00     0.123 A 
ENDBRANCH  21  25
ENDBRANCH   2  19
TORSDOF 6
ENDMDL
MODEL 10
REMARK VINA RESULT:      -7.5      4.905      8.485
REMARK  6 active torsions:
REMARK  status: ('A' for Active; 'I' for Inactive)
REMARK    1  A    between atoms: C_5  and  C_6 
REMARK    2  A    between atoms: C_6  and  N_7 
REMARK    3  A    between atoms: C_6  and  C_11 
REMARK       I    between atoms: N_7  and  C_8 
REMARK    4  A    between atoms: C_11  and  C_12 
REMARK       I    between atoms: C_12  and  N_13 
REMARK    5  A    between atoms: N_13  and  C_14 
REMARK    6  A    between atoms: C_16  and  C_17 
ROOT
HETATM    1  C   UNL     1      40.968 -13.667   1.065  1.00  0.00     0.224 C 
HETATM    2  N   UNL     1      42.247 -14.147   1.285  1.00  0.00    -0.327 N 
HETATM    3  O   UNL     1      39.937 -14.052   1.608  1.00  0.00    -0.273 OA
HETATM    4  H   UNL     1      43.005 -13.623   0.862  1.00  0.00     0.169 HD
ENDROOT
BRANCH   1   5
HETATM    5  C   UNL     1      40.928 -12.519   0.076  1.00  0.00     0.133 C 
BRANCH   5   6
HETATM    6  C   UNL     1      39.539 -12.426  -0.565  1.00  0.00     0.126 C 
BRANCH   6   7
HETATM    7  C   UNL     1      39.437 -11.333  -1.621  1.00  0.00    -0.035 A 
HETATM    8  C   UNL     1      40.594 -10.653  -2.033  1.00  0.00     0.010 A 
HETATM    9  C   UNL     1      40.532  -9.667  -3.022  1.00  0.00     0.007 A 
HETATM   10  C   UNL     1      39.313  -9.343  -3.624  1.00  0.00    -0.062 A 
HETATM   11  C   UNL     1      39.233  -8.275  -4.675  1.00  0.00     0.048 C 
HETATM   12  C   UNL     1      38.156 -10.010  -3.213  1.00  0.00     0.007 A 
HETATM   13  C   UNL     1      38.218 -10.996  -2.224  1.00  0.00     0.010 A 
ENDBRANCH   6   7
BRANCH   6  14
HETATM   14  N   UNL     1      39.020 -13.694  -1.078  1.00  0.00    -0.352 N 
HETATM   15  C   UNL     1      39.459 -14.329  -2.215  1.00  0.00     0.214 C 
HETATM   16  C   UNL     1      38.675 -15.567  -2.563  1.00  0.00     0.117 C 
HETATM   17  O   UNL     1      40.393 -13.944  -2.909  1.00  0.00    -0.274 OA
HETATM   18  H   UNL     1      38.132 -13.989  -0.693  1.00  0.00     0.163 HD
ENDBRANCH   6  14
ENDBRANCH   5   6
ENDBRANCH   1   5
BRANCH   2  19
HETATM   19  C   UNL     1      42.632 -15.233   2.098  1.00  0.00     0.035 A 
HETATM   20  C   UNL     1      42.686 -15.184   3.494  1.00  0.00     0.042 A 
HETATM   21  C   UNL     1      43.065 -16.307   4.249  1.00  0.00    -0.021 A 
HETATM   22  C   UNL     1      43.385 -17.494   3.574  1.00  0.00     0.012 A 
HETATM   23  C   UNL     1      43.331 -17.554   2.181  1.00  0.00     0.003 A 
HETATM   24  C   UNL     1      42.955 -16.429   1.448  1.00  0.00     0.029 A 
BRANCH  21  25
HETATM   25  C   UNL     1      43.120 -16.259   5.704  1.00  0.00     0.010 A 
HETATM   26  C   UNL     1      44.098 -16.730   6.613  1.00  0.00     0.152 A 
HETATM   27  N   UNL     1      43.787 -16.484   7.888  1.00  0.00    -0.187 NA
HETATM   28  N   UNL     1      42.603 -15.857   7.804  1.00  0.00    -0.289 N 
HETATM   29  H   UNL     1      42.149 -15.564   8.664  1.00  0.00     0.188 HD
HETATM   30  C   UNL     1      42.165 -15.692   6.523  1.00  0.00     0.123 A 
ENDBRANCH  21  25
ENDBRANCH   2  19
TORSDOF 6
ENDMDL
