MODEL 1
REMARK VINA RESULT:      -8.6      0.000      0.000
REMARK  6 active torsions:
REMARK  status: ('A' for Active; 'I' for Inactive)
REMARK    1  A    between atoms: C_3  and  C_4 
REMARK    2  A    between atoms: C_9  and  O_10 
REMARK    3  A    between atoms: O_10  and  C_11 
REMARK    4  A    between atoms: C_11  and  C_12 
REMARK       I    between atoms: C_12  and  N_13 
REMARK    5  A    between atoms: N_13  and  C_14 
REMARK    6  A    between atoms: C_21  and  C_22 
REMARK       I    between atoms: C_22  and  N_23 
ROOT
HETATM    1  C   UNL     1      41.171 -12.487   5.987  1.00  0.00     0.246 C 
HETATM    2  N   UNL     1      42.308 -12.775   6.725  1.00  0.00    -0.325 N 
HETATM    3  O   UNL     1      40.938 -11.444   5.384  1.00  0.00    -0.271 OA
HETATM    4  H   UNL     1      42.332 -13.700   7.141  1.00  0.00     0.169 HD
ENDROOT
BRANCH   2   5
HETATM    5  C   UNL     1      43.425 -11.940   6.940  1.00  0.00     0.035 A 
HETATM    6  C   UNL     1      43.359 -10.719   7.627  1.00  0.00     0.046 A 
HETATM    7  C   UNL     1      44.525  -9.937   7.782  1.00  0.00     0.030 A 
HETATM    8  C   UNL     1      45.716 -10.398   7.239  1.00  0.00     0.063 A 
HETATM    9  C   UNL     1      44.854  -8.694   8.402  1.00  0.00     0.156 A 
HETATM   10  N   UNL     1      46.643  -9.437   7.535  1.00  0.00    -0.277 N 
HETATM   11  C   UNL     1      45.822 -11.610   6.553  1.00  0.00     0.034 A 
HETATM   12  H   UNL     1      47.626  -9.436   7.286  1.00  0.00     0.189 HD
HETATM   13  N   UNL     1      46.164  -8.398   8.238  1.00  0.00    -0.168 NA
HETATM   14  C   UNL     1      44.654 -12.373   6.423  1.00  0.00     0.032 A 
BRANCH   9  15
HETATM   15  C   UNL     1      43.956  -7.796   9.143  1.00  0.00     0.270 C 
HETATM   16  N   UNL     1      43.550  -8.286  10.355  1.00  0.00    -0.365 N 
HETATM   17  H   UNL     1      43.872  -9.203  10.641  1.00  0.00     0.159 HD
HETATM   18  H   UNL     1      42.918  -7.745  10.923  1.00  0.00     0.159 HD
HETATM   19  O   UNL     1      43.576  -6.701   8.746  1.00  0.00    -0.266 OA
ENDBRANCH   9  15
ENDBRANCH   2   5
BRANCH   1  20
HETATM   20  C   UNL     1      40.216 -13.673   5.866  1.00  0.00     0.278 C 
BRANCH  20  21
HETATM   21  O   UNL     1      40.062 -14.109   4.517  1.00  0.00    -0.342 OA
BRANCH  21  22
HETATM   22  C   UNL     1      40.995 -15.033   4.120  1.00  0.00     0.069 A 
HETATM   23  C   UNL     1      41.130 -16.153   4.931  1.00  0.00     0.037 A 
HETATM   24  C   UNL     1      42.039 -17.162   4.595  1.00  0.00     0.011 A 
HETATM   25  C   UNL     1      42.840 -17.072   3.441  1.00  0.00    -0.049 A 
HETATM   26  C   UNL     1      42.737 -15.907   2.647  1.00  0.00    -0.053 A 
HETATM   27  C   UNL     1      43.583 -15.696   1.418  1.00  0.00     0.049 C 
HETATM   28  C   UNL     1      41.815 -14.902   2.999  1.00  0.00     0.044 A 
BRANCH  25  29
HETATM   29  C   UNL     1      43.820 -18.188   3.092  1.00  0.00     0.011 C 
HETATM   30  C   UNL     1      44.487 -18.731   4.357  1.00  0.00     0.015 C 
HETATM   31  C   UNL     1      43.198 -19.333   2.283  1.00  0.00     0.015 C 
ENDBRANCH  25  29
ENDBRANCH  21  22
ENDBRANCH  20  21
ENDBRANCH   1  20
TORSDOF 6
ENDMDL
MODEL 2
REMARK VINA RESULT:      -8.4      2.815      9.176
REMARK  6 active torsions:
REMARK  status: ('A' for Active; 'I' for Inactive)
REMARK    1  A    between atoms: C_3  and  C_4 
REMARK    2  A    between atoms: C_9  and  O_10 
REMARK    3  A    between atoms: O_10  and  C_11 
REMARK    4  A    between atoms: C_11  and  C_12 
REMARK       I    between atoms: C_12  and  N_13 
REMARK    5  A    between atoms: N_13  and  C_14 
REMARK    6  A    between atoms: C_21  and  C_22 
REMARK       I    between atoms: C_22  and  N_23 
ROOT
HETATM    1  C   UNL     1      45.386 -11.323   6.620  1.00  0.00     0.246 C 
HETATM    2  N   UNL     1      44.435 -12.139   7.212  1.00  0.00    -0.325 N 
HETATM    3  O   UNL     1      45.490 -11.074   5.423  1.00  0.00    -0.271 OA
HETATM    4  H   UNL     1      44.496 -12.212   8.222  1.00  0.00     0.169 HD
ENDROOT
BRANCH   2   5
HETATM    5  C   UNL     1      43.398 -12.850   6.573  1.00  0.00     0.035 A 
HETATM    6  C   UNL     1      43.496 -14.200   6.206  1.00  0.00     0.046 A 
HETATM    7  C   UNL     1      42.413 -14.829   5.553  1.00  0.00     0.030 A 
HETATM    8  C   UNL     1      41.272 -14.087   5.283  1.00  0.00     0.063 A 
HETATM    9  C   UNL     1      42.135 -16.137   5.052  1.00  0.00     0.156 A 
HETATM   10  N   UNL     1      40.423 -14.949   4.646  1.00  0.00    -0.277 N 
HETATM   11  C   UNL     1      41.136 -12.743   5.637  1.00  0.00     0.034 A 
HETATM   12  H   UNL     1      39.494 -14.747   4.294  1.00  0.00     0.189 HD
HETATM   13  N   UNL     1      40.903 -16.194   4.492  1.00  0.00    -0.168 NA
HETATM   14  C   UNL     1      42.219 -12.145   6.294  1.00  0.00     0.032 A 
BRANCH   9  15
HETATM   15  C   UNL     1      43.006 -17.320   5.100  1.00  0.00     0.270 C 
HETATM   16  N   UNL     1      43.180 -17.837   6.356  1.00  0.00    -0.365 N 
HETATM   17  H   UNL     1      42.724 -17.379   7.137  1.00  0.00     0.159 HD
HETATM   18  H   UNL     1      43.776 -18.637   6.486  1.00  0.00     0.159 HD
HETATM   19  O   UNL     1      43.552 -17.827   4.129  1.00  0.00    -0.266 OA
ENDBRANCH   9  15
ENDBRANCH   2   5
BRANCH   1  20
HETATM   20  C   UNL     1      46.285 -10.613   7.632  1.00  0.00     0.278 C 
BRANCH  20  21
HETATM   21  O   UNL     1      45.952  -9.233   7.775  1.00  0.00    -0.342 OA
BRANCH  21  22
HETATM   22  C   UNL     1      45.136  -8.966   8.845  1.00  0.00     0.069 A 
HETATM   23  C   UNL     1      45.256  -9.819   9.936  1.00  0.00     0.037 A 
HETATM   24  C   UNL     1      44.483  -9.611  11.082  1.00  0.00     0.011 A 
HETATM   25  C   UNL     1      43.566  -8.546  11.165  1.00  0.00    -0.049 A 
HETATM   26  C   UNL     1      43.409  -7.712  10.035  1.00  0.00    -0.053 A 
HETATM   27  C   UNL     1      42.421  -6.574  10.008  1.00  0.00     0.049 C 
HETATM   28  C   UNL     1      44.198  -7.934   8.889  1.00  0.00     0.044 A 
BRANCH  25  29
HETATM   29  C   UNL     1      42.738  -8.336  12.429  1.00  0.00     0.011 C 
HETATM   30  C   UNL     1      42.328  -9.682  13.031  1.00  0.00     0.015 C 
HETATM   31  C   UNL     1      43.427  -7.466  13.488  1.00  0.00     0.015 C 
ENDBRANCH  25  29
ENDBRANCH  21  22
ENDBRANCH  20  21
ENDBRANCH   1  20
TORSDOF 6
ENDMDL
MODEL 3
REMARK VINA RESULT:      -8.3      3.547      9.549
REMARK  6 active torsions:
REMARK  status: ('A' for Active; 'I' for Inactive)
REMARK    1  A    between atoms: C_3  and  C_4 
REMARK    2  A    between atoms: C_9  and  O_10 
REMARK    3  A    between atoms: O_10  and  C_11 
REMARK    4  A    between atoms: C_11  and  C_12 
REMARK       I    between atoms: C_12  and  N_13 
REMARK    5  A    between atoms: N_13  and  C_14 
REMARK    6  A    between atoms: C_21  and  C_22 
REMARK       I    between atoms: C_22  and  N_23 
ROOT
HETATM    1  C   UNL     1      44.321 -12.190   7.066  1.00  0.00     0.246 C 
HETATM    2  N   UNL     1      43.440 -13.259   7.055  1.00  0.00    -0.325 N 
HETATM    3  O   UNL     1      45.314 -12.055   6.357  1.00  0.00    -0.271 OA
HETATM    4  H   UNL     1      42.663 -13.187   7.704  1.00  0.00     0.169 HD
ENDROOT
BRANCH   2   5
HETATM    5  C   UNL     1      43.497 -14.408   6.239  1.00  0.00     0.035 A 
HETATM    6  C   UNL     1      42.821 -14.524   5.016  1.00  0.00     0.046 A 
HETATM    7  C   UNL     1      42.920 -15.720   4.270  1.00  0.00     0.030 A 
HETATM    8  C   UNL     1      43.686 -16.761   4.775  1.00  0.00     0.063 A 
HETATM    9  C   UNL     1      42.411 -16.200   3.025  1.00  0.00     0.156 A 
HETATM   10  N   UNL     1      43.580 -17.766   3.854  1.00  0.00    -0.277 N 
HETATM   11  C   UNL     1      44.377 -16.681   5.986  1.00  0.00     0.034 A 
HETATM   12  H   UNL     1      44.006 -18.685   3.897  1.00  0.00     0.189 HD
HETATM   13  N   UNL     1      42.825 -17.466   2.784  1.00  0.00    -0.168 NA
HETATM   14  C   UNL     1      44.272 -15.480   6.701  1.00  0.00     0.032 A 
BRANCH   9  15
HETATM   15  C   UNL     1      41.553 -15.483   2.071  1.00  0.00     0.270 C 
HETATM   16  N   UNL     1      42.239 -14.848   1.070  1.00  0.00    -0.365 N 
HETATM   17  H   UNL     1      43.250 -14.903   1.064  1.00  0.00     0.159 HD
HETATM   18  H   UNL     1      41.732 -14.317   0.381  1.00  0.00     0.159 HD
HETATM   19  O   UNL     1      40.332 -15.429   2.131  1.00  0.00    -0.266 OA
ENDBRANCH   9  15
ENDBRANCH   2   5
BRANCH   1  20
HETATM   20  C   UNL     1      43.884 -11.058   7.996  1.00  0.00     0.278 C 
BRANCH  20  21
HETATM   21  O   UNL     1      44.469 -11.166   9.292  1.00  0.00    -0.342 OA
BRANCH  21  22
HETATM   22  C   UNL     1      43.914 -10.327  10.225  1.00  0.00     0.069 A 
HETATM   23  C   UNL     1      43.659 -10.882  11.473  1.00  0.00     0.037 A 
HETATM   24  C   UNL     1      43.117 -10.099  12.496  1.00  0.00     0.011 A 
HETATM   25  C   UNL     1      42.811  -8.739  12.295  1.00  0.00    -0.049 A 
HETATM   26  C   UNL     1      43.023  -8.192  11.009  1.00  0.00    -0.053 A 
HETATM   27  C   UNL     1      42.685  -6.760  10.680  1.00  0.00     0.049 C 
HETATM   28  C   UNL     1      43.572  -8.995   9.990  1.00  0.00     0.044 A 
BRANCH  25  29
HETATM   29  C   UNL     1      42.225  -7.902  13.428  1.00  0.00     0.011 C 
HETATM   30  C   UNL     1      41.356  -8.769  14.340  1.00  0.00     0.015 C 
HETATM   31  C   UNL     1      43.277  -7.148  14.252  1.00  0.00     0.015 C 
ENDBRANCH  25  29
ENDBRANCH  21  22
ENDBRANCH  20  21
ENDBRANCH   1  20
TORSDOF 6
ENDMDL
MODEL 4
REMARK VINA RESULT:      -8.1      1.804      2.441
REMARK  6 active torsions:
REMARK  status: ('A' for Active; 'I' for Inactive)
REMARK    1  A    between atoms: C_3  and  C_4 
REMARK    2  A    between atoms: C_9  and  O_10 
REMARK    3  A    between atoms: O_10  and  C_11 
REMARK    4  A    between atoms: C_11  and  C_12 
REMARK       I    between atoms: C_12  and  N_13 
REMARK    5  A    between atoms: N_13  and  C_14 
REMARK    6  A    between atoms: C_21  and  C_22 
REMARK       I    between atoms: C_22  and  N_23 
ROOT
HETATM    1  C   UNL     1      42.771 -11.662   4.055  1.00  0.00     0.246 C 
HETATM    2  N   UNL     1      43.218 -12.205   5.249  1.00  0.00    -0.325 N 
HETATM    3  O   UNL     1      42.873 -10.491   3.702  1.00  0.00    -0.271 OA
HETATM    4  H   UNL     1      43.060 -13.201   5.359  1.00  0.00     0.169 HD
ENDROOT
BRANCH   2   5
HETATM    5  C   UNL     1      43.876 -11.535   6.302  1.00  0.00     0.035 A 
HETATM    6  C   UNL     1      43.207 -10.943   7.382  1.00  0.00     0.046 A 
HETATM    7  C   UNL     1      43.945 -10.276   8.385  1.00  0.00     0.030 A 
HETATM    8  C   UNL     1      45.327 -10.218   8.271  1.00  0.00     0.063 A 
HETATM    9  C   UNL     1      43.641  -9.586   9.598  1.00  0.00     0.156 A 
HETATM   10  N   UNL     1      45.750  -9.511   9.363  1.00  0.00    -0.277 N 
HETATM   11  C   UNL     1      46.029 -10.800   7.213  1.00  0.00     0.034 A 
HETATM   12  H   UNL     1      46.704  -9.268   9.604  1.00  0.00     0.189 HD
HETATM   13  N   UNL     1      44.766  -9.118  10.188  1.00  0.00    -0.168 NA
HETATM   14  C   UNL     1      45.275 -11.465   6.238  1.00  0.00     0.032 A 
BRANCH   9  15
HETATM   15  C   UNL     1      42.318  -9.372  10.200  1.00  0.00     0.270 C 
HETATM   16  N   UNL     1      41.989 -10.284  11.167  1.00  0.00    -0.365 N 
HETATM   17  H   UNL     1      42.649 -11.022  11.383  1.00  0.00     0.159 HD
HETATM   18  H   UNL     1      41.093 -10.225  11.622  1.00  0.00     0.159 HD
HETATM   19  O   UNL     1      41.545  -8.474   9.891  1.00  0.00    -0.266 OA
ENDBRANCH   9  15
ENDBRANCH   2   5
BRANCH   1  20
HETATM   20  C   UNL     1      42.210 -12.708   3.092  1.00  0.00     0.278 C 
BRANCH  20  21
HETATM   21  O   UNL     1      43.239 -13.461   2.452  1.00  0.00    -0.342 OA
BRANCH  21  22
HETATM   22  C   UNL     1      43.219 -14.799   2.754  1.00  0.00     0.069 A 
HETATM   23  C   UNL     1      43.417 -15.670   1.690  1.00  0.00     0.037 A 
HETATM   24  C   UNL     1      43.437 -17.052   1.904  1.00  0.00     0.011 A 
HETATM   25  C   UNL     1      43.255 -17.598   3.189  1.00  0.00    -0.049 A 
HETATM   26  C   UNL     1      43.002 -16.711   4.260  1.00  0.00    -0.053 A 
HETATM   27  C   UNL     1      42.750 -17.199   5.664  1.00  0.00     0.049 C 
HETATM   28  C   UNL     1      42.988 -15.321   4.027  1.00  0.00     0.044 A 
BRANCH  25  29
HETATM   29  C   UNL     1      43.287 -19.109   3.398  1.00  0.00     0.011 C 
HETATM   30  C   UNL     1      43.299 -19.836   2.053  1.00  0.00     0.015 C 
HETATM   31  C   UNL     1      44.449 -19.591   4.277  1.00  0.00     0.015 C 
ENDBRANCH  25  29
ENDBRANCH  21  22
ENDBRANCH  20  21
ENDBRANCH   1  20
TORSDOF 6
ENDMDL
MODEL 5
REMARK VINA RESULT:      -8.0      3.349      5.338
REMARK  6 active torsions:
REMARK  status: ('A' for Active; 'I' for Inactive)
REMARK    1  A    between atoms: C_3  and  C_4 
REMARK    2  A    between atoms: C_9  and  O_10 
REMARK    3  A    between atoms: O_10  and  C_11 
REMARK    4  A    between atoms: C_11  and  C_12 
REMARK       I    between atoms: C_12  and  N_13 
REMARK    5  A    between atoms: N_13  and  C_14 
REMARK    6  A    between atoms: C_21  and  C_22 
REMARK       I    between atoms: C_22  and  N_23 
ROOT
HETATM    1  C   UNL     1      44.779 -10.470   8.564  1.00  0.00     0.246 C 
HETATM    2  N   UNL     1      43.677  -9.634   8.485  1.00  0.00    -0.325 N 
HETATM    3  O   UNL     1      45.352 -10.828   9.589  1.00  0.00    -0.271 OA
HETATM    4  H   UNL     1      43.329  -9.464   7.547  1.00  0.00     0.169 HD
ENDROOT
BRANCH   2   5
HETATM    5  C   UNL     1      42.987  -9.021   9.552  1.00  0.00     0.035 A 
HETATM    6  C   UNL     1      41.989  -9.662  10.299  1.00  0.00     0.046 A 
HETATM    7  C   UNL     1      41.337  -8.966  11.342  1.00  0.00     0.030 A 
HETATM    8  C   UNL     1      41.702  -7.652  11.598  1.00  0.00     0.063 A 
HETATM    9  C   UNL     1      40.320  -9.265  12.298  1.00  0.00     0.156 A 
HETATM   10  N   UNL     1      40.902  -7.252  12.633  1.00  0.00    -0.277 N 
HETATM   11  C   UNL     1      42.694  -6.982  10.880  1.00  0.00     0.034 A 
HETATM   12  H   UNL     1      40.888  -6.342  13.080  1.00  0.00     0.189 HD
HETATM   13  N   UNL     1      40.060  -8.195  13.085  1.00  0.00    -0.168 NA
HETATM   14  C   UNL     1      43.334  -7.698   9.858  1.00  0.00     0.032 A 
BRANCH   9  15
HETATM   15  C   UNL     1      39.602 -10.535  12.476  1.00  0.00     0.270 C 
HETATM   16  N   UNL     1      38.946 -10.970  11.356  1.00  0.00    -0.365 N 
HETATM   17  H   UNL     1      38.989 -10.402  10.518  1.00  0.00     0.159 HD
HETATM   18  H   UNL     1      38.413 -11.823  11.392  1.00  0.00     0.159 HD
HETATM   19  O   UNL     1      39.563 -11.177  13.518  1.00  0.00    -0.266 OA
ENDBRANCH   9  15
ENDBRANCH   2   5
BRANCH   1  20
HETATM   20  C   UNL     1      45.192 -11.052   7.213  1.00  0.00     0.278 C 
BRANCH  20  21
HETATM   21  O   UNL     1      44.104 -11.106   6.292  1.00  0.00    -0.342 OA
BRANCH  21  22
HETATM   22  C   UNL     1      43.664 -12.378   6.025  1.00  0.00     0.069 A 
HETATM   23  C   UNL     1      43.277 -12.629   4.714  1.00  0.00     0.037 A 
HETATM   24  C   UNL     1      42.836 -13.903   4.341  1.00  0.00     0.011 A 
HETATM   25  C   UNL     1      42.767 -14.957   5.272  1.00  0.00    -0.049 A 
HETATM   26  C   UNL     1      43.112 -14.683   6.615  1.00  0.00    -0.053 A 
HETATM   27  C   UNL     1      43.028 -15.731   7.695  1.00  0.00     0.049 C 
HETATM   28  C   UNL     1      43.556 -13.395   6.974  1.00  0.00     0.044 A 
BRANCH  25  29
HETATM   29  C   UNL     1      42.289 -16.340   4.840  1.00  0.00     0.011 C 
HETATM   30  C   UNL     1      41.093 -16.221   3.893  1.00  0.00     0.015 C 
HETATM   31  C   UNL     1      43.385 -17.209   4.209  1.00  0.00     0.015 C 
ENDBRANCH  25  29
ENDBRANCH  21  22
ENDBRANCH  20  21
ENDBRANCH   1  20
TORSDOF 6
ENDMDL
MODEL 6
REMARK VINA RESULT:      -7.8      5.468      8.860
REMARK  6 active torsions:
REMARK  status: ('A' for Active; 'I' for Inactive)
REMARK    1  A    between atoms: C_3  and  C_4 
REMARK    2  A    between atoms: C_9  and  O_10 
REMARK    3  A    between atoms: O_10  and  C_11 
REMARK    4  A    between atoms: C_11  and  C_12 
REMARK       I    between atoms: C_12  and  N_13 
REMARK    5  A    between atoms: N_13  and  C_14 
REMARK    6  A    between atoms: C_21  and  C_22 
REMARK       I    between atoms: C_22  and  N_23 
ROOT
HETATM    1  C   UNL     1      40.816 -12.621   2.642  1.00  0.00     0.246 C 
HETATM    2  N   UNL     1      40.886 -12.174   1.332  1.00  0.00    -0.325 N 
HETATM    3  O   UNL     1      39.805 -12.979   3.238  1.00  0.00    -0.271 OA
HETATM    4  H   UNL     1      41.816 -11.936   1.005  1.00  0.00     0.169 HD
ENDROOT
BRANCH   2   5
HETATM    5  C   UNL     1      39.822 -12.034   0.417  1.00  0.00     0.035 A 
HETATM    6  C   UNL     1      39.522 -12.980  -0.573  1.00  0.00     0.046 A 
HETATM    7  C   UNL     1      38.447 -12.751  -1.460  1.00  0.00     0.030 A 
HETATM    8  C   UNL     1      37.712 -11.581  -1.332  1.00  0.00     0.063 A 
HETATM    9  C   UNL     1      37.845 -13.453  -2.549  1.00  0.00     0.156 A 
HETATM   10  N   UNL     1      36.767 -11.639  -2.319  1.00  0.00    -0.277 N 
HETATM   11  C   UNL     1      37.976 -10.618  -0.356  1.00  0.00     0.034 A 
HETATM   12  H   UNL     1      36.057 -10.946  -2.530  1.00  0.00     0.189 HD
HETATM   13  N   UNL     1      36.811 -12.751  -3.070  1.00  0.00    -0.168 NA
HETATM   14  C   UNL     1      39.040 -10.875   0.519  1.00  0.00     0.032 A 
BRANCH   9  15
HETATM   15  C   UNL     1      38.228 -14.764  -3.092  1.00  0.00     0.270 C 
HETATM   16  N   UNL     1      37.975 -14.911  -4.429  1.00  0.00    -0.365 N 
HETATM   17  H   UNL     1      37.548 -14.141  -4.930  1.00  0.00     0.159 HD
HETATM   18  H   UNL     1      38.189 -15.784  -4.882  1.00  0.00     0.159 HD
HETATM   19  O   UNL     1      38.725 -15.674  -2.440  1.00  0.00    -0.266 OA
ENDBRANCH   9  15
ENDBRANCH   2   5
BRANCH   1  20
HETATM   20  C   UNL     1      42.186 -12.761   3.304  1.00  0.00     0.278 C 
BRANCH  20  21
HETATM   21  O   UNL     1      43.099 -13.510   2.505  1.00  0.00    -0.342 OA
BRANCH  21  22
HETATM   22  C   UNL     1      43.132 -14.849   2.804  1.00  0.00     0.069 A 
HETATM   23  C   UNL     1      43.347 -15.710   1.735  1.00  0.00     0.037 A 
HETATM   24  C   UNL     1      43.421 -17.091   1.945  1.00  0.00     0.011 A 
HETATM   25  C   UNL     1      43.277 -17.645   3.231  1.00  0.00    -0.049 A 
HETATM   26  C   UNL     1      43.006 -16.770   4.308  1.00  0.00    -0.053 A 
HETATM   27  C   UNL     1      42.791 -17.269   5.714  1.00  0.00     0.049 C 
HETATM   28  C   UNL     1      42.938 -15.382   4.079  1.00  0.00     0.044 A 
BRANCH  25  29
HETATM   29  C   UNL     1      43.367 -19.155   3.437  1.00  0.00     0.011 C 
HETATM   30  C   UNL     1      43.369 -19.880   2.090  1.00  0.00     0.015 C 
HETATM   31  C   UNL     1      44.568 -19.597   4.283  1.00  0.00     0.015 C 
ENDBRANCH  25  29
ENDBRANCH  21  22
ENDBRANCH  20  21
ENDBRANCH   1  20
TORSDOF 6
ENDMDL
MODEL 7
REMARK VINA RESULT:      -7.8      3.910      7.204
REMARK  6 active torsions:
REMARK  status: ('A' for Active; 'I' for Inactive)
REMARK    1  A    between atoms: C_3  and  C_4 
REMARK    2  A    between atoms: C_9  and  O_10 
REMARK    3  A    between atoms: O_10  and  C_11 
REMARK    4  A    between atoms: C_11  and  C_12 
REMARK       I    between atoms: C_12  and  N_13 
REMARK    5  A    between atoms: N_13  and  C_14 
REMARK    6  A    between atoms: C_21  and  C_22 
REMARK       I    between atoms: C_22  and  N_23 
ROOT
HETATM    1  C   UNL     1      40.679 -15.184   0.910  1.00  0.00     0.246 C 
HETATM    2  N   UNL     1      41.922 -15.167   1.521  1.00  0.00    -0.325 N 
HETATM    3  O   UNL     1      39.786 -16.005   1.095  1.00  0.00    -0.271 OA
HETATM    4  H   UNL     1      42.526 -14.397   1.254  1.00  0.00     0.169 HD
ENDROOT
BRANCH   2   5
HETATM    5  C   UNL     1      42.421 -16.081   2.474  1.00  0.00     0.035 A 
HETATM    6  C   UNL     1      42.247 -15.930   3.857  1.00  0.00     0.046 A 
HETATM    7  C   UNL     1      42.796 -16.886   4.740  1.00  0.00     0.030 A 
HETATM    8  C   UNL     1      43.506 -17.955   4.213  1.00  0.00     0.063 A 
HETATM    9  C   UNL     1      42.823 -17.081   6.155  1.00  0.00     0.156 A 
HETATM   10  N   UNL     1      43.916 -18.685   5.294  1.00  0.00    -0.277 N 
HETATM   11  C   UNL     1      43.697 -18.141   2.842  1.00  0.00     0.034 A 
HETATM   12  H   UNL     1      44.468 -19.535   5.287  1.00  0.00     0.189 HD
HETATM   13  N   UNL     1      43.521 -18.195   6.480  1.00  0.00    -0.168 NA
HETATM   14  C   UNL     1      43.132 -17.186   1.985  1.00  0.00     0.032 A 
BRANCH   9  15
HETATM   15  C   UNL     1      42.201 -16.242   7.188  1.00  0.00     0.270 C 
HETATM   16  N   UNL     1      43.038 -15.912   8.220  1.00  0.00    -0.365 N 
HETATM   17  H   UNL     1      43.987 -16.265   8.207  1.00  0.00     0.159 HD
HETATM   18  H   UNL     1      42.691 -15.353   8.982  1.00  0.00     0.159 HD
HETATM   19  O   UNL     1      41.040 -15.854   7.170  1.00  0.00    -0.266 OA
ENDBRANCH   9  15
ENDBRANCH   2   5
BRANCH   1  20
HETATM   20  C   UNL     1      40.430 -13.968   0.019  1.00  0.00     0.278 C 
BRANCH  20  21
HETATM   21  O   UNL     1      39.678 -12.955   0.684  1.00  0.00    -0.342 OA
BRANCH  21  22
HETATM   22  C   UNL     1      40.225 -12.548   1.875  1.00  0.00     0.069 A 
HETATM   23  C   UNL     1      41.381 -11.782   1.789  1.00  0.00     0.037 A 
HETATM   24  C   UNL     1      41.997 -11.301   2.949  1.00  0.00     0.011 A 
HETATM   25  C   UNL     1      41.474 -11.579   4.226  1.00  0.00    -0.049 A 
HETATM   26  C   UNL     1      40.328 -12.403   4.312  1.00  0.00    -0.053 A 
HETATM   27  C   UNL     1      39.719 -12.795   5.633  1.00  0.00     0.049 C 
HETATM   28  C   UNL     1      39.719 -12.876   3.133  1.00  0.00     0.044 A 
BRANCH  25  29
HETATM   29  C   UNL     1      42.160 -11.039   5.477  1.00  0.00     0.011 C 
HETATM   30  C   UNL     1      43.675 -11.233   5.383  1.00  0.00     0.015 C 
HETATM   31  C   UNL     1      41.827  -9.573   5.785  1.00  0.00     0.015 C 
ENDBRANCH  25  29
ENDBRANCH  21  22
ENDBRANCH  20  21
ENDBRANCH   1  20
TORSDOF 6
ENDMDL
MODEL 8
REMARK VINA RESULT:      -7.8      1.837      2.815
REMARK  6 active torsions:
REMARK  status: ('A' for Active; 'I' for Inactive)
REMARK    1  A    between atoms: C_3  and  C_4 
REMARK    2  A    between atoms: C_9  and  O_10 
REMARK    3  A    between atoms: O_10  and  C_11 
REMARK    4  A    between atoms: C_11  and  C_12 
REMARK       I    between atoms: C_12  and  N_13 
REMARK    5  A    between atoms: N_13  and  C_14 
REMARK    6  A    between atoms: C_21  and  C_22 
REMARK       I    between atoms: C_22  and  N_23 
ROOT
HETATM    1  C   UNL     1      40.465 -13.230   5.344  1.00  0.00     0.246 C 
HETATM    2  N   UNL     1      41.330 -12.216   4.966  1.00  0.00    -0.325 N 
HETATM    3  O   UNL     1      39.844 -13.305   6.400  1.00  0.00    -0.271 OA
HETATM    4  H   UNL     1      41.740 -12.318   4.044  1.00  0.00     0.169 HD
ENDROOT
BRANCH   2   5
HETATM    5  C   UNL     1      41.681 -11.068   5.708  1.00  0.00     0.035 A 
HETATM    6  C   UNL     1      42.882 -10.942   6.419  1.00  0.00     0.046 A 
HETATM    7  C   UNL     1      43.145  -9.762   7.149  1.00  0.00     0.030 A 
HETATM    8  C   UNL     1      42.194  -8.751   7.150  1.00  0.00     0.063 A 
HETATM    9  C   UNL     1      44.214  -9.269   7.957  1.00  0.00     0.156 A 
HETATM   10  N   UNL     1      42.717  -7.764   7.940  1.00  0.00    -0.277 N 
HETATM   11  C   UNL     1      40.988  -8.838   6.451  1.00  0.00     0.034 A 
HETATM   12  H   UNL     1      42.291  -6.874   8.173  1.00  0.00     0.189 HD
HETATM   13  N   UNL     1      43.933  -8.036   8.440  1.00  0.00    -0.168 NA
HETATM   14  C   UNL     1      40.757 -10.014   5.725  1.00  0.00     0.032 A 
BRANCH   9  15
HETATM   15  C   UNL     1      45.484  -9.940   8.270  1.00  0.00     0.270 C 
HETATM   16  N   UNL     1      46.585  -9.338   7.721  1.00  0.00    -0.365 N 
HETATM   17  H   UNL     1      46.452  -8.512   7.150  1.00  0.00     0.159 HD
HETATM   18  H   UNL     1      47.496  -9.740   7.868  1.00  0.00     0.159 HD
HETATM   19  O   UNL     1      45.593 -10.951   8.951  1.00  0.00    -0.266 OA
ENDBRANCH   9  15
ENDBRANCH   2   5
BRANCH   1  20
HETATM   20  C   UNL     1      40.225 -14.259   4.240  1.00  0.00     0.278 C 
BRANCH  20  21
HETATM   21  O   UNL     1      41.312 -14.328   3.319  1.00  0.00    -0.342 OA
BRANCH  21  22
HETATM   22  C   UNL     1      42.015 -15.505   3.375  1.00  0.00     0.069 A 
HETATM   23  C   UNL     1      41.694 -16.456   2.413  1.00  0.00     0.037 A 
HETATM   24  C   UNL     1      42.374 -17.678   2.375  1.00  0.00     0.011 A 
HETATM   25  C   UNL     1      43.389 -17.981   3.302  1.00  0.00    -0.049 A 
HETATM   26  C   UNL     1      43.675 -17.033   4.311  1.00  0.00    -0.053 A 
HETATM   27  C   UNL     1      44.712 -17.283   5.376  1.00  0.00     0.049 C 
HETATM   28  C   UNL     1      42.983 -15.806   4.333  1.00  0.00     0.044 A 
BRANCH  25  29
HETATM   29  C   UNL     1      44.121 -19.319   3.237  1.00  0.00     0.011 C 
HETATM   30  C   UNL     1      43.966 -20.079   4.555  1.00  0.00     0.015 C 
HETATM   31  C   UNL     1      43.697 -20.203   2.057  1.00  0.00     0.015 C 
ENDBRANCH  25  29
ENDBRANCH  21  22
ENDBRANCH  20  21
ENDBRANCH   1  20
TORSDOF 6
ENDMDL
MODEL 9
REMARK VINA RESULT:      -7.7      2.903      4.633
REMARK  6 active torsions:
REMARK  status: ('A' for Active; 'I' for Inactive)
REMARK    1  A    between atoms: C_3  and  C_4 
REMARK    2  A    between atoms: C_9  and  O_10 
REMARK    3  A    between atoms: O_10  and  C_11 
REMARK    4  A    between atoms: C_11  and  C_12 
REMARK       I    between atoms: C_12  and  N_13 
REMARK    5  A    between atoms: N_13  and  C_14 
REMARK    6  A    between atoms: C_21  and  C_22 
REMARK       I    between atoms: C_22  and  N_23 
ROOT
HETATM    1  C   UNL     1      44.499 -10.633   7.899  1.00  0.00     0.246 C 
HETATM    2  N   UNL     1      43.515 -10.792   8.862  1.00  0.00    -0.325 N 
HETATM    3  O   UNL     1      45.186  -9.633   7.716  1.00  0.00    -0.271 OA
HETATM    4  H   UNL     1      43.062 -11.699   8.873  1.00  0.00     0.169 HD
ENDROOT
BRANCH   2   5
HETATM    5  C   UNL     1      43.097  -9.848   9.824  1.00  0.00     0.035 A 
HETATM    6  C   UNL     1      41.872  -9.169   9.763  1.00  0.00     0.046 A 
HETATM    7  C   UNL     1      41.541  -8.227  10.762  1.00  0.00     0.030 A 
HETATM    8  C   UNL     1      42.449  -7.989  11.784  1.00  0.00     0.063 A 
HETATM    9  C   UNL     1      40.431  -7.375  11.044  1.00  0.00     0.156 A 
HETATM   10  N   UNL     1      41.864  -7.037  12.572  1.00  0.00    -0.277 N 
HETATM   11  C   UNL     1      43.676  -8.649  11.882  1.00  0.00     0.034 A 
HETATM   12  H   UNL     1      42.246  -6.616  13.412  1.00  0.00     0.189 HD
HETATM   13  N   UNL     1      40.647  -6.645  12.163  1.00  0.00    -0.168 NA
HETATM   14  C   UNL     1      43.976  -9.588  10.885  1.00  0.00     0.032 A 
BRANCH   9  15
HETATM   15  C   UNL     1      39.181  -7.248  10.280  1.00  0.00     0.270 C 
HETATM   16  N   UNL     1      38.338  -8.319  10.404  1.00  0.00    -0.365 N 
HETATM   17  H   UNL     1      38.627  -9.100  10.981  1.00  0.00     0.159 HD
HETATM   18  H   UNL     1      37.466  -8.326   9.901  1.00  0.00     0.159 HD
HETATM   19  O   UNL     1      38.884  -6.289   9.578  1.00  0.00    -0.266 OA
ENDBRANCH   9  15
ENDBRANCH   2   5
BRANCH   1  20
HETATM   20  C   UNL     1      44.773 -11.908   7.103  1.00  0.00     0.278 C 
BRANCH  20  21
HETATM   21  O   UNL     1      43.889 -12.969   7.460  1.00  0.00    -0.342 OA
BRANCH  21  22
HETATM   22  C   UNL     1      43.606 -13.828   6.429  1.00  0.00     0.069 A 
HETATM   23  C   UNL     1      42.942 -13.278   5.338  1.00  0.00     0.037 A 
HETATM   24  C   UNL     1      42.631 -14.071   4.229  1.00  0.00     0.011 A 
HETATM   25  C   UNL     1      42.973 -15.436   4.184  1.00  0.00    -0.049 A 
HETATM   26  C   UNL     1      43.601 -16.003   5.316  1.00  0.00    -0.053 A 
HETATM   27  C   UNL     1      43.966 -17.464   5.384  1.00  0.00     0.049 C 
HETATM   28  C   UNL     1      43.909 -15.190   6.425  1.00  0.00     0.044 A 
BRANCH  25  29
HETATM   29  C   UNL     1      42.629 -16.279   2.959  1.00  0.00     0.011 C 
HETATM   30  C   UNL     1      41.125 -16.235   2.684  1.00  0.00     0.015 C 
HETATM   31  C   UNL     1      43.415 -15.896   1.699  1.00  0.00     0.015 C 
ENDBRANCH  25  29
ENDBRANCH  21  22
ENDBRANCH  20  21
ENDBRANCH   1  20
TORSDOF 6
ENDMDL
MODEL 10
REMARK VINA RESULT:      -7.7      5.701      8.672
REMARK  6 active torsions:
REMARK  status: ('A' for Active; 'I' for Inactive)
REMARK    1  A    between atoms: C_3  and  C_4 
REMARK    2  A    between atoms: C_9  and  O_10 
REMARK    3  A    between atoms: O_10  and  C_11 
REMARK    4  A    between atoms: C_11  and  C_12 
REMARK       I    between atoms: C_12  and  N_13 
REMARK    5  A    between atoms: N_13  and  C_14 
REMARK    6  A    between atoms: C_21  and  C_22 
REMARK       I    between atoms: C_22  and  N_23 
ROOT
HETATM    1  C   UNL     1      40.610 -12.960   2.159  1.00  0.00     0.246 C 
HETATM    2  N   UNL     1      40.769 -12.671   0.813  1.00  0.00    -0.325 N 
HETATM    3  O   UNL     1      39.600 -13.407   2.694  1.00  0.00    -0.271 OA
HETATM    4  H   UNL     1      41.685 -12.322   0.550  1.00  0.00     0.169 HD
ENDROOT
BRANCH   2   5
HETATM    5  C   UNL     1      39.816 -12.824  -0.216  1.00  0.00     0.035 A 
HETATM    6  C   UNL     1      38.905 -11.824  -0.584  1.00  0.00     0.046 A 
HETATM    7  C   UNL     1      37.972 -12.069  -1.615  1.00  0.00     0.030 A 
HETATM    8  C   UNL     1      37.976 -13.309  -2.239  1.00  0.00     0.063 A 
HETATM    9  C   UNL     1      36.933 -11.331  -2.259  1.00  0.00     0.156 A 
HETATM   10  N   UNL     1      36.971 -13.250  -3.165  1.00  0.00    -0.277 N 
HETATM   11  C   UNL     1      38.870 -14.328  -1.904  1.00  0.00     0.034 A 
HETATM   12  H   UNL     1      36.681 -13.983  -3.803  1.00  0.00     0.189 HD
HETATM   13  N   UNL     1      36.323 -12.075  -3.211  1.00  0.00    -0.168 NA
HETATM   14  C   UNL     1      39.793 -14.055  -0.886  1.00  0.00     0.032 A 
BRANCH   9  15
HETATM   15  C   UNL     1      36.519  -9.946  -1.991  1.00  0.00     0.270 C 
HETATM   16  N   UNL     1      35.165  -9.750  -2.025  1.00  0.00    -0.365 N 
HETATM   17  H   UNL     1      34.565 -10.539  -2.236  1.00  0.00     0.159 HD
HETATM   18  H   UNL     1      34.792  -8.828  -1.870  1.00  0.00     0.159 HD
HETATM   19  O   UNL     1      37.285  -9.018  -1.760  1.00  0.00    -0.266 OA
ENDBRANCH   9  15
ENDBRANCH   2   5
BRANCH   1  20
HETATM   20  C   UNL     1      41.894 -12.786   2.968  1.00  0.00     0.278 C 
BRANCH  20  21
HETATM   21  O   UNL     1      42.998 -13.478   2.386  1.00  0.00    -0.342 OA
BRANCH  21  22
HETATM   22  C   UNL     1      43.058 -14.808   2.716  1.00  0.00     0.069 A 
HETATM   23  C   UNL     1      43.314 -15.688   1.671  1.00  0.00     0.037 A 
HETATM   24  C   UNL     1      43.418 -17.061   1.914  1.00  0.00     0.011 A 
HETATM   25  C   UNL     1      43.263 -17.590   3.209  1.00  0.00    -0.049 A 
HETATM   26  C   UNL     1      42.950 -16.698   4.260  1.00  0.00    -0.053 A 
HETATM   27  C   UNL     1      42.721 -17.171   5.673  1.00  0.00     0.049 C 
HETATM   28  C   UNL     1      42.852 -15.317   3.998  1.00  0.00     0.044 A 
BRANCH  25  29
HETATM   29  C   UNL     1      43.386 -19.091   3.451  1.00  0.00     0.011 C 
HETATM   30  C   UNL     1      43.344 -19.853   2.125  1.00  0.00     0.015 C 
HETATM   31  C   UNL     1      44.628 -19.492   4.257  1.00  0.00     0.015 C 
ENDBRANCH  25  29
ENDBRANCH  21  22
ENDBRANCH  20  21
ENDBRANCH   1  20
TORSDOF 6
ENDMDL
