MODEL 1
REMARK VINA RESULT:      -9.8      0.000      0.000
REMARK  2 active torsions:
REMARK  status: ('A' for Active; 'I' for Inactive)
REMARK    1  A    between atoms: N_8  and  N_9 
REMARK       I    between atoms: N_9  and  C_10 
REMARK    2  A    between atoms: C_10  and  C_11 
ROOT
HETATM    1  N   UNL     1      41.825 -14.569   1.965  1.00  0.00    -0.242 N 
HETATM    2  C   UNL     1      43.101 -15.099   2.061  1.00  0.00     0.273 C 
HETATM    3  O   UNL     1      44.077 -14.690   1.433  1.00  0.00    -0.266 OA
HETATM    4  H   UNL     1      41.051 -14.904   2.537  1.00  0.00     0.192 HD
ENDROOT
BRANCH   1   5
HETATM    5  N   UNL     1      41.619 -13.484   1.160  1.00  0.00    -0.166 NA
HETATM    6  C   UNL     1      40.679 -13.568   0.276  1.00  0.00     0.157 A 
HETATM    7  C   UNL     1      40.293 -12.510  -0.648  1.00  0.00     0.027 A 
HETATM    8  C   UNL     1      39.776 -14.758  -0.051  1.00  0.00     0.277 A 
HETATM    9  C   UNL     1      40.746 -11.211  -0.767  1.00  0.00     0.023 A 
HETATM   10  C   UNL     1      39.295 -13.037  -1.464  1.00  0.00     0.048 A 
HETATM   11  C   UNL     1      40.151 -10.411  -1.752  1.00  0.00    -0.061 A 
HETATM   12  C   UNL     1      40.588  -8.986  -1.939  1.00  0.00     0.048 C 
HETATM   13  C   UNL     1      39.152 -10.957  -2.597  1.00  0.00     0.009 A 
HETATM   14  C   UNL     1      38.713 -12.280  -2.456  1.00  0.00     0.031 A 
HETATM   15  N   UNL     1      39.004 -14.355  -1.118  1.00  0.00    -0.321 N 
HETATM   16  H   UNL     1      38.306 -14.940  -1.554  1.00  0.00     0.169 HD
HETATM   17  O   UNL     1      39.777 -15.813   0.549  1.00  0.00    -0.266 OA
ENDBRANCH   1   5
BRANCH   2  18
HETATM   18  C   UNL     1      43.308 -16.193   3.040  1.00  0.00     0.058 A 
HETATM   19  C   UNL     1      43.326 -16.056   4.427  1.00  0.00     0.047 A 
HETATM   20  C   UNL     1      43.105 -14.756   5.140  1.00  0.00     0.071 C 
HETATM   21  N   UNL     1      43.530 -17.119   5.257  1.00  0.00    -0.252 NA
HETATM   22  C   UNL     1      43.666 -18.353   4.734  1.00  0.00     0.067 A 
HETATM   23  C   UNL     1      43.617 -18.586   3.348  1.00  0.00    -0.006 A 
HETATM   24  C   UNL     1      43.850 -19.443   5.574  1.00  0.00     0.032 A 
HETATM   25  C   UNL     1      43.439 -17.483   2.508  1.00  0.00     0.033 A 
HETATM   26  C   UNL     1      43.738 -19.892   2.841  1.00  0.00     0.014 A 
HETATM   27  C   UNL     1      43.915 -20.969   3.707  1.00  0.00     0.001 A 
HETATM   28  C   UNL     1      43.974 -20.744   5.077  1.00  0.00     0.002 A 
ENDBRANCH   2  18
TORSDOF 2
ENDMDL
MODEL 2
REMARK VINA RESULT:      -9.3      4.757      9.003
REMARK  2 active torsions:
REMARK  status: ('A' for Active; 'I' for Inactive)
REMARK    1  A    between atoms: N_8  and  N_9 
REMARK       I    between atoms: N_9  and  C_10 
REMARK    2  A    between atoms: C_10  and  C_11 
ROOT
HETATM    1  N   UNL     1      43.402 -14.560   5.499  1.00  0.00    -0.242 N 
HETATM    2  C   UNL     1      43.183 -13.357   4.849  1.00  0.00     0.273 C 
HETATM    3  O   UNL     1      43.137 -13.221   3.627  1.00  0.00    -0.266 OA
HETATM    4  H   UNL     1      43.387 -14.643   6.515  1.00  0.00     0.192 HD
ENDROOT
BRANCH   1   5
HETATM    5  N   UNL     1      43.531 -15.699   4.755  1.00  0.00    -0.166 NA
HETATM    6  C   UNL     1      43.542 -16.827   5.388  1.00  0.00     0.157 A 
HETATM    7  C   UNL     1      43.642 -18.142   4.768  1.00  0.00     0.027 A 
HETATM    8  C   UNL     1      43.491 -17.078   6.896  1.00  0.00     0.277 A 
HETATM    9  C   UNL     1      43.674 -18.507   3.437  1.00  0.00     0.023 A 
HETATM   10  C   UNL     1      43.688 -19.069   5.806  1.00  0.00     0.048 A 
HETATM   11  C   UNL     1      43.746 -19.878   3.150  1.00  0.00    -0.061 A 
HETATM   12  C   UNL     1      43.781 -20.353   1.725  1.00  0.00     0.048 C 
HETATM   13  C   UNL     1      43.816 -20.819   4.208  1.00  0.00     0.009 A 
HETATM   14  C   UNL     1      43.784 -20.419   5.550  1.00  0.00     0.031 A 
HETATM   15  N   UNL     1      43.610 -18.442   7.048  1.00  0.00    -0.321 N 
HETATM   16  H   UNL     1      43.608 -18.906   7.945  1.00  0.00     0.169 HD
HETATM   17  O   UNL     1      43.360 -16.215   7.737  1.00  0.00    -0.266 OA
ENDBRANCH   1   5
BRANCH   2  18
HETATM   18  C   UNL     1      42.923 -12.168   5.696  1.00  0.00     0.058 A 
HETATM   19  C   UNL     1      41.675 -11.597   5.940  1.00  0.00     0.047 A 
HETATM   20  C   UNL     1      40.389 -12.135   5.391  1.00  0.00     0.071 C 
HETATM   21  N   UNL     1      41.526 -10.494   6.730  1.00  0.00    -0.252 NA
HETATM   22  C   UNL     1      42.604  -9.965   7.342  1.00  0.00     0.067 A 
HETATM   23  C   UNL     1      43.892 -10.506   7.184  1.00  0.00    -0.006 A 
HETATM   24  C   UNL     1      42.456  -8.857   8.166  1.00  0.00     0.032 A 
HETATM   25  C   UNL     1      44.034 -11.616   6.346  1.00  0.00     0.033 A 
HETATM   26  C   UNL     1      44.989  -9.940   7.858  1.00  0.00     0.014 A 
HETATM   27  C   UNL     1      44.812  -8.833   8.685  1.00  0.00     0.001 A 
HETATM   28  C   UNL     1      43.543  -8.288   8.837  1.00  0.00     0.002 A 
ENDBRANCH   2  18
TORSDOF 2
ENDMDL
MODEL 3
REMARK VINA RESULT:      -9.1      3.062      3.401
REMARK  2 active torsions:
REMARK  status: ('A' for Active; 'I' for Inactive)
REMARK    1  A    between atoms: N_8  and  N_9 
REMARK       I    between atoms: N_9  and  C_10 
REMARK    2  A    between atoms: C_10  and  C_11 
ROOT
HETATM    1  N   UNL     1      41.008 -14.637   4.569  1.00  0.00    -0.242 N 
HETATM    2  C   UNL     1      42.380 -14.824   4.583  1.00  0.00     0.273 C 
HETATM    3  O   UNL     1      43.209 -13.916   4.594  1.00  0.00    -0.266 OA
HETATM    4  H   UNL     1      40.350 -15.414   4.607  1.00  0.00     0.192 HD
ENDROOT
BRANCH   1   5
HETATM    5  N   UNL     1      40.514 -13.363   4.619  1.00  0.00    -0.166 NA
HETATM    6  C   UNL     1      39.860 -12.936   3.588  1.00  0.00     0.157 A 
HETATM    7  C   UNL     1      39.238 -11.624   3.468  1.00  0.00     0.027 A 
HETATM    8  C   UNL     1      39.600 -13.645   2.259  1.00  0.00     0.277 A 
HETATM    9  C   UNL     1      39.128 -10.595   4.382  1.00  0.00     0.023 A 
HETATM   10  C   UNL     1      38.703 -11.553   2.184  1.00  0.00     0.048 A 
HETATM   11  C   UNL     1      38.435  -9.447   3.974  1.00  0.00    -0.061 A 
HETATM   12  C   UNL     1      38.270  -8.286   4.914  1.00  0.00     0.048 C 
HETATM   13  C   UNL     1      37.912  -9.367   2.659  1.00  0.00     0.009 A 
HETATM   14  C   UNL     1      38.041 -10.426   1.751  1.00  0.00     0.031 A 
HETATM   15  N   UNL     1      38.927 -12.733   1.477  1.00  0.00    -0.321 N 
HETATM   16  H   UNL     1      38.620 -12.924   0.535  1.00  0.00     0.169 HD
HETATM   17  O   UNL     1      39.933 -14.784   2.005  1.00  0.00    -0.266 OA
ENDBRANCH   1   5
BRANCH   2  18
HETATM   18  C   UNL     1      42.871 -16.221   4.655  1.00  0.00     0.058 A 
HETATM   19  C   UNL     1      43.303 -16.877   5.807  1.00  0.00     0.047 A 
HETATM   20  C   UNL     1      43.304 -16.254   7.171  1.00  0.00     0.071 C 
HETATM   21  N   UNL     1      43.747 -18.167   5.783  1.00  0.00    -0.252 NA
HETATM   22  C   UNL     1      43.722 -18.856   4.626  1.00  0.00     0.067 A 
HETATM   23  C   UNL     1      43.261 -18.284   3.427  1.00  0.00    -0.006 A 
HETATM   24  C   UNL     1      44.150 -20.176   4.598  1.00  0.00     0.032 A 
HETATM   25  C   UNL     1      42.839 -16.952   3.460  1.00  0.00     0.033 A 
HETATM   26  C   UNL     1      43.226 -19.043   2.243  1.00  0.00     0.014 A 
HETATM   27  C   UNL     1      43.655 -20.369   2.244  1.00  0.00     0.001 A 
HETATM   28  C   UNL     1      44.122 -20.936   3.424  1.00  0.00     0.002 A 
ENDBRANCH   2  18
TORSDOF 2
ENDMDL
MODEL 4
REMARK VINA RESULT:      -9.1      4.685      7.996
REMARK  2 active torsions:
REMARK  status: ('A' for Active; 'I' for Inactive)
REMARK    1  A    between atoms: N_8  and  N_9 
REMARK       I    between atoms: N_9  and  C_10 
REMARK    2  A    between atoms: C_10  and  C_11 
ROOT
HETATM    1  N   UNL     1      43.573 -13.710   6.500  1.00  0.00    -0.242 N 
HETATM    2  C   UNL     1      43.136 -15.013   6.672  1.00  0.00     0.273 C 
HETATM    3  O   UNL     1      42.795 -15.499   7.749  1.00  0.00    -0.266 OA
HETATM    4  H   UNL     1      43.803 -13.327   5.583  1.00  0.00     0.192 HD
ENDROOT
BRANCH   1   5
HETATM    5  N   UNL     1      43.589 -12.871   7.579  1.00  0.00    -0.166 NA
HETATM    6  C   UNL     1      44.347 -11.825   7.508  1.00  0.00     0.157 A 
HETATM    7  C   UNL     1      44.474 -10.805   8.540  1.00  0.00     0.027 A 
HETATM    8  C   UNL     1      45.299 -11.406   6.387  1.00  0.00     0.277 A 
HETATM    9  C   UNL     1      43.815 -10.658   9.745  1.00  0.00     0.023 A 
HETATM   10  C   UNL     1      45.435  -9.901   8.092  1.00  0.00     0.048 A 
HETATM   11  C   UNL     1      44.141  -9.538  10.522  1.00  0.00    -0.061 A 
HETATM   12  C   UNL     1      43.463  -9.308  11.843  1.00  0.00     0.048 C 
HETATM   13  C   UNL     1      45.136  -8.632  10.075  1.00  0.00     0.009 A 
HETATM   14  C   UNL     1      45.791  -8.807   8.849  1.00  0.00     0.031 A 
HETATM   15  N   UNL     1      45.922 -10.263   6.838  1.00  0.00    -0.321 N 
HETATM   16  H   UNL     1      46.612  -9.756   6.303  1.00  0.00     0.169 HD
HETATM   17  O   UNL     1      45.430 -11.994   5.334  1.00  0.00    -0.266 OA
ENDBRANCH   1   5
BRANCH   2  18
HETATM   18  C   UNL     1      43.013 -15.852   5.455  1.00  0.00     0.058 A 
HETATM   19  C   UNL     1      42.440 -15.459   4.247  1.00  0.00     0.047 A 
HETATM   20  C   UNL     1      41.880 -14.092   3.994  1.00  0.00     0.071 C 
HETATM   21  N   UNL     1      42.362 -16.300   3.175  1.00  0.00    -0.252 NA
HETATM   22  C   UNL     1      42.900 -17.533   3.258  1.00  0.00     0.067 A 
HETATM   23  C   UNL     1      43.535 -17.992   4.425  1.00  0.00    -0.006 A 
HETATM   24  C   UNL     1      42.845 -18.385   2.164  1.00  0.00     0.032 A 
HETATM   25  C   UNL     1      43.580 -17.131   5.525  1.00  0.00     0.033 A 
HETATM   26  C   UNL     1      44.107 -19.277   4.466  1.00  0.00     0.014 A 
HETATM   27  C   UNL     1      44.045 -20.110   3.351  1.00  0.00     0.001 A 
HETATM   28  C   UNL     1      43.409 -19.664   2.198  1.00  0.00     0.002 A 
ENDBRANCH   2  18
TORSDOF 2
ENDMDL
MODEL 5
REMARK VINA RESULT:      -9.1      5.191      9.448
REMARK  2 active torsions:
REMARK  status: ('A' for Active; 'I' for Inactive)
REMARK    1  A    between atoms: N_8  and  N_9 
REMARK       I    between atoms: N_9  and  C_10 
REMARK    2  A    between atoms: C_10  and  C_11 
ROOT
HETATM    1  N   UNL     1      43.073 -13.440   6.496  1.00  0.00    -0.242 N 
HETATM    2  C   UNL     1      43.611 -12.204   6.176  1.00  0.00     0.273 C 
HETATM    3  O   UNL     1      44.284 -11.973   5.172  1.00  0.00    -0.266 OA
HETATM    4  H   UNL     1      42.482 -13.583   7.314  1.00  0.00     0.192 HD
ENDROOT
BRANCH   1   5
HETATM    5  N   UNL     1      43.246 -14.481   5.627  1.00  0.00    -0.166 NA
HETATM    6  C   UNL     1      43.328 -15.669   6.130  1.00  0.00     0.157 A 
HETATM    7  C   UNL     1      43.482 -16.900   5.365  1.00  0.00     0.027 A 
HETATM    8  C   UNL     1      43.319 -16.089   7.600  1.00  0.00     0.277 A 
HETATM    9  C   UNL     1      43.507 -17.113   4.001  1.00  0.00     0.023 A 
HETATM   10  C   UNL     1      43.596 -17.933   6.292  1.00  0.00     0.048 A 
HETATM   11  C   UNL     1      43.644 -18.437   3.561  1.00  0.00    -0.061 A 
HETATM   12  C   UNL     1      43.675 -18.748   2.092  1.00  0.00     0.048 C 
HETATM   13  C   UNL     1      43.783 -19.485   4.506  1.00  0.00     0.009 A 
HETATM   14  C   UNL     1      43.757 -19.239   5.885  1.00  0.00     0.031 A 
HETATM   15  N   UNL     1      43.511 -17.453   7.597  1.00  0.00    -0.321 N 
HETATM   16  H   UNL     1      43.550 -18.013   8.436  1.00  0.00     0.169 HD
HETATM   17  O   UNL     1      43.161 -15.333   8.535  1.00  0.00    -0.266 OA
ENDBRANCH   1   5
BRANCH   2  18
HETATM   18  C   UNL     1      43.295 -11.073   7.081  1.00  0.00     0.058 A 
HETATM   19  C   UNL     1      42.343 -10.082   6.848  1.00  0.00     0.047 A 
HETATM   20  C   UNL     1      41.466 -10.037   5.633  1.00  0.00     0.071 C 
HETATM   21  N   UNL     1      42.119  -9.070   7.735  1.00  0.00    -0.252 NA
HETATM   22  C   UNL     1      42.795  -9.046   8.900  1.00  0.00     0.067 A 
HETATM   23  C   UNL     1      43.741 -10.032   9.234  1.00  0.00    -0.006 A 
HETATM   24  C   UNL     1      42.555  -8.033   9.818  1.00  0.00     0.032 A 
HETATM   25  C   UNL     1      43.982 -11.045   8.302  1.00  0.00     0.033 A 
HETATM   26  C   UNL     1      44.409  -9.988  10.471  1.00  0.00     0.014 A 
HETATM   27  C   UNL     1      44.144  -8.963  11.377  1.00  0.00     0.001 A 
HETATM   28  C   UNL     1      43.217  -7.981  11.048  1.00  0.00     0.002 A 
ENDBRANCH   2  18
TORSDOF 2
ENDMDL
MODEL 6
REMARK VINA RESULT:      -9.1      4.814      7.361
REMARK  2 active torsions:
REMARK  status: ('A' for Active; 'I' for Inactive)
REMARK    1  A    between atoms: N_8  and  N_9 
REMARK       I    between atoms: N_9  and  C_10 
REMARK    2  A    between atoms: C_10  and  C_11 
ROOT
HETATM    1  N   UNL     1      42.582 -12.441   5.188  1.00  0.00    -0.242 N 
HETATM    2  C   UNL     1      41.701 -13.491   5.386  1.00  0.00     0.273 C 
HETATM    3  O   UNL     1      40.742 -13.464   6.155  1.00  0.00    -0.266 OA
HETATM    4  H   UNL     1      43.339 -12.484   4.507  1.00  0.00     0.192 HD
ENDROOT
BRANCH   1   5
HETATM    5  N   UNL     1      42.365 -11.263   5.847  1.00  0.00    -0.166 NA
HETATM    6  C   UNL     1      43.268 -10.875   6.687  1.00  0.00     0.157 A 
HETATM    7  C   UNL     1      43.227  -9.639   7.458  1.00  0.00     0.027 A 
HETATM    8  C   UNL     1      44.553 -11.588   7.109  1.00  0.00     0.277 A 
HETATM    9  C   UNL     1      42.318  -8.600   7.442  1.00  0.00     0.023 A 
HETATM   10  C   UNL     1      44.351  -9.645   8.280  1.00  0.00     0.048 A 
HETATM   11  C   UNL     1      42.568  -7.515   8.294  1.00  0.00    -0.061 A 
HETATM   12  C   UNL     1      41.626  -6.346   8.330  1.00  0.00     0.048 C 
HETATM   13  C   UNL     1      43.700  -7.534   9.147  1.00  0.00     0.009 A 
HETATM   14  C   UNL     1      44.605  -8.603   9.144  1.00  0.00     0.031 A 
HETATM   15  N   UNL     1      45.118 -10.791   8.080  1.00  0.00    -0.321 N 
HETATM   16  H   UNL     1      45.984 -11.011   8.548  1.00  0.00     0.169 HD
HETATM   17  O   UNL     1      44.950 -12.634   6.640  1.00  0.00    -0.266 OA
ENDBRANCH   1   5
BRANCH   2  18
HETATM   18  C   UNL     1      41.899 -14.706   4.558  1.00  0.00     0.058 A 
HETATM   19  C   UNL     1      41.236 -15.001   3.369  1.00  0.00     0.047 A 
HETATM   20  C   UNL     1      40.226 -14.096   2.730  1.00  0.00     0.071 C 
HETATM   21  N   UNL     1      41.475 -16.149   2.672  1.00  0.00    -0.252 NA
HETATM   22  C   UNL     1      42.418 -17.006   3.108  1.00  0.00     0.067 A 
HETATM   23  C   UNL     1      43.165 -16.764   4.275  1.00  0.00    -0.006 A 
HETATM   24  C   UNL     1      42.684 -18.165   2.391  1.00  0.00     0.032 A 
HETATM   25  C   UNL     1      42.886 -15.599   4.996  1.00  0.00     0.033 A 
HETATM   26  C   UNL     1      44.159 -17.670   4.686  1.00  0.00     0.014 A 
HETATM   27  C   UNL     1      44.410 -18.822   3.944  1.00  0.00     0.001 A 
HETATM   28  C   UNL     1      43.669 -19.072   2.795  1.00  0.00     0.002 A 
ENDBRANCH   2  18
TORSDOF 2
ENDMDL
MODEL 7
REMARK VINA RESULT:      -9.0      5.332      8.914
REMARK  2 active torsions:
REMARK  status: ('A' for Active; 'I' for Inactive)
REMARK    1  A    between atoms: N_8  and  N_9 
REMARK       I    between atoms: N_9  and  C_10 
REMARK    2  A    between atoms: C_10  and  C_11 
ROOT
HETATM    1  N   UNL     1      43.055 -13.133   7.159  1.00  0.00    -0.242 N 
HETATM    2  C   UNL     1      43.929 -12.062   7.075  1.00  0.00     0.273 C 
HETATM    3  O   UNL     1      44.953 -12.046   6.393  1.00  0.00    -0.266 OA
HETATM    4  H   UNL     1      42.192 -13.093   7.698  1.00  0.00     0.192 HD
ENDROOT
BRANCH   1   5
HETATM    5  N   UNL     1      43.300 -14.246   6.403  1.00  0.00    -0.166 NA
HETATM    6  C   UNL     1      42.494 -14.487   5.421  1.00  0.00     0.157 A 
HETATM    7  C   UNL     1      42.609 -15.603   4.490  1.00  0.00     0.027 A 
HETATM    8  C   UNL     1      41.237 -13.723   5.003  1.00  0.00     0.277 A 
HETATM    9  C   UNL     1      43.576 -16.581   4.376  1.00  0.00     0.023 A 
HETATM   10  C   UNL     1      41.508 -15.528   3.640  1.00  0.00     0.048 A 
HETATM   11  C   UNL     1      43.422 -17.518   3.345  1.00  0.00    -0.061 A 
HETATM   12  C   UNL     1      44.436 -18.611   3.154  1.00  0.00     0.048 C 
HETATM   13  C   UNL     1      42.289 -17.454   2.495  1.00  0.00     0.009 A 
HETATM   14  C   UNL     1      41.321 -16.451   2.636  1.00  0.00     0.031 A 
HETATM   15  N   UNL     1      40.703 -14.433   3.950  1.00  0.00    -0.321 N 
HETATM   16  H   UNL     1      39.861 -14.163   3.465  1.00  0.00     0.169 HD
HETATM   17  O   UNL     1      40.844 -12.700   5.524  1.00  0.00    -0.266 OA
ENDBRANCH   1   5
BRANCH   2  18
HETATM   18  C   UNL     1      43.560 -10.829   7.812  1.00  0.00     0.058 A 
HETATM   19  C   UNL     1      42.857  -9.745   7.290  1.00  0.00     0.047 A 
HETATM   20  C   UNL     1      42.340  -9.684   5.885  1.00  0.00     0.071 C 
HETATM   21  N   UNL     1      42.565  -8.642   8.040  1.00  0.00    -0.252 NA
HETATM   22  C   UNL     1      42.914  -8.613   9.341  1.00  0.00     0.067 A 
HETATM   23  C   UNL     1      43.586  -9.683   9.957  1.00  0.00    -0.006 A 
HETATM   24  C   UNL     1      42.598  -7.505  10.116  1.00  0.00     0.032 A 
HETATM   25  C   UNL     1      43.907 -10.792   9.169  1.00  0.00     0.033 A 
HETATM   26  C   UNL     1      43.912  -9.626  11.325  1.00  0.00     0.014 A 
HETATM   27  C   UNL     1      43.577  -8.505  12.081  1.00  0.00     0.001 A 
HETATM   28  C   UNL     1      42.922  -7.440  11.475  1.00  0.00     0.002 A 
ENDBRANCH   2  18
TORSDOF 2
ENDMDL
MODEL 8
REMARK VINA RESULT:      -9.0      3.365      3.912
REMARK  2 active torsions:
REMARK  status: ('A' for Active; 'I' for Inactive)
REMARK    1  A    between atoms: N_8  and  N_9 
REMARK       I    between atoms: N_9  and  C_10 
REMARK    2  A    between atoms: C_10  and  C_11 
ROOT
HETATM    1  N   UNL     1      41.070 -14.381   3.168  1.00  0.00    -0.242 N 
HETATM    2  C   UNL     1      42.442 -14.571   3.164  1.00  0.00     0.273 C 
HETATM    3  O   UNL     1      43.266 -13.706   2.870  1.00  0.00    -0.266 OA
HETATM    4  H   UNL     1      40.419 -15.108   3.463  1.00  0.00     0.192 HD
ENDROOT
BRANCH   1   5
HETATM    5  N   UNL     1      40.573 -13.142   2.876  1.00  0.00    -0.166 NA
HETATM    6  C   UNL     1      40.047 -12.467   3.846  1.00  0.00     0.157 A 
HETATM    7  C   UNL     1      39.495 -11.123   3.735  1.00  0.00     0.027 A 
HETATM    8  C   UNL     1      39.840 -12.885   5.302  1.00  0.00     0.277 A 
HETATM    9  C   UNL     1      39.455 -10.253   2.664  1.00  0.00     0.023 A 
HETATM   10  C   UNL     1      38.976 -10.801   4.987  1.00  0.00     0.048 A 
HETATM   11  C   UNL     1      38.871  -8.997   2.879  1.00  0.00    -0.061 A 
HETATM   12  C   UNL     1      38.794  -7.995   1.762  1.00  0.00     0.048 C 
HETATM   13  C   UNL     1      38.323  -8.680   4.147  1.00  0.00     0.009 A 
HETATM   14  C   UNL     1      38.375  -9.583   5.217  1.00  0.00     0.031 A 
HETATM   15  N   UNL     1      39.171 -11.838   5.897  1.00  0.00    -0.321 N 
HETATM   16  H   UNL     1      38.897 -11.832   6.868  1.00  0.00     0.169 HD
HETATM   17  O   UNL     1      40.218 -13.934   5.781  1.00  0.00    -0.266 OA
ENDBRANCH   1   5
BRANCH   2  18
HETATM   18  C   UNL     1      42.944 -15.893   3.610  1.00  0.00     0.058 A 
HETATM   19  C   UNL     1      43.445 -16.192   4.875  1.00  0.00     0.047 A 
HETATM   20  C   UNL     1      43.524 -15.202   5.997  1.00  0.00     0.071 C 
HETATM   21  N   UNL     1      43.894 -17.439   5.199  1.00  0.00    -0.252 NA
HETATM   22  C   UNL     1      43.804 -18.433   4.295  1.00  0.00     0.067 A 
HETATM   23  C   UNL     1      43.270 -18.228   3.011  1.00  0.00    -0.006 A 
HETATM   24  C   UNL     1      44.237 -19.710   4.627  1.00  0.00     0.032 A 
HETATM   25  C   UNL     1      42.844 -16.938   2.681  1.00  0.00     0.033 A 
HETATM   26  C   UNL     1      43.170 -19.296   2.101  1.00  0.00     0.014 A 
HETATM   27  C   UNL     1      43.605 -20.570   2.462  1.00  0.00     0.001 A 
HETATM   28  C   UNL     1      44.143 -20.777   3.727  1.00  0.00     0.002 A 
ENDBRANCH   2  18
TORSDOF 2
ENDMDL
MODEL 9
REMARK VINA RESULT:      -8.9      4.819      8.953
REMARK  2 active torsions:
REMARK  status: ('A' for Active; 'I' for Inactive)
REMARK    1  A    between atoms: N_8  and  N_9 
REMARK       I    between atoms: N_9  and  C_10 
REMARK    2  A    between atoms: C_10  and  C_11 
ROOT
HETATM    1  N   UNL     1      43.153 -14.626   5.381  1.00  0.00    -0.242 N 
HETATM    2  C   UNL     1      43.068 -13.410   4.724  1.00  0.00     0.273 C 
HETATM    3  O   UNL     1      43.193 -13.262   3.509  1.00  0.00    -0.266 OA
HETATM    4  H   UNL     1      42.998 -14.717   6.385  1.00  0.00     0.192 HD
ENDROOT
BRANCH   1   5
HETATM    5  N   UNL     1      43.340 -15.763   4.646  1.00  0.00    -0.166 NA
HETATM    6  C   UNL     1      43.419 -16.882   5.289  1.00  0.00     0.157 A 
HETATM    7  C   UNL     1      43.588 -18.195   4.680  1.00  0.00     0.027 A 
HETATM    8  C   UNL     1      43.394 -17.122   6.799  1.00  0.00     0.277 A 
HETATM    9  C   UNL     1      43.630 -18.570   3.352  1.00  0.00     0.023 A 
HETATM   10  C   UNL     1      43.693 -19.109   5.725  1.00  0.00     0.048 A 
HETATM   11  C   UNL     1      43.777 -19.937   3.076  1.00  0.00    -0.061 A 
HETATM   12  C   UNL     1      43.828 -20.422   1.655  1.00  0.00     0.048 C 
HETATM   13  C   UNL     1      43.908 -20.863   4.141  1.00  0.00     0.009 A 
HETATM   14  C   UNL     1      43.864 -20.454   5.480  1.00  0.00     0.031 A 
HETATM   15  N   UNL     1      43.590 -18.476   6.963  1.00  0.00    -0.321 N 
HETATM   16  H   UNL     1      43.621 -18.931   7.863  1.00  0.00     0.169 HD
HETATM   17  O   UNL     1      43.221 -16.260   7.634  1.00  0.00    -0.266 OA
ENDBRANCH   1   5
BRANCH   2  18
HETATM   18  C   UNL     1      42.739 -12.219   5.544  1.00  0.00     0.058 A 
HETATM   19  C   UNL     1      43.657 -11.392   6.189  1.00  0.00     0.047 A 
HETATM   20  C   UNL     1      45.143 -11.581   6.120  1.00  0.00     0.071 C 
HETATM   21  N   UNL     1      43.266 -10.317   6.932  1.00  0.00    -0.252 NA
HETATM   22  C   UNL     1      41.958 -10.002   7.006  1.00  0.00     0.067 A 
HETATM   23  C   UNL     1      40.970 -10.756   6.349  1.00  0.00    -0.006 A 
HETATM   24  C   UNL     1      41.555  -8.894   7.740  1.00  0.00     0.032 A 
HETATM   25  C   UNL     1      41.383 -11.874   5.619  1.00  0.00     0.033 A 
HETATM   26  C   UNL     1      39.617 -10.382   6.431  1.00  0.00     0.014 A 
HETATM   27  C   UNL     1      39.240  -9.262   7.168  1.00  0.00     0.001 A 
HETATM   28  C   UNL     1      40.211  -8.518   7.828  1.00  0.00     0.002 A 
ENDBRANCH   2  18
TORSDOF 2
ENDMDL
MODEL 10
REMARK VINA RESULT:      -8.9      1.509      8.830
REMARK  2 active torsions:
REMARK  status: ('A' for Active; 'I' for Inactive)
REMARK    1  A    between atoms: N_8  and  N_9 
REMARK       I    between atoms: N_9  and  C_10 
REMARK    2  A    between atoms: C_10  and  C_11 
ROOT
HETATM    1  N   UNL     1      41.950 -14.537   0.808  1.00  0.00    -0.242 N 
HETATM    2  C   UNL     1      40.645 -14.410   0.363  1.00  0.00     0.273 C 
HETATM    3  O   UNL     1      39.849 -15.342   0.256  1.00  0.00    -0.266 OA
HETATM    4  H   UNL     1      42.567 -13.734   0.927  1.00  0.00     0.192 HD
ENDROOT
BRANCH   1   5
HETATM    5  N   UNL     1      42.395 -15.765   1.210  1.00  0.00    -0.166 NA
HETATM    6  C   UNL     1      42.751 -15.895   2.446  1.00  0.00     0.157 A 
HETATM    7  C   UNL     1      43.222 -17.128   3.063  1.00  0.00     0.027 A 
HETATM    8  C   UNL     1      42.806 -14.831   3.543  1.00  0.00     0.277 A 
HETATM    9  C   UNL     1      43.335 -18.404   2.549  1.00  0.00     0.023 A 
HETATM   10  C   UNL     1      43.560 -16.812   4.377  1.00  0.00     0.048 A 
HETATM   11  C   UNL     1      43.803 -19.405   3.412  1.00  0.00    -0.061 A 
HETATM   12  C   UNL     1      43.949 -20.819   2.925  1.00  0.00     0.048 C 
HETATM   13  C   UNL     1      44.168 -19.077   4.742  1.00  0.00     0.009 A 
HETATM   14  C   UNL     1      44.046 -17.772   5.237  1.00  0.00     0.031 A 
HETATM   15  N   UNL     1      43.325 -15.466   4.650  1.00  0.00    -0.321 N 
HETATM   16  H   UNL     1      43.477 -15.008   5.536  1.00  0.00     0.169 HD
HETATM   17  O   UNL     1      42.442 -13.681   3.411  1.00  0.00    -0.266 OA
ENDBRANCH   1   5
BRANCH   2  18
HETATM   18  C   UNL     1      40.164 -13.041   0.057  1.00  0.00     0.058 A 
HETATM   19  C   UNL     1      39.429 -12.224   0.914  1.00  0.00     0.047 A 
HETATM   20  C   UNL     1      39.037 -12.613   2.307  1.00  0.00     0.071 C 
HETATM   21  N   UNL     1      39.019 -10.974   0.548  1.00  0.00    -0.252 NA
HETATM   22  C   UNL     1      39.376 -10.484  -0.655  1.00  0.00     0.067 A 
HETATM   23  C   UNL     1      40.154 -11.226  -1.562  1.00  0.00    -0.006 A 
HETATM   24  C   UNL     1      38.984  -9.205  -1.024  1.00  0.00     0.032 A 
HETATM   25  C   UNL     1      40.539 -12.516  -1.187  1.00  0.00     0.033 A 
HETATM   26  C   UNL     1      40.527 -10.671  -2.799  1.00  0.00     0.014 A 
HETATM   27  C   UNL     1      40.126  -9.382  -3.142  1.00  0.00     0.001 A 
HETATM   28  C   UNL     1      39.349  -8.648  -2.254  1.00  0.00     0.002 A 
ENDBRANCH   2  18
TORSDOF 2
ENDMDL
