MODEL 1
REMARK VINA RESULT:      -8.5      0.000      0.000
REMARK  6 active torsions:
REMARK  status: ('A' for Active; 'I' for Inactive)
REMARK    1  A    between atoms: C_3  and  O_4 
REMARK    2  A    between atoms: O_4  and  C_5 
REMARK    3  A    between atoms: C_5  and  C_6 
REMARK       I    between atoms: C_6  and  N_7 
REMARK    4  A    between atoms: N_7  and  C_8 
REMARK    5  A    between atoms: C_8  and  C_9 
REMARK       I    between atoms: C_9  and  N_10 
REMARK    6  A    between atoms: N_10  and  N_11 
ROOT
HETATM    1  C   UNL     1      42.492 -12.508   4.629  1.00  0.00     0.255 C 
HETATM    2  N   UNL     1      41.239 -12.449   4.045  1.00  0.00    -0.245 N 
HETATM    3  O   UNL     1      43.559 -12.425   4.021  1.00  0.00    -0.270 OA
HETATM    4  H   UNL     1      40.403 -12.579   4.621  1.00  0.00     0.192 HD
ENDROOT
BRANCH   1   5
HETATM    5  C   UNL     1      42.469 -12.765   6.136  1.00  0.00     0.227 C 
BRANCH   5   6
HETATM    6  N   UNL     1      41.695 -13.930   6.551  1.00  0.00    -0.350 N 
HETATM    7  C   UNL     1      42.127 -15.226   6.650  1.00  0.00     0.242 C 
HETATM    8  O   UNL     1      41.409 -16.046   7.224  1.00  0.00    -0.271 OA
HETATM    9  H   UNL     1      40.802 -13.773   7.008  1.00  0.00     0.163 HD
BRANCH   7  10
HETATM   10  C   UNL     1      43.496 -15.601   6.093  1.00  0.00     0.278 C 
BRANCH  10  11
HETATM   11  O   UNL     1      43.353 -15.938   4.719  1.00  0.00    -0.342 OA
BRANCH  11  12
HETATM   12  C   UNL     1      43.550 -17.252   4.384  1.00  0.00     0.075 A 
HETATM   13  C   UNL     1      43.448 -17.568   3.018  1.00  0.00    -0.029 A 
HETATM   14  C   UNL     1      43.060 -16.540   1.990  1.00  0.00     0.051 C 
HETATM   15  C   UNL     1      43.643 -18.895   2.604  1.00  0.00     0.009 A 
HETATM   16  C   UNL     1      43.968 -19.888   3.526  1.00  0.00     0.001 A 
HETATM   17  C   UNL     1      44.094 -19.566   4.873  1.00  0.00     0.003 A 
HETATM   18  C   UNL     1      43.886 -18.253   5.302  1.00  0.00     0.037 A 
ENDBRANCH  11  12
ENDBRANCH  10  11
ENDBRANCH   7  10
ENDBRANCH   5   6
ENDBRANCH   1   5
BRANCH   2  19
HETATM   19  N   UNL     1      41.121 -12.233   2.703  1.00  0.00    -0.166 NA
HETATM   20  C   UNL     1      40.648 -13.203   1.992  1.00  0.00     0.157 A 
HETATM   21  C   UNL     1      40.169 -14.581   2.452  1.00  0.00     0.277 A 
HETATM   22  C   UNL     1      40.451 -13.173   0.547  1.00  0.00     0.028 A 
HETATM   23  O   UNL     1      40.180 -14.967   3.601  1.00  0.00    -0.266 OA
HETATM   24  N   UNL     1      39.743 -15.225   1.311  1.00  0.00    -0.321 N 
HETATM   25  C   UNL     1      39.905 -14.408   0.195  1.00  0.00     0.048 A 
HETATM   26  H   UNL     1      39.365 -16.162   1.312  1.00  0.00     0.169 HD
HETATM   27  C   UNL     1      39.593 -14.703  -1.115  1.00  0.00     0.032 A 
HETATM   28  C   UNL     1      39.848 -13.713  -2.074  1.00  0.00     0.021 A 
HETATM   29  C   UNL     1      40.402 -12.470  -1.703  1.00  0.00     0.012 A 
HETATM   30 BR   UNL     1      40.731 -11.169  -3.037  1.00  0.00    -0.051 Br
HETATM   31  C   UNL     1      40.713 -12.180  -0.375  1.00  0.00     0.035 A 
ENDBRANCH   2  19
TORSDOF 6
ENDMDL
MODEL 2
REMARK VINA RESULT:      -8.5      1.478      2.343
REMARK  6 active torsions:
REMARK  status: ('A' for Active; 'I' for Inactive)
REMARK    1  A    between atoms: C_3  and  O_4 
REMARK    2  A    between atoms: O_4  and  C_5 
REMARK    3  A    between atoms: C_5  and  C_6 
REMARK       I    between atoms: C_6  and  N_7 
REMARK    4  A    between atoms: N_7  and  C_8 
REMARK    5  A    between atoms: C_8  and  C_9 
REMARK       I    between atoms: C_9  and  N_10 
REMARK    6  A    between atoms: N_10  and  N_11 
ROOT
HETATM    1  C   UNL     1      40.500 -15.432   4.942  1.00  0.00     0.255 C 
HETATM    2  N   UNL     1      40.313 -14.290   4.184  1.00  0.00    -0.245 N 
HETATM    3  O   UNL     1      40.398 -16.584   4.520  1.00  0.00    -0.270 OA
HETATM    4  H   UNL     1      40.367 -13.369   4.628  1.00  0.00     0.192 HD
ENDROOT
BRANCH   1   5
HETATM    5  C   UNL     1      40.785 -15.163   6.420  1.00  0.00     0.227 C 
BRANCH   5   6
HETATM    6  N   UNL     1      41.916 -14.277   6.679  1.00  0.00    -0.350 N 
HETATM    7  C   UNL     1      43.246 -14.551   6.505  1.00  0.00     0.242 C 
HETATM    8  O   UNL     1      44.052 -13.622   6.562  1.00  0.00    -0.271 OA
HETATM    9  H   UNL     1      41.728 -13.289   6.813  1.00  0.00     0.163 HD
BRANCH   7  10
HETATM   10  C   UNL     1      43.681 -15.981   6.200  1.00  0.00     0.278 C 
BRANCH  10  11
HETATM   11  O   UNL     1      43.805 -16.128   4.791  1.00  0.00    -0.342 OA
BRANCH  11  12
HETATM   12  C   UNL     1      43.785 -17.408   4.303  1.00  0.00     0.075 A 
HETATM   13  C   UNL     1      43.437 -17.551   2.948  1.00  0.00    -0.029 A 
HETATM   14  C   UNL     1      43.026 -16.376   2.103  1.00  0.00     0.051 C 
HETATM   15  C   UNL     1      43.399 -18.836   2.381  1.00  0.00     0.009 A 
HETATM   16  C   UNL     1      43.736 -19.957   3.137  1.00  0.00     0.001 A 
HETATM   17  C   UNL     1      44.106 -19.807   4.469  1.00  0.00     0.003 A 
HETATM   18  C   UNL     1      44.130 -18.538   5.051  1.00  0.00     0.037 A 
ENDBRANCH  11  12
ENDBRANCH  10  11
ENDBRANCH   7  10
ENDBRANCH   5   6
ENDBRANCH   1   5
BRANCH   2  19
HETATM   19  N   UNL     1      40.043 -14.392   2.850  1.00  0.00    -0.166 NA
HETATM   20  C   UNL     1      40.508 -13.459   2.084  1.00  0.00     0.157 A 
HETATM   21  C   UNL     1      41.356 -12.245   2.464  1.00  0.00     0.277 A 
HETATM   22  C   UNL     1      40.325 -13.384   0.640  1.00  0.00     0.028 A 
HETATM   23  O   UNL     1      41.714 -11.977   3.591  1.00  0.00    -0.266 OA
HETATM   24  N   UNL     1      41.603 -11.581   1.282  1.00  0.00    -0.321 N 
HETATM   25  C   UNL     1      41.002 -12.242   0.213  1.00  0.00     0.048 A 
HETATM   26  H   UNL     1      42.150 -10.734   1.226  1.00  0.00     0.169 HD
HETATM   27  C   UNL     1      41.027 -11.882  -1.118  1.00  0.00     0.032 A 
HETATM   28  C   UNL     1      40.344 -12.709  -2.019  1.00  0.00     0.021 A 
HETATM   29  C   UNL     1      39.662 -13.860  -1.572  1.00  0.00     0.012 A 
HETATM   30 BR   UNL     1      38.751 -14.941  -2.830  1.00  0.00    -0.051 Br
HETATM   31  C   UNL     1      39.643 -14.216  -0.224  1.00  0.00     0.035 A 
ENDBRANCH   2  19
TORSDOF 6
ENDMDL
MODEL 3
REMARK VINA RESULT:      -8.4      0.873      1.624
REMARK  6 active torsions:
REMARK  status: ('A' for Active; 'I' for Inactive)
REMARK    1  A    between atoms: C_3  and  O_4 
REMARK    2  A    between atoms: O_4  and  C_5 
REMARK    3  A    between atoms: C_5  and  C_6 
REMARK       I    between atoms: C_6  and  N_7 
REMARK    4  A    between atoms: N_7  and  C_8 
REMARK    5  A    between atoms: C_8  and  C_9 
REMARK       I    between atoms: C_9  and  N_10 
REMARK    6  A    between atoms: N_10  and  N_11 
ROOT
HETATM    1  C   UNL     1      43.037 -12.881   4.514  1.00  0.00     0.255 C 
HETATM    2  N   UNL     1      41.964 -13.417   3.825  1.00  0.00    -0.245 N 
HETATM    3  O   UNL     1      43.848 -12.081   4.047  1.00  0.00    -0.270 OA
HETATM    4  H   UNL     1      41.368 -14.117   4.275  1.00  0.00     0.192 HD
ENDROOT
BRANCH   1   5
HETATM    5  C   UNL     1      43.202 -13.421   5.935  1.00  0.00     0.227 C 
BRANCH   5   6
HETATM    6  N   UNL     1      42.312 -14.525   6.282  1.00  0.00    -0.350 N 
HETATM    7  C   UNL     1      42.601 -15.863   6.271  1.00  0.00     0.242 C 
HETATM    8  O   UNL     1      41.808 -16.642   6.801  1.00  0.00    -0.271 OA
HETATM    9  H   UNL     1      41.451 -14.308   6.774  1.00  0.00     0.163 HD
BRANCH   7  10
HETATM   10  C   UNL     1      43.909 -16.340   5.651  1.00  0.00     0.278 C 
BRANCH  10  11
HETATM   11  O   UNL     1      43.918 -17.762   5.641  1.00  0.00    -0.342 OA
BRANCH  11  12
HETATM   12  C   UNL     1      43.750 -18.370   4.425  1.00  0.00     0.075 A 
HETATM   13  C   UNL     1      43.879 -19.769   4.406  1.00  0.00    -0.029 A 
HETATM   14  C   UNL     1      44.263 -20.550   5.633  1.00  0.00     0.051 C 
HETATM   15  C   UNL     1      43.715 -20.458   3.192  1.00  0.00     0.009 A 
HETATM   16  C   UNL     1      43.394 -19.771   2.023  1.00  0.00     0.001 A 
HETATM   17  C   UNL     1      43.241 -18.390   2.052  1.00  0.00     0.003 A 
HETATM   18  C   UNL     1      43.418 -17.690   3.248  1.00  0.00     0.037 A 
ENDBRANCH  11  12
ENDBRANCH  10  11
ENDBRANCH   7  10
ENDBRANCH   5   6
ENDBRANCH   1   5
BRANCH   2  19
HETATM   19  N   UNL     1      41.711 -13.025   2.543  1.00  0.00    -0.166 NA
HETATM   20  C   UNL     1      41.021 -13.834   1.807  1.00  0.00     0.157 A 
HETATM   21  C   UNL     1      40.413 -15.186   2.182  1.00  0.00     0.277 A 
HETATM   22  C   UNL     1      40.651 -13.602   0.415  1.00  0.00     0.028 A 
HETATM   23  O   UNL     1      40.513 -15.708   3.272  1.00  0.00    -0.266 OA
HETATM   24  N   UNL     1      39.762 -15.627   1.052  1.00  0.00    -0.321 N 
HETATM   25  C   UNL     1      39.897 -14.705   0.015  1.00  0.00     0.048 A 
HETATM   26  H   UNL     1      39.259 -16.501   1.007  1.00  0.00     0.169 HD
HETATM   27  C   UNL     1      39.386 -14.796  -1.261  1.00  0.00     0.032 A 
HETATM   28  C   UNL     1      39.656 -13.737  -2.137  1.00  0.00     0.021 A 
HETATM   29  C   UNL     1      40.422 -12.627  -1.719  1.00  0.00     0.012 A 
HETATM   30 BR   UNL     1      40.761 -11.225  -2.943  1.00  0.00    -0.051 Br
HETATM   31  C   UNL     1      40.934 -12.545  -0.425  1.00  0.00     0.035 A 
ENDBRANCH   2  19
TORSDOF 6
ENDMDL
MODEL 4
REMARK VINA RESULT:      -8.2      5.694      8.789
REMARK  6 active torsions:
REMARK  status: ('A' for Active; 'I' for Inactive)
REMARK    1  A    between atoms: C_3  and  O_4 
REMARK    2  A    between atoms: O_4  and  C_5 
REMARK    3  A    between atoms: C_5  and  C_6 
REMARK       I    between atoms: C_6  and  N_7 
REMARK    4  A    between atoms: N_7  and  C_8 
REMARK    5  A    between atoms: C_8  and  C_9 
REMARK       I    between atoms: C_9  and  N_10 
REMARK    6  A    between atoms: N_10  and  N_11 
ROOT
HETATM    1  C   UNL     1      44.416 -11.942   7.223  1.00  0.00     0.255 C 
HETATM    2  N   UNL     1      43.517 -12.986   7.350  1.00  0.00    -0.245 N 
HETATM    3  O   UNL     1      45.356 -11.913   6.427  1.00  0.00    -0.270 OA
HETATM    4  H   UNL     1      42.795 -12.950   8.075  1.00  0.00     0.192 HD
ENDROOT
BRANCH   1   5
HETATM    5  C   UNL     1      44.205 -10.807   8.225  1.00  0.00     0.227 C 
BRANCH   5   6
HETATM    6  N   UNL     1      42.836 -10.309   8.313  1.00  0.00    -0.350 N 
HETATM    7  C   UNL     1      42.310  -9.482   9.269  1.00  0.00     0.242 C 
HETATM    8  O   UNL     1      41.200  -8.985   9.074  1.00  0.00    -0.271 OA
HETATM    9  H   UNL     1      42.239 -10.405   7.498  1.00  0.00     0.163 HD
BRANCH   7  10
HETATM   10  C   UNL     1      43.130  -9.163  10.515  1.00  0.00     0.278 C 
BRANCH  10  11
HETATM   11  O   UNL     1      42.484  -9.737  11.644  1.00  0.00    -0.342 OA
BRANCH  11  12
HETATM   12  C   UNL     1      42.377  -8.947  12.758  1.00  0.00     0.075 A 
HETATM   13  C   UNL     1      41.273  -9.195  13.592  1.00  0.00    -0.029 A 
HETATM   14  C   UNL     1      40.221 -10.211  13.240  1.00  0.00     0.051 C 
HETATM   15  C   UNL     1      41.103  -8.424  14.754  1.00  0.00     0.009 A 
HETATM   16  C   UNL     1      42.033  -7.446  15.101  1.00  0.00     0.001 A 
HETATM   17  C   UNL     1      43.138  -7.223  14.287  1.00  0.00     0.003 A 
HETATM   18  C   UNL     1      43.310  -7.970  13.119  1.00  0.00     0.037 A 
ENDBRANCH  11  12
ENDBRANCH  10  11
ENDBRANCH   7  10
ENDBRANCH   5   6
ENDBRANCH   1   5
BRANCH   2  19
HETATM   19  N   UNL     1      43.602 -14.066   6.520  1.00  0.00    -0.166 NA
HETATM   20  C   UNL     1      42.675 -14.194   5.628  1.00  0.00     0.157 A 
HETATM   21  C   UNL     1      41.485 -13.277   5.346  1.00  0.00     0.277 A 
HETATM   22  C   UNL     1      42.584 -15.278   4.656  1.00  0.00     0.028 A 
HETATM   23  O   UNL     1      41.235 -12.262   5.961  1.00  0.00    -0.266 OA
HETATM   24  N   UNL     1      40.818 -13.850   4.286  1.00  0.00    -0.321 N 
HETATM   25  C   UNL     1      41.455 -15.019   3.878  1.00  0.00     0.048 A 
HETATM   26  H   UNL     1      39.984 -13.453   3.876  1.00  0.00     0.169 HD
HETATM   27  C   UNL     1      41.086 -15.864   2.853  1.00  0.00     0.032 A 
HETATM   28  C   UNL     1      41.889 -16.990   2.628  1.00  0.00     0.021 A 
HETATM   29  C   UNL     1      43.027 -17.239   3.425  1.00  0.00     0.012 A 
HETATM   30 BR   UNL     1      44.075 -18.776   3.082  1.00  0.00    -0.051 Br
HETATM   31  C   UNL     1      43.393 -16.378   4.459  1.00  0.00     0.035 A 
ENDBRANCH   2  19
TORSDOF 6
ENDMDL
MODEL 5
REMARK VINA RESULT:      -8.2      4.176      7.397
REMARK  6 active torsions:
REMARK  status: ('A' for Active; 'I' for Inactive)
REMARK    1  A    between atoms: C_3  and  O_4 
REMARK    2  A    between atoms: O_4  and  C_5 
REMARK    3  A    between atoms: C_5  and  C_6 
REMARK       I    between atoms: C_6  and  N_7 
REMARK    4  A    between atoms: N_7  and  C_8 
REMARK    5  A    between atoms: C_8  and  C_9 
REMARK       I    between atoms: C_9  and  N_10 
REMARK    6  A    between atoms: N_10  and  N_11 
ROOT
HETATM    1  C   UNL     1      42.403 -11.923   4.416  1.00  0.00     0.255 C 
HETATM    2  N   UNL     1      43.175 -10.933   4.997  1.00  0.00    -0.245 N 
HETATM    3  O   UNL     1      41.453 -12.488   4.959  1.00  0.00    -0.270 OA
HETATM    4  H   UNL     1      43.980 -10.553   4.492  1.00  0.00     0.192 HD
ENDROOT
BRANCH   1   5
HETATM    5  C   UNL     1      42.867 -12.341   3.020  1.00  0.00     0.227 C 
BRANCH   5   6
HETATM    6  N   UNL     1      41.891 -13.104   2.249  1.00  0.00    -0.350 N 
HETATM    7  C   UNL     1      41.984 -14.410   1.846  1.00  0.00     0.242 C 
HETATM    8  O   UNL     1      40.980 -14.961   1.394  1.00  0.00    -0.271 OA
HETATM    9  H   UNL     1      40.955 -12.724   2.152  1.00  0.00     0.163 HD
BRANCH   7  10
HETATM   10  C   UNL     1      43.306 -15.151   2.015  1.00  0.00     0.278 C 
BRANCH  10  11
HETATM   11  O   UNL     1      43.283 -15.848   3.254  1.00  0.00    -0.342 OA
BRANCH  11  12
HETATM   12  C   UNL     1      43.433 -17.208   3.198  1.00  0.00     0.075 A 
HETATM   13  C   UNL     1      43.995 -17.819   4.332  1.00  0.00    -0.029 A 
HETATM   14  C   UNL     1      44.484 -17.019   5.509  1.00  0.00     0.051 C 
HETATM   15  C   UNL     1      44.174 -19.213   4.344  1.00  0.00     0.009 A 
HETATM   16  C   UNL     1      43.769 -19.991   3.261  1.00  0.00     0.001 A 
HETATM   17  C   UNL     1      43.189 -19.384   2.153  1.00  0.00     0.003 A 
HETATM   18  C   UNL     1      43.021 -17.998   2.120  1.00  0.00     0.037 A 
ENDBRANCH  11  12
ENDBRANCH  10  11
ENDBRANCH   7  10
ENDBRANCH   5   6
ENDBRANCH   1   5
BRANCH   2  19
HETATM   19  N   UNL     1      42.872 -10.476   6.246  1.00  0.00    -0.166 NA
HETATM   20  C   UNL     1      43.826 -10.479   7.120  1.00  0.00     0.157 A 
HETATM   21  C   UNL     1      45.282 -10.909   6.943  1.00  0.00     0.277 A 
HETATM   22  C   UNL     1      43.703 -10.038   8.504  1.00  0.00     0.028 A 
HETATM   23  O   UNL     1      45.756 -11.334   5.911  1.00  0.00    -0.266 OA
HETATM   24  N   UNL     1      45.882 -10.697   8.165  1.00  0.00    -0.321 N 
HETATM   25  C   UNL     1      44.964 -10.189   9.082  1.00  0.00     0.048 A 
HETATM   26  H   UNL     1      46.857 -10.890   8.345  1.00  0.00     0.169 HD
HETATM   27  C   UNL     1      45.191  -9.853  10.399  1.00  0.00     0.032 A 
HETATM   28  C   UNL     1      44.104  -9.357  11.131  1.00  0.00     0.021 A 
HETATM   29  C   UNL     1      42.834  -9.212  10.534  1.00  0.00     0.012 A 
HETATM   30 BR   UNL     1      41.398  -8.541  11.568  1.00  0.00    -0.051 Br
HETATM   31  C   UNL     1      42.615  -9.553   9.200  1.00  0.00     0.035 A 
ENDBRANCH   2  19
TORSDOF 6
ENDMDL
MODEL 6
REMARK VINA RESULT:      -8.1      1.574      2.290
REMARK  6 active torsions:
REMARK  status: ('A' for Active; 'I' for Inactive)
REMARK    1  A    between atoms: C_3  and  O_4 
REMARK    2  A    between atoms: O_4  and  C_5 
REMARK    3  A    between atoms: C_5  and  C_6 
REMARK       I    between atoms: C_6  and  N_7 
REMARK    4  A    between atoms: N_7  and  C_8 
REMARK    5  A    between atoms: C_8  and  C_9 
REMARK       I    between atoms: C_9  and  N_10 
REMARK    6  A    between atoms: N_10  and  N_11 
ROOT
HETATM    1  C   UNL     1      39.830 -11.955   4.623  1.00  0.00     0.255 C 
HETATM    2  N   UNL     1      39.952 -12.857   3.580  1.00  0.00    -0.245 N 
HETATM    3  O   UNL     1      39.777 -10.731   4.495  1.00  0.00    -0.270 OA
HETATM    4  H   UNL     1      40.041 -13.856   3.781  1.00  0.00     0.192 HD
ENDROOT
BRANCH   1   5
HETATM    5  C   UNL     1      39.838 -12.597   6.010  1.00  0.00     0.227 C 
BRANCH   5   6
HETATM    6  N   UNL     1      39.816 -14.056   6.016  1.00  0.00    -0.350 N 
HETATM    7  C   UNL     1      40.882 -14.905   6.148  1.00  0.00     0.242 C 
HETATM    8  O   UNL     1      40.663 -16.100   6.351  1.00  0.00    -0.271 OA
HETATM    9  H   UNL     1      38.921 -14.519   6.133  1.00  0.00     0.163 HD
BRANCH   7  10
HETATM   10  C   UNL     1      42.297 -14.342   6.089  1.00  0.00     0.278 C 
BRANCH  10  11
HETATM   11  O   UNL     1      43.169 -15.351   5.595  1.00  0.00    -0.342 OA
BRANCH  11  12
HETATM   12  C   UNL     1      43.229 -15.501   4.235  1.00  0.00     0.075 A 
HETATM   13  C   UNL     1      43.322 -16.820   3.758  1.00  0.00    -0.029 A 
HETATM   14  C   UNL     1      43.436 -17.997   4.688  1.00  0.00     0.051 C 
HETATM   15  C   UNL     1      43.384 -17.047   2.373  1.00  0.00     0.009 A 
HETATM   16  C   UNL     1      43.319 -15.984   1.475  1.00  0.00     0.001 A 
HETATM   17  C   UNL     1      43.200 -14.683   1.951  1.00  0.00     0.003 A 
HETATM   18  C   UNL     1      43.155 -14.440   3.326  1.00  0.00     0.037 A 
ENDBRANCH  11  12
ENDBRANCH  10  11
ENDBRANCH   7  10
ENDBRANCH   5   6
ENDBRANCH   1   5
BRANCH   2  19
HETATM   19  N   UNL     1      39.966 -12.412   2.291  1.00  0.00    -0.166 NA
HETATM   20  C   UNL     1      39.891 -13.307   1.360  1.00  0.00     0.157 A 
HETATM   21  C   UNL     1      39.760 -14.824   1.501  1.00  0.00     0.277 A 
HETATM   22  C   UNL     1      39.898 -13.037  -0.073  1.00  0.00     0.028 A 
HETATM   23  O   UNL     1      39.718 -15.418   2.558  1.00  0.00    -0.266 OA
HETATM   24  N   UNL     1      39.697 -15.312   0.215  1.00  0.00    -0.321 N 
HETATM   25  C   UNL     1      39.777 -14.273  -0.710  1.00  0.00     0.048 A 
HETATM   26  H   UNL     1      39.603 -16.294  -0.001  1.00  0.00     0.169 HD
HETATM   27  C   UNL     1      39.748 -14.368  -2.084  1.00  0.00     0.032 A 
HETATM   28  C   UNL     1      39.846 -13.174  -2.812  1.00  0.00     0.021 A 
HETATM   29  C   UNL     1      39.969 -11.932  -2.154  1.00  0.00     0.012 A 
HETATM   30 BR   UNL     1      40.101 -10.350  -3.183  1.00  0.00    -0.051 Br
HETATM   31  C   UNL     1      39.996 -11.847  -0.762  1.00  0.00     0.035 A 
ENDBRANCH   2  19
TORSDOF 6
ENDMDL
MODEL 7
REMARK VINA RESULT:      -8.0      5.280      9.062
REMARK  6 active torsions:
REMARK  status: ('A' for Active; 'I' for Inactive)
REMARK    1  A    between atoms: C_3  and  O_4 
REMARK    2  A    between atoms: O_4  and  C_5 
REMARK    3  A    between atoms: C_5  and  C_6 
REMARK       I    between atoms: C_6  and  N_7 
REMARK    4  A    between atoms: N_7  and  C_8 
REMARK    5  A    between atoms: C_8  and  C_9 
REMARK       I    between atoms: C_9  and  N_10 
REMARK    6  A    between atoms: N_10  and  N_11 
ROOT
HETATM    1  C   UNL     1      43.457 -12.108   6.134  1.00  0.00     0.255 C 
HETATM    2  N   UNL     1      43.082 -13.371   6.556  1.00  0.00    -0.245 N 
HETATM    3  O   UNL     1      43.955 -11.849   5.039  1.00  0.00    -0.270 OA
HETATM    4  H   UNL     1      42.722 -13.504   7.505  1.00  0.00     0.192 HD
ENDROOT
BRANCH   1   5
HETATM    5  C   UNL     1      43.270 -11.015   7.186  1.00  0.00     0.227 C 
BRANCH   5   6
HETATM    6  N   UNL     1      44.311 -10.957   8.207  1.00  0.00    -0.350 N 
HETATM    7  C   UNL     1      44.203 -10.467   9.481  1.00  0.00     0.242 C 
HETATM    8  O   UNL     1      45.113 -10.694  10.280  1.00  0.00    -0.271 OA
HETATM    9  H   UNL     1      45.155 -11.502   8.061  1.00  0.00     0.163 HD
BRANCH   7  10
HETATM   10  C   UNL     1      42.946  -9.704   9.884  1.00  0.00     0.278 C 
BRANCH  10  11
HETATM   11  O   UNL     1      42.484 -10.211  11.130  1.00  0.00    -0.342 OA
BRANCH  11  12
HETATM   12  C   UNL     1      42.462  -9.334  12.181  1.00  0.00     0.075 A 
HETATM   13  C   UNL     1      41.404  -9.484  13.094  1.00  0.00    -0.029 A 
HETATM   14  C   UNL     1      40.309 -10.495  12.886  1.00  0.00     0.051 C 
HETATM   15  C   UNL     1      41.321  -8.619  14.198  1.00  0.00     0.009 A 
HETATM   16  C   UNL     1      42.294  -7.644  14.412  1.00  0.00     0.001 A 
HETATM   17  C   UNL     1      43.353  -7.517  13.520  1.00  0.00     0.003 A 
HETATM   18  C   UNL     1      43.438  -8.358  12.408  1.00  0.00     0.037 A 
ENDBRANCH  11  12
ENDBRANCH  10  11
ENDBRANCH   7  10
ENDBRANCH   5   6
ENDBRANCH   1   5
BRANCH   2  19
HETATM   19  N   UNL     1      43.206 -14.438   5.715  1.00  0.00    -0.166 NA
HETATM   20  C   UNL     1      43.319 -15.605   6.259  1.00  0.00     0.157 A 
HETATM   21  C   UNL     1      43.309 -15.973   7.743  1.00  0.00     0.277 A 
HETATM   22  C   UNL     1      43.468 -16.863   5.536  1.00  0.00     0.028 A 
HETATM   23  O   UNL     1      43.199 -15.176   8.651  1.00  0.00    -0.266 OA
HETATM   24  N   UNL     1      43.440 -17.343   7.786  1.00  0.00    -0.321 N 
HETATM   25  C   UNL     1      43.533 -17.869   6.500  1.00  0.00     0.048 A 
HETATM   26  H   UNL     1      43.460 -17.871   8.647  1.00  0.00     0.169 HD
HETATM   27  C   UNL     1      43.672 -19.193   6.142  1.00  0.00     0.032 A 
HETATM   28  C   UNL     1      43.746 -19.483   4.773  1.00  0.00     0.021 A 
HETATM   29  C   UNL     1      43.680 -18.454   3.810  1.00  0.00     0.012 A 
HETATM   30 BR   UNL     1      43.789 -18.899   1.974  1.00  0.00    -0.051 Br
HETATM   31  C   UNL     1      43.538 -17.118   4.182  1.00  0.00     0.035 A 
ENDBRANCH   2  19
TORSDOF 6
ENDMDL
MODEL 8
REMARK VINA RESULT:      -7.9      4.076      8.007
REMARK  6 active torsions:
REMARK  status: ('A' for Active; 'I' for Inactive)
REMARK    1  A    between atoms: C_3  and  O_4 
REMARK    2  A    between atoms: O_4  and  C_5 
REMARK    3  A    between atoms: C_5  and  C_6 
REMARK       I    between atoms: C_6  and  N_7 
REMARK    4  A    between atoms: N_7  and  C_8 
REMARK    5  A    between atoms: C_8  and  C_9 
REMARK       I    between atoms: C_9  and  N_10 
REMARK    6  A    between atoms: N_10  and  N_11 
ROOT
HETATM    1  C   UNL     1      41.757 -13.154   5.038  1.00  0.00     0.255 C 
HETATM    2  N   UNL     1      42.818 -13.955   5.420  1.00  0.00    -0.245 N 
HETATM    3  O   UNL     1      40.962 -13.418   4.136  1.00  0.00    -0.270 OA
HETATM    4  H   UNL     1      43.462 -13.634   6.148  1.00  0.00     0.192 HD
ENDROOT
BRANCH   1   5
HETATM    5  C   UNL     1      41.669 -11.828   5.794  1.00  0.00     0.227 C 
BRANCH   5   6
HETATM    6  N   UNL     1      40.434 -11.627   6.545  1.00  0.00    -0.350 N 
HETATM    7  C   UNL     1      40.028 -10.491   7.193  1.00  0.00     0.242 C 
HETATM    8  O   UNL     1      38.864 -10.421   7.589  1.00  0.00    -0.271 OA
HETATM    9  H   UNL     1      39.689 -12.307   6.431  1.00  0.00     0.163 HD
BRANCH   7  10
HETATM   10  C   UNL     1      41.009  -9.336   7.360  1.00  0.00     0.278 C 
BRANCH  10  11
HETATM   11  O   UNL     1      41.376  -9.243   8.731  1.00  0.00    -0.342 OA
BRANCH  11  12
HETATM   12  C   UNL     1      42.714  -9.316   9.016  1.00  0.00     0.075 A 
HETATM   13  C   UNL     1      43.051  -9.634  10.343  1.00  0.00    -0.029 A 
HETATM   14  C   UNL     1      42.005  -9.802  11.412  1.00  0.00     0.051 C 
HETATM   15  C   UNL     1      44.405  -9.728  10.704  1.00  0.00     0.009 A 
HETATM   16  C   UNL     1      45.408  -9.544   9.755  1.00  0.00     0.001 A 
HETATM   17  C   UNL     1      45.070  -9.256   8.438  1.00  0.00     0.003 A 
HETATM   18  C   UNL     1      43.728  -9.142   8.068  1.00  0.00     0.037 A 
ENDBRANCH  11  12
ENDBRANCH  10  11
ENDBRANCH   7  10
ENDBRANCH   5   6
ENDBRANCH   1   5
BRANCH   2  19
HETATM   19  N   UNL     1      43.014 -15.163   4.816  1.00  0.00    -0.166 NA
HETATM   20  C   UNL     1      43.176 -16.186   5.590  1.00  0.00     0.157 A 
HETATM   21  C   UNL     1      43.153 -16.243   7.118  1.00  0.00     0.277 A 
HETATM   22  C   UNL     1      43.403 -17.555   5.142  1.00  0.00     0.028 A 
HETATM   23  O   UNL     1      42.984 -15.285   7.841  1.00  0.00    -0.266 OA
HETATM   24  N   UNL     1      43.353 -17.566   7.442  1.00  0.00    -0.321 N 
HETATM   25  C   UNL     1      43.500 -18.339   6.292  1.00  0.00     0.048 A 
HETATM   26  H   UNL     1      43.382 -17.905   8.393  1.00  0.00     0.169 HD
HETATM   27  C   UNL     1      43.713 -19.698   6.215  1.00  0.00     0.032 A 
HETATM   28  C   UNL     1      43.831 -20.257   4.935  1.00  0.00     0.021 A 
HETATM   29  C   UNL     1      43.733 -19.452   3.781  1.00  0.00     0.012 A 
HETATM   30 BR   UNL     1      43.902 -20.256   2.076  1.00  0.00    -0.051 Br
HETATM   31  C   UNL     1      43.515 -18.077   3.870  1.00  0.00     0.035 A 
ENDBRANCH   2  19
TORSDOF 6
ENDMDL
MODEL 9
REMARK VINA RESULT:      -7.9      3.076      6.164
REMARK  6 active torsions:
REMARK  status: ('A' for Active; 'I' for Inactive)
REMARK    1  A    between atoms: C_3  and  O_4 
REMARK    2  A    between atoms: O_4  and  C_5 
REMARK    3  A    between atoms: C_5  and  C_6 
REMARK       I    between atoms: C_6  and  N_7 
REMARK    4  A    between atoms: N_7  and  C_8 
REMARK    5  A    between atoms: C_8  and  C_9 
REMARK       I    between atoms: C_9  and  N_10 
REMARK    6  A    between atoms: N_10  and  N_11 
ROOT
HETATM    1  C   UNL     1      41.939 -13.245   5.847  1.00  0.00     0.255 C 
HETATM    2  N   UNL     1      43.141 -13.757   5.393  1.00  0.00    -0.245 N 
HETATM    3  O   UNL     1      40.973 -13.920   6.205  1.00  0.00    -0.270 OA
HETATM    4  H   UNL     1      43.874 -13.122   5.066  1.00  0.00     0.192 HD
ENDROOT
BRANCH   1   5
HETATM    5  C   UNL     1      41.854 -11.718   5.807  1.00  0.00     0.227 C 
BRANCH   5   6
HETATM    6  N   UNL     1      42.211 -11.114   4.528  1.00  0.00    -0.350 N 
HETATM    7  C   UNL     1      41.375 -10.811   3.487  1.00  0.00     0.242 C 
HETATM    8  O   UNL     1      41.803 -10.106   2.572  1.00  0.00    -0.271 OA
HETATM    9  H   UNL     1      43.125 -10.681   4.443  1.00  0.00     0.163 HD
BRANCH   7  10
HETATM   10  C   UNL     1      39.936 -11.312   3.515  1.00  0.00     0.278 C 
BRANCH  10  11
HETATM   11  O   UNL     1      39.566 -11.712   2.201  1.00  0.00    -0.342 OA
BRANCH  11  12
HETATM   12  C   UNL     1      39.668 -13.048   1.913  1.00  0.00     0.075 A 
HETATM   13  C   UNL     1      40.041 -13.374   0.598  1.00  0.00    -0.029 A 
HETATM   14  C   UNL     1      40.235 -12.321  -0.459  1.00  0.00     0.051 C 
HETATM   15  C   UNL     1      40.167 -14.725   0.235  1.00  0.00     0.009 A 
HETATM   16  C   UNL     1      39.962 -15.735   1.172  1.00  0.00     0.001 A 
HETATM   17  C   UNL     1      39.619 -15.407   2.478  1.00  0.00     0.003 A 
HETATM   18  C   UNL     1      39.472 -14.068   2.850  1.00  0.00     0.037 A 
ENDBRANCH  11  12
ENDBRANCH  10  11
ENDBRANCH   7  10
ENDBRANCH   5   6
ENDBRANCH   1   5
BRANCH   2  19
HETATM   19  N   UNL     1      43.342 -15.107   5.369  1.00  0.00    -0.166 NA
HETATM   20  C   UNL     1      43.337 -15.680   4.210  1.00  0.00     0.157 A 
HETATM   21  C   UNL     1      43.158 -15.046   2.830  1.00  0.00     0.277 A 
HETATM   22  C   UNL     1      43.527 -17.106   3.974  1.00  0.00     0.028 A 
HETATM   23  O   UNL     1      42.977 -13.863   2.633  1.00  0.00    -0.266 OA
HETATM   24  N   UNL     1      43.255 -16.084   1.930  1.00  0.00    -0.321 N 
HETATM   25  C   UNL     1      43.470 -17.291   2.592  1.00  0.00     0.048 A 
HETATM   26  H   UNL     1      43.179 -15.960   0.931  1.00  0.00     0.169 HD
HETATM   27  C   UNL     1      43.619 -18.541   2.032  1.00  0.00     0.032 A 
HETATM   28  C   UNL     1      43.828 -19.616   2.907  1.00  0.00     0.021 A 
HETATM   29  C   UNL     1      43.881 -19.414   4.302  1.00  0.00     0.012 A 
HETATM   30 BR   UNL     1      44.161 -20.900   5.440  1.00  0.00    -0.051 Br
HETATM   31  C   UNL     1      43.730 -18.145   4.859  1.00  0.00     0.035 A 
ENDBRANCH   2  19
TORSDOF 6
ENDMDL
MODEL 10
REMARK VINA RESULT:      -7.9      2.767      6.494
REMARK  6 active torsions:
REMARK  status: ('A' for Active; 'I' for Inactive)
REMARK    1  A    between atoms: C_3  and  O_4 
REMARK    2  A    between atoms: O_4  and  C_5 
REMARK    3  A    between atoms: C_5  and  C_6 
REMARK       I    between atoms: C_6  and  N_7 
REMARK    4  A    between atoms: N_7  and  C_8 
REMARK    5  A    between atoms: C_8  and  C_9 
REMARK       I    between atoms: C_9  and  N_10 
REMARK    6  A    between atoms: N_10  and  N_11 
ROOT
HETATM    1  C   UNL     1      43.045 -12.912   4.516  1.00  0.00     0.255 C 
HETATM    2  N   UNL     1      42.750 -14.076   5.204  1.00  0.00    -0.245 N 
HETATM    3  O   UNL     1      43.551 -12.864   3.394  1.00  0.00    -0.270 OA
HETATM    4  H   UNL     1      42.378 -14.023   6.156  1.00  0.00     0.192 HD
ENDROOT
BRANCH   1   5
HETATM    5  C   UNL     1      42.757 -11.631   5.299  1.00  0.00     0.227 C 
BRANCH   5   6
HETATM    6  N   UNL     1      42.453 -10.462   4.480  1.00  0.00    -0.350 N 
HETATM    7  C   UNL     1      41.322 -10.233   3.744  1.00  0.00     0.242 C 
HETATM    8  O   UNL     1      41.132  -9.104   3.289  1.00  0.00    -0.271 OA
HETATM    9  H   UNL     1      43.024  -9.632   4.600  1.00  0.00     0.163 HD
BRANCH   7  10
HETATM   10  C   UNL     1      40.313 -11.360   3.552  1.00  0.00     0.278 C 
BRANCH  10  11
HETATM   11  O   UNL     1      40.322 -11.752   2.185  1.00  0.00    -0.342 OA
BRANCH  11  12
HETATM   12  C   UNL     1      40.188 -13.091   1.928  1.00  0.00     0.075 A 
HETATM   13  C   UNL     1      40.370 -13.489   0.593  1.00  0.00    -0.029 A 
HETATM   14  C   UNL     1      40.613 -12.494  -0.509  1.00  0.00     0.051 C 
HETATM   15  C   UNL     1      40.250 -14.849   0.259  1.00  0.00     0.009 A 
HETATM   16  C   UNL     1      39.990 -15.802   1.241  1.00  0.00     0.001 A 
HETATM   17  C   UNL     1      39.837 -15.406   2.565  1.00  0.00     0.003 A 
HETATM   18  C   UNL     1      39.935 -14.056   2.909  1.00  0.00     0.037 A 
ENDBRANCH  11  12
ENDBRANCH  10  11
ENDBRANCH   7  10
ENDBRANCH   5   6
ENDBRANCH   1   5
BRANCH   2  19
HETATM   19  N   UNL     1      42.969 -15.289   4.620  1.00  0.00    -0.166 NA
HETATM   20  C   UNL     1      43.146 -16.297   5.410  1.00  0.00     0.157 A 
HETATM   21  C   UNL     1      43.122 -16.330   6.938  1.00  0.00     0.277 A 
HETATM   22  C   UNL     1      43.399 -17.669   4.984  1.00  0.00     0.028 A 
HETATM   23  O   UNL     1      42.933 -15.364   7.646  1.00  0.00    -0.266 OA
HETATM   24  N   UNL     1      43.344 -17.645   7.284  1.00  0.00    -0.321 N 
HETATM   25  C   UNL     1      43.507 -18.432   6.146  1.00  0.00     0.048 A 
HETATM   26  H   UNL     1      43.376 -17.968   8.240  1.00  0.00     0.169 HD
HETATM   27  C   UNL     1      43.745 -19.788   6.091  1.00  0.00     0.032 A 
HETATM   28  C   UNL     1      43.875 -20.365   4.820  1.00  0.00     0.021 A 
HETATM   29  C   UNL     1      43.765 -19.580   3.653  1.00  0.00     0.012 A 
HETATM   30 BR   UNL     1      43.953 -20.408   1.962  1.00  0.00    -0.051 Br
HETATM   31  C   UNL     1      43.523 -18.208   3.720  1.00  0.00     0.035 A 
ENDBRANCH   2  19
TORSDOF 6
ENDMDL
