MODEL 1
REMARK VINA RESULT:      -8.8      0.000      0.000
REMARK  5 active torsions:
REMARK  status: ('A' for Active; 'I' for Inactive)
REMARK    1  A    between atoms: C_2  and  O_3 
REMARK    2  A    between atoms: O_3  and  C_4 
REMARK    3  A    between atoms: C_7  and  C_8 
REMARK       I    between atoms: N_11  and  C_12 
REMARK    4  A    between atoms: C_12  and  C_13 
REMARK    5  A    between atoms: C_16  and  C_17 
ROOT
HETATM    1  C   UNL     1      43.370  -9.293  11.136  1.00  0.00    -0.049 C 
HETATM    2  C   UNL     1      44.842  -9.552  10.921  1.00  0.00     0.059 C 
HETATM    3  C   UNL     1      45.207  -9.663   9.442  1.00  0.00     0.131 C 
HETATM    4  N   UNL     1      44.276 -10.508   8.699  1.00  0.00    -0.344 N 
HETATM    5  C   UNL     1      44.793 -11.157   7.570  1.00  0.00     0.254 C 
HETATM    6  O   UNL     1      45.989 -11.188   7.285  1.00  0.00    -0.267 OA
HETATM    7  C   UNL     1      42.861 -10.162   8.809  1.00  0.00     0.154 C 
HETATM    8  C   UNL     1      42.501  -9.592  10.150  1.00  0.00     0.001 C 
ENDROOT
BRANCH   5   9
HETATM    9  C   UNL     1      43.858 -11.795   6.619  1.00  0.00     0.032 A 
HETATM   10  C   UNL     1      43.400 -11.040   5.536  1.00  0.00     0.018 A 
HETATM   11  C   UNL     1      42.488 -11.601   4.638  1.00  0.00     0.016 A 
HETATM   12  C   UNL     1      42.032 -12.917   4.811  1.00  0.00     0.014 A 
HETATM   13  C   UNL     1      42.535 -13.676   5.881  1.00  0.00     0.016 A 
HETATM   14  C   UNL     1      43.456 -13.123   6.777  1.00  0.00     0.018 A 
BRANCH  12  15
HETATM   15  C   UNL     1      41.036 -13.484   3.907  1.00  0.00     0.181 A 
HETATM   16  N   UNL     1      39.758 -13.076   3.842  1.00  0.00    -0.152 NA
HETATM   17  N   UNL     1      39.245 -13.902   2.921  1.00  0.00    -0.263 N 
HETATM   18  H   UNL     1      38.268 -13.815   2.665  1.00  0.00     0.190 HD
HETATM   19  C   UNL     1      40.178 -14.784   2.463  1.00  0.00     0.118 A 
HETATM   20  C   UNL     1      39.881 -15.839   1.473  1.00  0.00     0.093 C 
HETATM   21  N   UNL     1      41.322 -14.537   3.061  1.00  0.00    -0.212 NA
ENDBRANCH  12  15
ENDBRANCH   5   9
BRANCH   1  22
HETATM   22  C   UNL     1      42.933  -8.733  12.441  1.00  0.00    -0.030 A 
HETATM   23  C   UNL     1      41.897  -9.332  13.177  1.00  0.00     0.014 A 
HETATM   24  C   UNL     1      41.501  -8.834  14.427  1.00  0.00     0.037 A 
HETATM   25  C   UNL     1      42.133  -7.719  14.970  1.00  0.00     0.068 A 
HETATM   26  C   UNL     1      43.156  -7.106  14.250  1.00  0.00     0.037 A 
HETATM   27  C   UNL     1      43.558  -7.612  13.008  1.00  0.00     0.014 A 
BRANCH  25  28
HETATM   28  O   UNL     1      41.846  -7.134  16.171  1.00  0.00    -0.352 OA
BRANCH  28  29
HETATM   29  C   UNL     1      40.936  -7.822  17.026  1.00  0.00     0.171 C 
HETATM   30  C   UNL     1      39.908  -6.819  17.520  1.00  0.00     0.034 C 
ENDBRANCH  28  29
ENDBRANCH  25  28
ENDBRANCH   1  22
TORSDOF 5
ENDMDL
MODEL 2
REMARK VINA RESULT:      -8.3      3.361     10.651
REMARK  5 active torsions:
REMARK  status: ('A' for Active; 'I' for Inactive)
REMARK    1  A    between atoms: C_2  and  O_3 
REMARK    2  A    between atoms: O_3  and  C_4 
REMARK    3  A    between atoms: C_7  and  C_8 
REMARK       I    between atoms: N_11  and  C_12 
REMARK    4  A    between atoms: C_12  and  C_13 
REMARK    5  A    between atoms: C_16  and  C_17 
ROOT
HETATM    1  C   UNL     1      44.047 -12.753   6.293  1.00  0.00    -0.049 C 
HETATM    2  C   UNL     1      45.025 -11.782   5.676  1.00  0.00     0.059 C 
HETATM    3  C   UNL     1      45.713 -10.902   6.718  1.00  0.00     0.131 C 
HETATM    4  N   UNL     1      44.777 -10.358   7.696  1.00  0.00    -0.344 N 
HETATM    5  C   UNL     1      45.133  -9.137   8.283  1.00  0.00     0.254 C 
HETATM    6  O   UNL     1      46.072  -8.442   7.902  1.00  0.00    -0.267 OA
HETATM    7  C   UNL     1      43.928 -11.327   8.386  1.00  0.00     0.154 C 
HETATM    8  C   UNL     1      43.567 -12.504   7.528  1.00  0.00     0.001 C 
ENDROOT
BRANCH   5   9
HETATM    9  C   UNL     1      44.387  -8.668   9.471  1.00  0.00     0.032 A 
HETATM   10  C   UNL     1      44.637  -9.292  10.696  1.00  0.00     0.018 A 
HETATM   11  C   UNL     1      43.925  -8.898  11.832  1.00  0.00     0.016 A 
HETATM   12  C   UNL     1      42.964  -7.877  11.755  1.00  0.00     0.014 A 
HETATM   13  C   UNL     1      42.756  -7.231  10.524  1.00  0.00     0.016 A 
HETATM   14  C   UNL     1      43.474  -7.615   9.386  1.00  0.00     0.018 A 
BRANCH  12  15
HETATM   15  C   UNL     1      42.179  -7.504  12.927  1.00  0.00     0.181 A 
HETATM   16  N   UNL     1      41.232  -6.551  12.926  1.00  0.00    -0.152 NA
HETATM   17  N   UNL     1      40.835  -6.548  14.206  1.00  0.00    -0.263 N 
HETATM   18  H   UNL     1      40.106  -5.908  14.498  1.00  0.00     0.190 HD
HETATM   19  C   UNL     1      41.530  -7.455  14.949  1.00  0.00     0.118 A 
HETATM   20  C   UNL     1      41.333  -7.639  16.401  1.00  0.00     0.093 C 
HETATM   21  N   UNL     1      42.379  -8.081  14.164  1.00  0.00    -0.212 NA
ENDBRANCH  12  15
ENDBRANCH   5   9
BRANCH   1  22
HETATM   22  C   UNL     1      43.636 -13.942   5.503  1.00  0.00    -0.030 A 
HETATM   23  C   UNL     1      43.027 -13.802   4.245  1.00  0.00     0.014 A 
HETATM   24  C   UNL     1      42.669 -14.918   3.474  1.00  0.00     0.037 A 
HETATM   25  C   UNL     1      42.911 -16.204   3.947  1.00  0.00     0.068 A 
HETATM   26  C   UNL     1      43.506 -16.362   5.197  1.00  0.00     0.037 A 
HETATM   27  C   UNL     1      43.874 -15.248   5.960  1.00  0.00     0.014 A 
BRANCH  25  28
HETATM   28  O   UNL     1      42.612 -17.371   3.302  1.00  0.00    -0.352 OA
BRANCH  28  29
HETATM   29  C   UNL     1      43.706 -18.219   2.957  1.00  0.00     0.171 C 
HETATM   30  C   UNL     1      43.159 -19.383   2.151  1.00  0.00     0.034 C 
ENDBRANCH  28  29
ENDBRANCH  25  28
ENDBRANCH   1  22
TORSDOF 5
ENDMDL
MODEL 3
REMARK VINA RESULT:      -8.3      3.221     10.690
REMARK  5 active torsions:
REMARK  status: ('A' for Active; 'I' for Inactive)
REMARK    1  A    between atoms: C_2  and  O_3 
REMARK    2  A    between atoms: O_3  and  C_4 
REMARK    3  A    between atoms: C_7  and  C_8 
REMARK       I    between atoms: N_11  and  C_12 
REMARK    4  A    between atoms: C_12  and  C_13 
REMARK    5  A    between atoms: C_16  and  C_17 
ROOT
HETATM    1  C   UNL     1      43.681 -12.324   5.447  1.00  0.00    -0.049 C 
HETATM    2  C   UNL     1      44.912 -11.542   5.055  1.00  0.00     0.059 C 
HETATM    3  C   UNL     1      45.689 -11.028   6.266  1.00  0.00     0.131 C 
HETATM    4  N   UNL     1      44.820 -10.423   7.271  1.00  0.00    -0.344 N 
HETATM    5  C   UNL     1      45.397  -9.431   8.073  1.00  0.00     0.254 C 
HETATM    6  O   UNL     1      46.504  -8.940   7.865  1.00  0.00    -0.267 OA
HETATM    7  C   UNL     1      43.707 -11.245   7.741  1.00  0.00     0.154 C 
HETATM    8  C   UNL     1      43.161 -12.153   6.679  1.00  0.00     0.001 C 
ENDROOT
BRANCH   5   9
HETATM    9  C   UNL     1      44.676  -8.977   9.282  1.00  0.00     0.032 A 
HETATM   10  C   UNL     1      44.875  -9.681  10.473  1.00  0.00     0.018 A 
HETATM   11  C   UNL     1      44.183  -9.302  11.625  1.00  0.00     0.016 A 
HETATM   12  C   UNL     1      43.293  -8.217  11.600  1.00  0.00     0.014 A 
HETATM   13  C   UNL     1      43.137  -7.493  10.405  1.00  0.00     0.016 A 
HETATM   14  C   UNL     1      43.836  -7.863   9.251  1.00  0.00     0.018 A 
BRANCH  12  15
HETATM   15  C   UNL     1      42.526  -7.855  12.788  1.00  0.00     0.181 A 
HETATM   16  N   UNL     1      41.184  -7.823  12.836  1.00  0.00    -0.152 NA
HETATM   17  N   UNL     1      40.957  -7.407  14.089  1.00  0.00    -0.263 N 
HETATM   18  H   UNL     1      40.002  -7.292  14.410  1.00  0.00     0.190 HD
HETATM   19  C   UNL     1      42.122  -7.181  14.761  1.00  0.00     0.118 A 
HETATM   20  C   UNL     1      42.176  -6.674  16.147  1.00  0.00     0.093 C 
HETATM   21  N   UNL     1      43.129  -7.466  13.966  1.00  0.00    -0.212 NA
ENDBRANCH  12  15
ENDBRANCH   5   9
BRANCH   1  22
HETATM   22  C   UNL     1      43.077 -13.242   4.447  1.00  0.00    -0.030 A 
HETATM   23  C   UNL     1      43.319 -13.078   3.073  1.00  0.00     0.014 A 
HETATM   24  C   UNL     1      42.785 -13.960   2.122  1.00  0.00     0.037 A 
HETATM   25  C   UNL     1      41.992 -15.030   2.526  1.00  0.00     0.068 A 
HETATM   26  C   UNL     1      41.733 -15.203   3.884  1.00  0.00     0.037 A 
HETATM   27  C   UNL     1      42.277 -14.328   4.832  1.00  0.00     0.014 A 
BRANCH  25  28
HETATM   28  O   UNL     1      41.411 -15.958   1.708  1.00  0.00    -0.352 OA
BRANCH  28  29
HETATM   29  C   UNL     1      40.029 -15.780   1.405  1.00  0.00     0.171 C 
HETATM   30  C   UNL     1      39.931 -14.936   0.146  1.00  0.00     0.034 C 
ENDBRANCH  28  29
ENDBRANCH  25  28
ENDBRANCH   1  22
TORSDOF 5
ENDMDL
MODEL 4
REMARK VINA RESULT:      -8.1      3.521     11.005
REMARK  5 active torsions:
REMARK  status: ('A' for Active; 'I' for Inactive)
REMARK    1  A    between atoms: C_2  and  O_3 
REMARK    2  A    between atoms: O_3  and  C_4 
REMARK    3  A    between atoms: C_7  and  C_8 
REMARK       I    between atoms: N_11  and  C_12 
REMARK    4  A    between atoms: C_12  and  C_13 
REMARK    5  A    between atoms: C_16  and  C_17 
ROOT
HETATM    1  C   UNL     1      42.636 -13.070   4.339  1.00  0.00    -0.049 C 
HETATM    2  C   UNL     1      42.062 -11.925   3.539  1.00  0.00     0.059 C 
HETATM    3  C   UNL     1      42.413 -10.562   4.132  1.00  0.00     0.131 C 
HETATM    4  N   UNL     1      42.217 -10.515   5.578  1.00  0.00    -0.344 N 
HETATM    5  C   UNL     1      41.918  -9.259   6.122  1.00  0.00     0.254 C 
HETATM    6  O   UNL     1      41.651  -8.266   5.449  1.00  0.00    -0.267 OA
HETATM    7  C   UNL     1      42.890 -11.553   6.355  1.00  0.00     0.154 C 
HETATM    8  C   UNL     1      42.995 -12.858   5.621  1.00  0.00     0.001 C 
ENDROOT
BRANCH   5   9
HETATM    9  C   UNL     1      41.984  -9.080   7.589  1.00  0.00     0.032 A 
HETATM   10  C   UNL     1      43.185  -8.636   8.147  1.00  0.00     0.018 A 
HETATM   11  C   UNL     1      43.293  -8.490   9.532  1.00  0.00     0.016 A 
HETATM   12  C   UNL     1      42.204  -8.780  10.368  1.00  0.00     0.014 A 
HETATM   13  C   UNL     1      40.990  -9.185   9.787  1.00  0.00     0.016 A 
HETATM   14  C   UNL     1      40.873  -9.323   8.400  1.00  0.00     0.018 A 
BRANCH  12  15
HETATM   15  C   UNL     1      42.332  -8.684  11.819  1.00  0.00     0.181 A 
HETATM   16  N   UNL     1      42.055  -9.687  12.668  1.00  0.00    -0.152 NA
HETATM   17  N   UNL     1      42.280  -9.118  13.860  1.00  0.00    -0.263 N 
HETATM   18  H   UNL     1      42.147  -9.664  14.703  1.00  0.00     0.190 HD
HETATM   19  C   UNL     1      42.662  -7.816  13.729  1.00  0.00     0.118 A 
HETATM   20  C   UNL     1      42.934  -6.930  14.879  1.00  0.00     0.093 C 
HETATM   21  N   UNL     1      42.713  -7.517  12.450  1.00  0.00    -0.212 NA
ENDBRANCH  12  15
ENDBRANCH   5   9
BRANCH   1  22
HETATM   22  C   UNL     1      42.767 -14.397   3.684  1.00  0.00    -0.030 A 
HETATM   23  C   UNL     1      43.191 -14.508   2.349  1.00  0.00     0.014 A 
HETATM   24  C   UNL     1      43.354 -15.756   1.731  1.00  0.00     0.037 A 
HETATM   25  C   UNL     1      43.094 -16.927   2.437  1.00  0.00     0.068 A 
HETATM   26  C   UNL     1      42.665 -16.837   3.759  1.00  0.00     0.037 A 
HETATM   27  C   UNL     1      42.514 -15.590   4.378  1.00  0.00     0.014 A 
BRANCH  25  28
HETATM   28  O   UNL     1      43.211 -18.202   1.958  1.00  0.00    -0.352 OA
BRANCH  28  29
HETATM   29  C   UNL     1      43.979 -19.118   2.734  1.00  0.00     0.171 C 
HETATM   30  C   UNL     1      43.677 -20.520   2.237  1.00  0.00     0.034 C 
ENDBRANCH  28  29
ENDBRANCH  25  28
ENDBRANCH   1  22
TORSDOF 5
ENDMDL
MODEL 5
REMARK VINA RESULT:      -7.9      9.190     11.492
REMARK  5 active torsions:
REMARK  status: ('A' for Active; 'I' for Inactive)
REMARK    1  A    between atoms: C_2  and  O_3 
REMARK    2  A    between atoms: O_3  and  C_4 
REMARK    3  A    between atoms: C_7  and  C_8 
REMARK       I    between atoms: N_11  and  C_12 
REMARK    4  A    between atoms: C_12  and  C_13 
REMARK    5  A    between atoms: C_16  and  C_17 
ROOT
HETATM    1  C   UNL     1      41.816 -15.563   2.458  1.00  0.00    -0.049 C 
HETATM    2  C   UNL     1      40.700 -14.994   3.302  1.00  0.00     0.059 C 
HETATM    3  C   UNL     1      39.652 -14.258   2.468  1.00  0.00     0.131 C 
HETATM    4  N   UNL     1      40.251 -13.364   1.482  1.00  0.00    -0.344 N 
HETATM    5  C   UNL     1      39.486 -12.251   1.110  1.00  0.00     0.254 C 
HETATM    6  O   UNL     1      38.452 -11.909   1.679  1.00  0.00    -0.267 OA
HETATM    7  C   UNL     1      41.234 -13.961   0.581  1.00  0.00     0.154 C 
HETATM    8  C   UNL     1      42.028 -15.059   1.226  1.00  0.00     0.001 C 
ENDROOT
BRANCH   5   9
HETATM    9  C   UNL     1      39.895 -11.464  -0.073  1.00  0.00     0.032 A 
HETATM   10  C   UNL     1      40.960 -10.569   0.065  1.00  0.00     0.018 A 
HETATM   11  C   UNL     1      41.350  -9.784  -1.023  1.00  0.00     0.016 A 
HETATM   12  C   UNL     1      40.686  -9.889  -2.256  1.00  0.00     0.014 A 
HETATM   13  C   UNL     1      39.645 -10.824  -2.389  1.00  0.00     0.016 A 
HETATM   14  C   UNL     1      39.257 -11.620  -1.306  1.00  0.00     0.018 A 
BRANCH  12  15
HETATM   15  C   UNL     1      41.054  -9.030  -3.376  1.00  0.00     0.181 A 
HETATM   16  N   UNL     1      40.558  -9.157  -4.618  1.00  0.00    -0.152 NA
HETATM   17  N   UNL     1      41.210  -8.194  -5.282  1.00  0.00    -0.263 N 
HETATM   18  H   UNL     1      41.024  -8.058  -6.269  1.00  0.00     0.190 HD
HETATM   19  C   UNL     1      42.076  -7.524  -4.470  1.00  0.00     0.118 A 
HETATM   20  C   UNL     1      42.959  -6.439  -4.943  1.00  0.00     0.093 C 
HETATM   21  N   UNL     1      41.991  -8.024  -3.257  1.00  0.00    -0.212 NA
ENDBRANCH  12  15
ENDBRANCH   5   9
BRANCH   1  22
HETATM   22  C   UNL     1      42.652 -16.650   3.030  1.00  0.00    -0.030 A 
HETATM   23  C   UNL     1      43.336 -16.477   4.244  1.00  0.00     0.014 A 
HETATM   24  C   UNL     1      44.098 -17.508   4.812  1.00  0.00     0.037 A 
HETATM   25  C   UNL     1      44.195 -18.741   4.174  1.00  0.00     0.068 A 
HETATM   26  C   UNL     1      43.531 -18.928   2.963  1.00  0.00     0.037 A 
HETATM   27  C   UNL     1      42.760 -17.901   2.404  1.00  0.00     0.014 A 
BRANCH  25  28
HETATM   28  O   UNL     1      44.901 -19.825   4.614  1.00  0.00    -0.352 OA
BRANCH  28  29
HETATM   29  C   UNL     1      44.172 -20.836   5.307  1.00  0.00     0.171 C 
HETATM   30  C   UNL     1      43.381 -20.165   6.416  1.00  0.00     0.034 C 
ENDBRANCH  28  29
ENDBRANCH  25  28
ENDBRANCH   1  22
TORSDOF 5
ENDMDL
MODEL 6
REMARK VINA RESULT:      -7.8      9.758     11.114
REMARK  5 active torsions:
REMARK  status: ('A' for Active; 'I' for Inactive)
REMARK    1  A    between atoms: C_2  and  O_3 
REMARK    2  A    between atoms: O_3  and  C_4 
REMARK    3  A    between atoms: C_7  and  C_8 
REMARK       I    between atoms: N_11  and  C_12 
REMARK    4  A    between atoms: C_12  and  C_13 
REMARK    5  A    between atoms: C_16  and  C_17 
ROOT
HETATM    1  C   UNL     1      41.412 -10.138  -0.282  1.00  0.00    -0.049 C 
HETATM    2  C   UNL     1      40.623 -10.879  -1.335  1.00  0.00     0.059 C 
HETATM    3  C   UNL     1      39.907 -12.106  -0.774  1.00  0.00     0.131 C 
HETATM    4  N   UNL     1      40.767 -12.910   0.089  1.00  0.00    -0.344 N 
HETATM    5  C   UNL     1      40.470 -14.277   0.161  1.00  0.00     0.254 C 
HETATM    6  O   UNL     1      39.662 -14.842  -0.573  1.00  0.00    -0.267 OA
HETATM    7  C   UNL     1      41.420 -12.203   1.189  1.00  0.00     0.154 C 
HETATM    8  C   UNL     1      41.759 -10.781   0.851  1.00  0.00     0.001 C 
ENDROOT
BRANCH   5   9
HETATM    9  C   UNL     1      41.109 -15.095   1.215  1.00  0.00     0.032 A 
HETATM   10  C   UNL     1      42.451 -15.447   1.054  1.00  0.00     0.018 A 
HETATM   11  C   UNL     1      43.075 -16.248   2.014  1.00  0.00     0.016 A 
HETATM   12  C   UNL     1      42.368 -16.698   3.140  1.00  0.00     0.014 A 
HETATM   13  C   UNL     1      41.031 -16.299   3.307  1.00  0.00     0.016 A 
HETATM   14  C   UNL     1      40.404 -15.488   2.354  1.00  0.00     0.018 A 
BRANCH  12  15
HETATM   15  C   UNL     1      43.002 -17.582   4.113  1.00  0.00     0.181 A 
HETATM   16  N   UNL     1      43.298 -17.225   5.374  1.00  0.00    -0.152 NA
HETATM   17  N   UNL     1      43.887 -18.330   5.849  1.00  0.00    -0.263 N 
HETATM   18  H   UNL     1      44.220 -18.344   6.806  1.00  0.00     0.190 HD
HETATM   19  C   UNL     1      43.956 -19.308   4.901  1.00  0.00     0.118 A 
HETATM   20  C   UNL     1      44.593 -20.620   5.132  1.00  0.00     0.093 C 
HETATM   21  N   UNL     1      43.395 -18.867   3.798  1.00  0.00    -0.212 NA
ENDBRANCH  12  15
ENDBRANCH   5   9
BRANCH   1  22
HETATM   22  C   UNL     1      41.790  -8.725  -0.544  1.00  0.00    -0.030 A 
HETATM   23  C   UNL     1      42.837  -8.408  -1.425  1.00  0.00     0.014 A 
HETATM   24  C   UNL     1      43.180  -7.077  -1.710  1.00  0.00     0.037 A 
HETATM   25  C   UNL     1      42.481  -6.031  -1.115  1.00  0.00     0.068 A 
HETATM   26  C   UNL     1      41.446  -6.327  -0.231  1.00  0.00     0.037 A 
HETATM   27  C   UNL     1      41.098  -7.656   0.042  1.00  0.00     0.014 A 
BRANCH  25  28
HETATM   28  O   UNL     1      42.712  -4.697  -1.303  1.00  0.00    -0.352 OA
BRANCH  28  29
HETATM   29  C   UNL     1      44.052  -4.241  -1.133  1.00  0.00     0.171 C 
HETATM   30  C   UNL     1      44.409  -4.375   0.336  1.00  0.00     0.034 C 
ENDBRANCH  28  29
ENDBRANCH  25  28
ENDBRANCH   1  22
TORSDOF 5
ENDMDL
MODEL 7
REMARK VINA RESULT:      -7.7      5.346     12.498
REMARK  5 active torsions:
REMARK  status: ('A' for Active; 'I' for Inactive)
REMARK    1  A    between atoms: C_2  and  O_3 
REMARK    2  A    between atoms: O_3  and  C_4 
REMARK    3  A    between atoms: C_7  and  C_8 
REMARK       I    between atoms: N_11  and  C_12 
REMARK    4  A    between atoms: C_12  and  C_13 
REMARK    5  A    between atoms: C_16  and  C_17 
ROOT
HETATM    1  C   UNL     1      42.942  -7.487  12.260  1.00  0.00    -0.049 C 
HETATM    2  C   UNL     1      42.029  -6.318  11.980  1.00  0.00     0.059 C 
HETATM    3  C   UNL     1      41.861  -5.403  13.192  1.00  0.00     0.131 C 
HETATM    4  N   UNL     1      41.617  -6.147  14.424  1.00  0.00    -0.344 N 
HETATM    5  C   UNL     1      40.881  -5.483  15.414  1.00  0.00     0.254 C 
HETATM    6  O   UNL     1      40.304  -4.413  15.237  1.00  0.00    -0.267 OA
HETATM    7  C   UNL     1      42.587  -7.189  14.752  1.00  0.00     0.154 C 
HETATM    8  C   UNL     1      43.165  -7.854  13.538  1.00  0.00     0.001 C 
ENDROOT
BRANCH   5   9
HETATM    9  C   UNL     1      40.835  -6.055  16.777  1.00  0.00     0.032 A 
HETATM   10  C   UNL     1      39.919  -7.078  17.033  1.00  0.00     0.018 A 
HETATM   11  C   UNL     1      39.825  -7.617  18.319  1.00  0.00     0.016 A 
HETATM   12  C   UNL     1      40.645  -7.143  19.355  1.00  0.00     0.014 A 
HETATM   13  C   UNL     1      41.590  -6.142  19.070  1.00  0.00     0.016 A 
HETATM   14  C   UNL     1      41.696  -5.607  17.782  1.00  0.00     0.018 A 
BRANCH  12  15
HETATM   15  C   UNL     1      40.508  -7.664  20.711  1.00  0.00     0.181 A 
HETATM   16  N   UNL     1      40.564  -6.905  21.819  1.00  0.00    -0.152 NA
HETATM   17  N   UNL     1      40.430  -7.817  22.791  1.00  0.00    -0.263 N 
HETATM   18  H   UNL     1      40.436  -7.515  23.759  1.00  0.00     0.190 HD
HETATM   19  C   UNL     1      40.315  -9.077  22.285  1.00  0.00     0.118 A 
HETATM   20  C   UNL     1      40.198 -10.284  23.128  1.00  0.00     0.093 C 
HETATM   21  N   UNL     1      40.350  -9.010  20.973  1.00  0.00    -0.212 NA
ENDBRANCH  12  15
ENDBRANCH   5   9
BRANCH   1  22
HETATM   22  C   UNL     1      43.550  -8.202  11.108  1.00  0.00    -0.030 A 
HETATM   23  C   UNL     1      43.500  -7.663   9.812  1.00  0.00     0.014 A 
HETATM   24  C   UNL     1      44.102  -8.310   8.723  1.00  0.00     0.037 A 
HETATM   25  C   UNL     1      44.768  -9.518   8.906  1.00  0.00     0.068 A 
HETATM   26  C   UNL     1      44.820 -10.072  10.183  1.00  0.00     0.037 A 
HETATM   27  C   UNL     1      44.229  -9.419  11.271  1.00  0.00     0.014 A 
BRANCH  25  28
HETATM   28  O   UNL     1      45.394 -10.250   7.936  1.00  0.00    -0.352 OA
BRANCH  28  29
HETATM   29  C   UNL     1      44.741 -11.441   7.502  1.00  0.00     0.171 C 
HETATM   30  C   UNL     1      44.969 -11.582   6.008  1.00  0.00     0.034 C 
ENDBRANCH  28  29
ENDBRANCH  25  28
ENDBRANCH   1  22
TORSDOF 5
ENDMDL
MODEL 8
REMARK VINA RESULT:      -7.6      7.810     12.753
REMARK  5 active torsions:
REMARK  status: ('A' for Active; 'I' for Inactive)
REMARK    1  A    between atoms: C_2  and  O_3 
REMARK    2  A    between atoms: O_3  and  C_4 
REMARK    3  A    between atoms: C_7  and  C_8 
REMARK       I    between atoms: N_11  and  C_12 
REMARK    4  A    between atoms: C_12  and  C_13 
REMARK    5  A    between atoms: C_16  and  C_17 
ROOT
HETATM    1  C   UNL     1      40.916 -10.745  -1.812  1.00  0.00    -0.049 C 
HETATM    2  C   UNL     1      40.182 -11.780  -2.631  1.00  0.00     0.059 C 
HETATM    3  C   UNL     1      39.480 -12.823  -1.763  1.00  0.00     0.131 C 
HETATM    4  N   UNL     1      40.334 -13.321  -0.688  1.00  0.00    -0.344 N 
HETATM    5  C   UNL     1      40.071 -14.622  -0.239  1.00  0.00     0.254 C 
HETATM    6  O   UNL     1      39.302 -15.398  -0.802  1.00  0.00    -0.267 OA
HETATM    7  C   UNL     1      40.931 -12.310   0.182  1.00  0.00     0.154 C 
HETATM    8  C   UNL     1      41.244 -11.030  -0.536  1.00  0.00     0.001 C 
ENDROOT
BRANCH   5   9
HETATM    9  C   UNL     1      40.696 -15.086   1.018  1.00  0.00     0.032 A 
HETATM   10  C   UNL     1      39.881 -15.245   2.142  1.00  0.00     0.018 A 
HETATM   11  C   UNL     1      40.445 -15.649   3.354  1.00  0.00     0.016 A 
HETATM   12  C   UNL     1      41.823 -15.900   3.454  1.00  0.00     0.014 A 
HETATM   13  C   UNL     1      42.621 -15.776   2.304  1.00  0.00     0.016 A 
HETATM   14  C   UNL     1      42.059 -15.383   1.084  1.00  0.00     0.018 A 
BRANCH  12  15
HETATM   15  C   UNL     1      42.423 -16.266   4.733  1.00  0.00     0.181 A 
HETATM   16  N   UNL     1      43.052 -17.430   4.964  1.00  0.00    -0.152 NA
HETATM   17  N   UNL     1      43.384 -17.318   6.257  1.00  0.00    -0.263 N 
HETATM   18  H   UNL     1      43.885 -18.075   6.709  1.00  0.00     0.190 HD
HETATM   19  C   UNL     1      42.955 -16.136   6.785  1.00  0.00     0.118 A 
HETATM   20  C   UNL     1      43.144 -15.762   8.201  1.00  0.00     0.093 C 
HETATM   21  N   UNL     1      42.354 -15.447   5.841  1.00  0.00    -0.212 NA
ENDBRANCH  12  15
ENDBRANCH   5   9
BRANCH   1  22
HETATM   22  C   UNL     1      41.266  -9.452  -2.455  1.00  0.00    -0.030 A 
HETATM   23  C   UNL     1      42.250  -8.613  -1.907  1.00  0.00     0.014 A 
HETATM   24  C   UNL     1      42.614  -7.407  -2.525  1.00  0.00     0.037 A 
HETATM   25  C   UNL     1      41.999  -7.012  -3.708  1.00  0.00     0.068 A 
HETATM   26  C   UNL     1      41.014  -7.827  -4.261  1.00  0.00     0.037 A 
HETATM   27  C   UNL     1      40.660  -9.036  -3.650  1.00  0.00     0.014 A 
BRANCH  25  28
HETATM   28  O   UNL     1      42.257  -5.867  -4.409  1.00  0.00    -0.352 OA
BRANCH  28  29
HETATM   29  C   UNL     1      42.106  -5.928  -5.826  1.00  0.00     0.171 C 
HETATM   30  C   UNL     1      43.473  -6.192  -6.431  1.00  0.00     0.034 C 
ENDBRANCH  28  29
ENDBRANCH  25  28
ENDBRANCH   1  22
TORSDOF 5
ENDMDL
MODEL 9
REMARK VINA RESULT:      -7.6     21.052     22.989
REMARK  5 active torsions:
REMARK  status: ('A' for Active; 'I' for Inactive)
REMARK    1  A    between atoms: C_2  and  O_3 
REMARK    2  A    between atoms: O_3  and  C_4 
REMARK    3  A    between atoms: C_7  and  C_8 
REMARK       I    between atoms: N_11  and  C_12 
REMARK    4  A    between atoms: C_12  and  C_13 
REMARK    5  A    between atoms: C_16  and  C_17 
ROOT
HETATM    1  C   UNL     1      47.581 -30.360   2.027  1.00  0.00    -0.049 C 
HETATM    2  C   UNL     1      46.436 -29.483   2.474  1.00  0.00     0.059 C 
HETATM    3  C   UNL     1      45.138 -29.788   1.729  1.00  0.00     0.131 C 
HETATM    4  N   UNL     1      45.339 -29.922   0.289  1.00  0.00    -0.344 N 
HETATM    5  C   UNL     1      44.242 -29.603  -0.522  1.00  0.00     0.254 C 
HETATM    6  O   UNL     1      43.215 -29.070  -0.107  1.00  0.00    -0.267 OA
HETATM    7  C   UNL     1      46.360 -30.876  -0.135  1.00  0.00     0.154 C 
HETATM    8  C   UNL     1      47.508 -30.971   0.828  1.00  0.00     0.001 C 
ENDROOT
BRANCH   5   9
HETATM    9  C   UNL     1      44.275 -29.977  -1.952  1.00  0.00     0.032 A 
HETATM   10  C   UNL     1      44.124 -31.326  -2.285  1.00  0.00     0.018 A 
HETATM   11  C   UNL     1      44.186 -31.719  -3.625  1.00  0.00     0.016 A 
HETATM   12  C   UNL     1      44.394 -30.771  -4.639  1.00  0.00     0.014 A 
HETATM   13  C   UNL     1      44.502 -29.414  -4.290  1.00  0.00     0.016 A 
HETATM   14  C   UNL     1      44.430 -29.014  -2.951  1.00  0.00     0.018 A 
BRANCH  12  15
HETATM   15  C   UNL     1      44.516 -31.187  -6.033  1.00  0.00     0.181 A 
HETATM   16  N   UNL     1      43.514 -31.132  -6.926  1.00  0.00    -0.152 NA
HETATM   17  N   UNL     1      44.087 -31.644  -8.023  1.00  0.00    -0.263 N 
HETATM   18  H   UNL     1      43.545 -31.723  -8.876  1.00  0.00     0.190 HD
HETATM   19  C   UNL     1      45.381 -32.007  -7.791  1.00  0.00     0.118 A 
HETATM   20  C   UNL     1      46.243 -32.640  -8.809  1.00  0.00     0.093 C 
HETATM   21  N   UNL     1      45.682 -31.720  -6.544  1.00  0.00    -0.212 NA
ENDBRANCH  12  15
ENDBRANCH   5   9
BRANCH   1  22
HETATM   22  C   UNL     1      48.757 -30.501   2.923  1.00  0.00    -0.030 A 
HETATM   23  C   UNL     1      48.639 -31.109   4.184  1.00  0.00     0.014 A 
HETATM   24  C   UNL     1      49.750 -31.281   5.023  1.00  0.00     0.037 A 
HETATM   25  C   UNL     1      51.008 -30.845   4.620  1.00  0.00     0.068 A 
HETATM   26  C   UNL     1      51.143 -30.232   3.376  1.00  0.00     0.037 A 
HETATM   27  C   UNL     1      50.035 -30.072   2.534  1.00  0.00     0.014 A 
BRANCH  25  28
HETATM   28  O   UNL     1      52.167 -30.949   5.337  1.00  0.00    -0.352 OA
BRANCH  28  29
HETATM   29  C   UNL     1      52.181 -31.885   6.413  1.00  0.00     0.171 C 
HETATM   30  C   UNL     1      53.224 -31.428   7.417  1.00  0.00     0.034 C 
ENDBRANCH  28  29
ENDBRANCH  25  28
ENDBRANCH   1  22
TORSDOF 5
ENDMDL
MODEL 10
REMARK VINA RESULT:      -7.6     20.810     22.932
REMARK  5 active torsions:
REMARK  status: ('A' for Active; 'I' for Inactive)
REMARK    1  A    between atoms: C_2  and  O_3 
REMARK    2  A    between atoms: O_3  and  C_4 
REMARK    3  A    between atoms: C_7  and  C_8 
REMARK       I    between atoms: N_11  and  C_12 
REMARK    4  A    between atoms: C_12  and  C_13 
REMARK    5  A    between atoms: C_16  and  C_17 
ROOT
HETATM    1  C   UNL     1      42.642 -30.587   1.721  1.00  0.00    -0.049 C 
HETATM    2  C   UNL     1      42.450 -29.186   1.191  1.00  0.00     0.059 C 
HETATM    3  C   UNL     1      43.246 -28.929  -0.087  1.00  0.00     0.131 C 
HETATM    4  N   UNL     1      44.620 -29.414   0.002  1.00  0.00    -0.344 N 
HETATM    5  C   UNL     1      45.566 -28.745  -0.784  1.00  0.00     0.254 C 
HETATM    6  O   UNL     1      45.338 -27.700  -1.389  1.00  0.00    -0.267 OA
HETATM    7  C   UNL     1      44.786 -30.814   0.386  1.00  0.00     0.154 C 
HETATM    8  C   UNL     1      43.724 -31.292   1.333  1.00  0.00     0.001 C 
ENDROOT
BRANCH   5   9
HETATM    9  C   UNL     1      46.905 -29.348  -0.962  1.00  0.00     0.032 A 
HETATM   10  C   UNL     1      47.890 -29.060  -0.013  1.00  0.00     0.018 A 
HETATM   11  C   UNL     1      49.175 -29.584  -0.168  1.00  0.00     0.016 A 
HETATM   12  C   UNL     1      49.486 -30.401  -1.266  1.00  0.00     0.014 A 
HETATM   13  C   UNL     1      48.473 -30.715  -2.188  1.00  0.00     0.016 A 
HETATM   14  C   UNL     1      47.181 -30.202  -2.031  1.00  0.00     0.018 A 
BRANCH  12  15
HETATM   15  C   UNL     1      50.843 -30.902  -1.461  1.00  0.00     0.181 A 
HETATM   16  N   UNL     1      51.730 -30.362  -2.314  1.00  0.00    -0.152 NA
HETATM   17  N   UNL     1      52.787 -31.173  -2.170  1.00  0.00    -0.263 N 
HETATM   18  H   UNL     1      53.626 -30.994  -2.710  1.00  0.00     0.190 HD
HETATM   19  C   UNL     1      52.536 -32.171  -1.277  1.00  0.00     0.118 A 
HETATM   20  C   UNL     1      53.507 -33.236  -0.955  1.00  0.00     0.093 C 
HETATM   21  N   UNL     1      51.319 -32.020  -0.805  1.00  0.00    -0.212 NA
ENDBRANCH  12  15
ENDBRANCH   5   9
BRANCH   1  22
HETATM   22  C   UNL     1      41.635 -31.131   2.668  1.00  0.00    -0.030 A 
HETATM   23  C   UNL     1      41.565 -30.672   3.994  1.00  0.00     0.014 A 
HETATM   24  C   UNL     1      40.594 -31.151   4.886  1.00  0.00     0.037 A 
HETATM   25  C   UNL     1      39.669 -32.104   4.471  1.00  0.00     0.068 A 
HETATM   26  C   UNL     1      39.729 -32.577   3.162  1.00  0.00     0.037 A 
HETATM   27  C   UNL     1      40.691 -32.089   2.269  1.00  0.00     0.014 A 
BRANCH  25  28
HETATM   28  O   UNL     1      38.678 -32.653   5.235  1.00  0.00    -0.352 OA
BRANCH  28  29
HETATM   29  C   UNL     1      37.769 -33.535   4.580  1.00  0.00     0.171 C 
HETATM   30  C   UNL     1      36.535 -33.670   5.455  1.00  0.00     0.034 C 
ENDBRANCH  28  29
ENDBRANCH  25  28
ENDBRANCH   1  22
TORSDOF 5
ENDMDL
