MODEL 1
REMARK VINA RESULT:      -8.6      0.000      0.000
REMARK  6 active torsions:
REMARK  status: ('A' for Active; 'I' for Inactive)
REMARK    1  A    between atoms: C_7  and  C_8 
REMARK    2  A    between atoms: N_9  and  N_10 
REMARK       I    between atoms: N_10  and  C_11 
REMARK    3  A    between atoms: C_11  and  C_12 
REMARK    4  A    between atoms: C_12  and  N_13 
REMARK       I    between atoms: N_13  and  C_14 
REMARK    5  A    between atoms: C_14  and  C_15 
REMARK    6  A    between atoms: C_15  and  C_16 
ROOT
HETATM    1  N   UNL     1      42.844 -12.578   5.885  1.00  0.00    -0.246 N 
HETATM    2  C   UNL     1      43.125 -11.254   5.604  1.00  0.00     0.255 C 
HETATM    3  O   UNL     1      43.554 -10.833   4.530  1.00  0.00    -0.270 OA
HETATM    4  H   UNL     1      42.325 -12.796   6.741  1.00  0.00     0.192 HD
ENDROOT
BRANCH   1   5
HETATM    5  N   UNL     1      42.948 -13.532   4.910  1.00  0.00    -0.184 NA
HETATM    6  C   UNL     1      42.078 -14.486   4.998  1.00  0.00     0.153 C 
BRANCH   6   7
HETATM    7  C   UNL     1      42.017 -15.528   3.990  1.00  0.00     0.018 A 
HETATM    8  C   UNL     1      41.138 -15.509   2.913  1.00  0.00     0.018 A 
HETATM    9  C   UNL     1      40.085 -14.532   2.532  1.00  0.00     0.069 C 
HETATM   10  N   UNL     1      41.384 -16.627   2.155  1.00  0.00    -0.358 N 
HETATM   11  H   UNL     1      40.895 -16.875   1.306  1.00  0.00     0.166 HD
HETATM   12  C   UNL     1      42.398 -17.372   2.703  1.00  0.00     0.043 A 
HETATM   13  C   UNL     1      42.810 -16.717   3.864  1.00  0.00     0.004 A 
HETATM   14  C   UNL     1      42.978 -18.566   2.254  1.00  0.00     0.030 A 
HETATM   15  C   UNL     1      43.856 -17.295   4.616  1.00  0.00     0.014 A 
HETATM   16  C   UNL     1      44.446 -18.489   4.183  1.00  0.00     0.001 A 
HETATM   17  C   UNL     1      44.013 -19.113   3.017  1.00  0.00     0.002 A 
ENDBRANCH   6   7
ENDBRANCH   1   5
BRANCH   2  18
HETATM   18  C   UNL     1      42.669 -10.282   6.700  1.00  0.00     0.227 C 
BRANCH  18  19
HETATM   19  N   UNL     1      43.670  -9.795   7.646  1.00  0.00    -0.352 N 
HETATM   20  C   UNL     1      44.281 -10.617   8.564  1.00  0.00     0.222 C 
HETATM   21  O   UNL     1      44.265 -11.841   8.449  1.00  0.00    -0.273 OA
HETATM   22  H   UNL     1      43.732  -8.793   7.771  1.00  0.00     0.162 HD
BRANCH  20  23
HETATM   23  C   UNL     1      44.988  -9.902   9.699  1.00  0.00     0.141 C 
BRANCH  23  24
HETATM   24  C   UNL     1      44.102  -9.644  10.889  1.00  0.00    -0.050 A 
HETATM   25  C   UNL     1      43.555 -10.710  11.617  1.00  0.00     0.007 A 
HETATM   26  C   UNL     1      42.756 -10.466  12.734  1.00  0.00     0.001 A 
HETATM   27  C   UNL     1      42.490  -9.157  13.132  1.00  0.00     0.000 A 
HETATM   28  C   UNL     1      43.018  -8.090  12.408  1.00  0.00     0.001 A 
HETATM   29  C   UNL     1      43.817  -8.330  11.289  1.00  0.00     0.007 A 
ENDBRANCH  23  24
ENDBRANCH  20  23
ENDBRANCH  18  19
ENDBRANCH   2  18
TORSDOF 6
ENDMDL
MODEL 2
REMARK VINA RESULT:      -8.6      1.754      2.778
REMARK  6 active torsions:
REMARK  status: ('A' for Active; 'I' for Inactive)
REMARK    1  A    between atoms: C_7  and  C_8 
REMARK    2  A    between atoms: N_9  and  N_10 
REMARK       I    between atoms: N_10  and  C_11 
REMARK    3  A    between atoms: C_11  and  C_12 
REMARK    4  A    between atoms: C_12  and  N_13 
REMARK       I    between atoms: N_13  and  C_14 
REMARK    5  A    between atoms: C_14  and  C_15 
REMARK    6  A    between atoms: C_15  and  C_16 
ROOT
HETATM    1  N   UNL     1      43.561 -12.383   7.501  1.00  0.00    -0.246 N 
HETATM    2  C   UNL     1      44.286 -11.210   7.405  1.00  0.00     0.255 C 
HETATM    3  O   UNL     1      45.316 -11.065   6.747  1.00  0.00    -0.270 OA
HETATM    4  H   UNL     1      42.630 -12.347   7.925  1.00  0.00     0.192 HD
ENDROOT
BRANCH   1   5
HETATM    5  N   UNL     1      43.914 -13.479   6.764  1.00  0.00    -0.184 NA
HETATM    6  C   UNL     1      42.917 -14.196   6.358  1.00  0.00     0.153 C 
BRANCH   6   7
HETATM    7  C   UNL     1      43.131 -15.348   5.501  1.00  0.00     0.018 A 
HETATM    8  C   UNL     1      43.370 -16.631   5.979  1.00  0.00     0.018 A 
HETATM    9  C   UNL     1      43.495 -17.147   7.367  1.00  0.00     0.069 C 
HETATM   10  N   UNL     1      43.489 -17.464   4.895  1.00  0.00    -0.358 N 
HETATM   11  H   UNL     1      43.663 -18.458   4.938  1.00  0.00     0.166 HD
HETATM   12  C   UNL     1      43.333 -16.763   3.724  1.00  0.00     0.043 A 
HETATM   13  C   UNL     1      43.120 -15.428   4.069  1.00  0.00     0.004 A 
HETATM   14  C   UNL     1      43.361 -17.214   2.397  1.00  0.00     0.030 A 
HETATM   15  C   UNL     1      42.930 -14.496   3.024  1.00  0.00     0.014 A 
HETATM   16  C   UNL     1      42.956 -14.929   1.693  1.00  0.00     0.001 A 
HETATM   17  C   UNL     1      43.166 -16.270   1.386  1.00  0.00     0.002 A 
ENDBRANCH   6   7
ENDBRANCH   1   5
BRANCH   2  18
HETATM   18  C   UNL     1      43.591 -10.002   8.047  1.00  0.00     0.227 C 
BRANCH  18  19
HETATM   19  N   UNL     1      43.164 -10.114   9.438  1.00  0.00    -0.352 N 
HETATM   20  C   UNL     1      44.056 -10.147  10.485  1.00  0.00     0.222 C 
HETATM   21  O   UNL     1      45.221  -9.777  10.355  1.00  0.00    -0.273 OA
HETATM   22  H   UNL     1      42.209 -10.405   9.601  1.00  0.00     0.162 HD
BRANCH  20  23
HETATM   23  C   UNL     1      43.488 -10.644  11.800  1.00  0.00     0.141 C 
BRANCH  23  24
HETATM   24  C   UNL     1      42.823  -9.566  12.613  1.00  0.00    -0.050 A 
HETATM   25  C   UNL     1      41.588  -9.798  13.234  1.00  0.00     0.007 A 
HETATM   26  C   UNL     1      40.987  -8.804  14.007  1.00  0.00     0.001 A 
HETATM   27  C   UNL     1      41.610  -7.567  14.162  1.00  0.00     0.000 A 
HETATM   28  C   UNL     1      42.832  -7.321  13.539  1.00  0.00     0.001 A 
HETATM   29  C   UNL     1      43.434  -8.313  12.764  1.00  0.00     0.007 A 
ENDBRANCH  23  24
ENDBRANCH  20  23
ENDBRANCH  18  19
ENDBRANCH   2  18
TORSDOF 6
ENDMDL
MODEL 3
REMARK VINA RESULT:      -8.5      1.709      2.284
REMARK  6 active torsions:
REMARK  status: ('A' for Active; 'I' for Inactive)
REMARK    1  A    between atoms: C_7  and  C_8 
REMARK    2  A    between atoms: N_9  and  N_10 
REMARK       I    between atoms: N_10  and  C_11 
REMARK    3  A    between atoms: C_11  and  C_12 
REMARK    4  A    between atoms: C_12  and  N_13 
REMARK       I    between atoms: N_13  and  C_14 
REMARK    5  A    between atoms: C_14  and  C_15 
REMARK    6  A    between atoms: C_15  and  C_16 
ROOT
HETATM    1  N   UNL     1      43.562 -12.594   7.387  1.00  0.00    -0.246 N 
HETATM    2  C   UNL     1      44.384 -11.495   7.548  1.00  0.00     0.255 C 
HETATM    3  O   UNL     1      45.408 -11.274   6.900  1.00  0.00    -0.270 OA
HETATM    4  H   UNL     1      42.647 -12.591   7.847  1.00  0.00     0.192 HD
ENDROOT
BRANCH   1   5
HETATM    5  N   UNL     1      43.801 -13.500   6.390  1.00  0.00    -0.184 NA
HETATM    6  C   UNL     1      42.776 -13.760   5.644  1.00  0.00     0.153 C 
BRANCH   6   7
HETATM    7  C   UNL     1      42.897 -14.643   4.499  1.00  0.00     0.018 A 
HETATM    8  C   UNL     1      42.704 -14.235   3.185  1.00  0.00     0.018 A 
HETATM    9  C   UNL     1      42.322 -12.913   2.622  1.00  0.00     0.069 C 
HETATM   10  N   UNL     1      42.933 -15.317   2.374  1.00  0.00    -0.358 N 
HETATM   11  H   UNL     1      42.868 -15.315   1.365  1.00  0.00     0.166 HD
HETATM   12  C   UNL     1      43.273 -16.420   3.118  1.00  0.00     0.043 A 
HETATM   13  C   UNL     1      43.247 -16.034   4.459  1.00  0.00     0.004 A 
HETATM   14  C   UNL     1      43.603 -17.717   2.704  1.00  0.00     0.030 A 
HETATM   15  C   UNL     1      43.565 -17.006   5.434  1.00  0.00     0.014 A 
HETATM   16  C   UNL     1      43.896 -18.307   5.037  1.00  0.00     0.001 A 
HETATM   17  C   UNL     1      43.916 -18.655   3.690  1.00  0.00     0.002 A 
ENDBRANCH   6   7
ENDBRANCH   1   5
BRANCH   2  18
HETATM   18  C   UNL     1      43.812 -10.431   8.494  1.00  0.00     0.227 C 
BRANCH  18  19
HETATM   19  N   UNL     1      43.597 -10.798   9.890  1.00  0.00    -0.352 N 
HETATM   20  C   UNL     1      42.820 -10.045  10.740  1.00  0.00     0.222 C 
HETATM   21  O   UNL     1      42.020  -9.211  10.320  1.00  0.00    -0.273 OA
HETATM   22  H   UNL     1      44.222 -11.489  10.283  1.00  0.00     0.162 HD
BRANCH  20  23
HETATM   23  C   UNL     1      43.008 -10.340  12.216  1.00  0.00     0.141 C 
BRANCH  23  24
HETATM   24  C   UNL     1      42.638  -9.187  13.110  1.00  0.00    -0.050 A 
HETATM   25  C   UNL     1      41.517  -9.264  13.948  1.00  0.00     0.007 A 
HETATM   26  C   UNL     1      41.193  -8.202  14.794  1.00  0.00     0.001 A 
HETATM   27  C   UNL     1      41.980  -7.053  14.806  1.00  0.00     0.000 A 
HETATM   28  C   UNL     1      43.090  -6.961  13.968  1.00  0.00     0.001 A 
HETATM   29  C   UNL     1      43.416  -8.020  13.120  1.00  0.00     0.007 A 
ENDBRANCH  23  24
ENDBRANCH  20  23
ENDBRANCH  18  19
ENDBRANCH   2  18
TORSDOF 6
ENDMDL
MODEL 4
REMARK VINA RESULT:      -8.3      5.251      8.965
REMARK  6 active torsions:
REMARK  status: ('A' for Active; 'I' for Inactive)
REMARK    1  A    between atoms: C_7  and  C_8 
REMARK    2  A    between atoms: N_9  and  N_10 
REMARK       I    between atoms: N_10  and  C_11 
REMARK    3  A    between atoms: C_11  and  C_12 
REMARK    4  A    between atoms: C_12  and  N_13 
REMARK       I    between atoms: N_13  and  C_14 
REMARK    5  A    between atoms: C_14  and  C_15 
REMARK    6  A    between atoms: C_15  and  C_16 
ROOT
HETATM    1  N   UNL     1      41.144 -14.331   2.238  1.00  0.00    -0.246 N 
HETATM    2  C   UNL     1      40.849 -13.129   2.852  1.00  0.00     0.255 C 
HETATM    3  O   UNL     1      40.790 -12.949   4.069  1.00  0.00    -0.270 OA
HETATM    4  H   UNL     1      41.343 -14.330   1.234  1.00  0.00     0.192 HD
ENDROOT
BRANCH   1   5
HETATM    5  N   UNL     1      41.491 -15.425   2.983  1.00  0.00    -0.184 NA
HETATM    6  C   UNL     1      42.756 -15.698   2.978  1.00  0.00     0.153 C 
BRANCH   6   7
HETATM    7  C   UNL     1      43.283 -16.783   3.784  1.00  0.00     0.018 A 
HETATM    8  C   UNL     1      43.715 -16.630   5.096  1.00  0.00     0.018 A 
HETATM    9  C   UNL     1      43.788 -15.425   5.963  1.00  0.00     0.069 C 
HETATM   10  N   UNL     1      44.112 -17.862   5.550  1.00  0.00    -0.358 N 
HETATM   11  H   UNL     1      44.472 -18.055   6.475  1.00  0.00     0.166 HD
HETATM   12  C   UNL     1      43.950 -18.816   4.576  1.00  0.00     0.043 A 
HETATM   13  C   UNL     1      43.442 -18.168   3.448  1.00  0.00     0.004 A 
HETATM   14  C   UNL     1      44.208 -20.192   4.614  1.00  0.00     0.030 A 
HETATM   15  C   UNL     1      43.187 -18.946   2.297  1.00  0.00     0.014 A 
HETATM   16  C   UNL     1      43.441 -20.323   2.317  1.00  0.00     0.001 A 
HETATM   17  C   UNL     1      43.942 -20.936   3.461  1.00  0.00     0.002 A 
ENDBRANCH   6   7
ENDBRANCH   1   5
BRANCH   2  18
HETATM   18  C   UNL     1      40.783 -11.941   1.882  1.00  0.00     0.227 C 
BRANCH  18  19
HETATM   19  N   UNL     1      41.151 -12.172   0.488  1.00  0.00    -0.352 N 
HETATM   20  C   UNL     1      41.164 -11.164  -0.449  1.00  0.00     0.222 C 
HETATM   21  O   UNL     1      41.174  -9.978  -0.124  1.00  0.00    -0.273 OA
HETATM   22  H   UNL     1      41.167 -13.132   0.172  1.00  0.00     0.162 HD
BRANCH  20  23
HETATM   23  C   UNL     1      41.188 -11.628  -1.893  1.00  0.00     0.141 C 
BRANCH  23  24
HETATM   24  C   UNL     1      40.005 -12.477  -2.270  1.00  0.00    -0.050 A 
HETATM   25  C   UNL     1      40.173 -13.828  -2.607  1.00  0.00     0.007 A 
HETATM   26  C   UNL     1      39.070 -14.618  -2.931  1.00  0.00     0.001 A 
HETATM   27  C   UNL     1      37.790 -14.067  -2.929  1.00  0.00     0.000 A 
HETATM   28  C   UNL     1      37.612 -12.723  -2.609  1.00  0.00     0.001 A 
HETATM   29  C   UNL     1      38.714 -11.929  -2.285  1.00  0.00     0.007 A 
ENDBRANCH  23  24
ENDBRANCH  20  23
ENDBRANCH  18  19
ENDBRANCH   2  18
TORSDOF 6
ENDMDL
MODEL 5
REMARK VINA RESULT:      -8.2      4.692      8.509
REMARK  6 active torsions:
REMARK  status: ('A' for Active; 'I' for Inactive)
REMARK    1  A    between atoms: C_7  and  C_8 
REMARK    2  A    between atoms: N_9  and  N_10 
REMARK       I    between atoms: N_10  and  C_11 
REMARK    3  A    between atoms: C_11  and  C_12 
REMARK    4  A    between atoms: C_12  and  N_13 
REMARK       I    between atoms: N_13  and  C_14 
REMARK    5  A    between atoms: C_14  and  C_15 
REMARK    6  A    between atoms: C_15  and  C_16 
ROOT
HETATM    1  N   UNL     1      40.843 -14.023   3.669  1.00  0.00    -0.246 N 
HETATM    2  C   UNL     1      41.402 -13.210   4.637  1.00  0.00     0.255 C 
HETATM    3  O   UNL     1      41.195 -12.002   4.756  1.00  0.00    -0.270 OA
HETATM    4  H   UNL     1      40.940 -15.037   3.769  1.00  0.00     0.192 HD
ENDROOT
BRANCH   1   5
HETATM    5  N   UNL     1      39.912 -13.526   2.799  1.00  0.00    -0.184 NA
HETATM    6  C   UNL     1      40.369 -13.263   1.618  1.00  0.00     0.153 C 
BRANCH   6   7
HETATM    7  C   UNL     1      39.483 -12.802   0.565  1.00  0.00     0.018 A 
HETATM    8  C   UNL     1      38.838 -11.571   0.584  1.00  0.00     0.018 A 
HETATM    9  C   UNL     1      38.838 -10.486   1.599  1.00  0.00     0.069 C 
HETATM   10  N   UNL     1      38.117 -11.461  -0.579  1.00  0.00    -0.358 N 
HETATM   11  H   UNL     1      37.548 -10.667  -0.840  1.00  0.00     0.166 HD
HETATM   12  C   UNL     1      38.274 -12.581  -1.357  1.00  0.00     0.043 A 
HETATM   13  C   UNL     1      39.117 -13.450  -0.661  1.00  0.00     0.004 A 
HETATM   14  C   UNL     1      37.740 -12.882  -2.617  1.00  0.00     0.030 A 
HETATM   15  C   UNL     1      39.434 -14.688  -1.263  1.00  0.00     0.014 A 
HETATM   16  C   UNL     1      38.907 -15.005  -2.521  1.00  0.00     0.001 A 
HETATM   17  C   UNL     1      38.074 -14.112  -3.188  1.00  0.00     0.002 A 
ENDBRANCH   6   7
ENDBRANCH   1   5
BRANCH   2  18
HETATM   18  C   UNL     1      42.183 -13.979   5.712  1.00  0.00     0.227 C 
BRANCH  18  19
HETATM   19  N   UNL     1      43.139 -14.991   5.274  1.00  0.00    -0.352 N 
HETATM   20  C   UNL     1      42.946 -16.335   5.496  1.00  0.00     0.222 C 
HETATM   21  O   UNL     1      41.841 -16.792   5.786  1.00  0.00    -0.273 OA
HETATM   22  H   UNL     1      44.061 -14.668   5.014  1.00  0.00     0.162 HD
BRANCH  20  23
HETATM   23  C   UNL     1      44.181 -17.200   5.331  1.00  0.00     0.141 C 
BRANCH  23  24
HETATM   24  C   UNL     1      43.969 -18.382   4.424  1.00  0.00    -0.050 A 
HETATM   25  C   UNL     1      43.591 -18.197   3.087  1.00  0.00     0.007 A 
HETATM   26  C   UNL     1      43.420 -19.295   2.242  1.00  0.00     0.001 A 
HETATM   27  C   UNL     1      43.619 -20.587   2.726  1.00  0.00     0.000 A 
HETATM   28  C   UNL     1      43.983 -20.783   4.056  1.00  0.00     0.001 A 
HETATM   29  C   UNL     1      44.153 -19.687   4.904  1.00  0.00     0.007 A 
ENDBRANCH  23  24
ENDBRANCH  20  23
ENDBRANCH  18  19
ENDBRANCH   2  18
TORSDOF 6
ENDMDL
MODEL 6
REMARK VINA RESULT:      -8.1      4.368      5.969
REMARK  6 active torsions:
REMARK  status: ('A' for Active; 'I' for Inactive)
REMARK    1  A    between atoms: C_7  and  C_8 
REMARK    2  A    between atoms: N_9  and  N_10 
REMARK       I    between atoms: N_10  and  C_11 
REMARK    3  A    between atoms: C_11  and  C_12 
REMARK    4  A    between atoms: C_12  and  N_13 
REMARK       I    between atoms: N_13  and  C_14 
REMARK    5  A    between atoms: C_14  and  C_15 
REMARK    6  A    between atoms: C_15  and  C_16 
ROOT
HETATM    1  N   UNL     1      41.225 -14.277   2.217  1.00  0.00    -0.246 N 
HETATM    2  C   UNL     1      40.361 -14.394   1.144  1.00  0.00     0.255 C 
HETATM    3  O   UNL     1      39.886 -15.451   0.728  1.00  0.00    -0.270 OA
HETATM    4  H   UNL     1      41.416 -13.343   2.589  1.00  0.00     0.192 HD
ENDROOT
BRANCH   1   5
HETATM    5  N   UNL     1      41.549 -15.372   2.969  1.00  0.00    -0.184 NA
HETATM    6  C   UNL     1      42.810 -15.664   2.976  1.00  0.00     0.153 C 
BRANCH   6   7
HETATM    7  C   UNL     1      43.314 -16.753   3.791  1.00  0.00     0.018 A 
HETATM    8  C   UNL     1      43.724 -16.604   5.111  1.00  0.00     0.018 A 
HETATM    9  C   UNL     1      43.792 -15.401   5.980  1.00  0.00     0.069 C 
HETATM   10  N   UNL     1      44.103 -17.840   5.572  1.00  0.00    -0.358 N 
HETATM   11  H   UNL     1      44.445 -18.036   6.502  1.00  0.00     0.166 HD
HETATM   12  C   UNL     1      43.950 -18.792   4.594  1.00  0.00     0.043 A 
HETATM   13  C   UNL     1      43.468 -18.140   3.458  1.00  0.00     0.004 A 
HETATM   14  C   UNL     1      44.197 -20.170   4.636  1.00  0.00     0.030 A 
HETATM   15  C   UNL     1      43.227 -18.915   2.302  1.00  0.00     0.014 A 
HETATM   16  C   UNL     1      43.470 -20.295   2.326  1.00  0.00     0.001 A 
HETATM   17  C   UNL     1      43.945 -20.911   3.479  1.00  0.00     0.002 A 
ENDBRANCH   6   7
ENDBRANCH   1   5
BRANCH   2  18
HETATM   18  C   UNL     1      39.864 -13.047   0.604  1.00  0.00     0.227 C 
BRANCH  18  19
HETATM   19  N   UNL     1      39.960 -11.879   1.475  1.00  0.00    -0.352 N 
HETATM   20  C   UNL     1      40.836 -10.846   1.231  1.00  0.00     0.222 C 
HETATM   21  O   UNL     1      41.357 -10.685   0.129  1.00  0.00    -0.273 OA
HETATM   22  H   UNL     1      39.538 -11.956   2.391  1.00  0.00     0.162 HD
BRANCH  20  23
HETATM   23  C   UNL     1      41.083  -9.921   2.407  1.00  0.00     0.141 C 
BRANCH  23  24
HETATM   24  C   UNL     1      42.001 -10.505   3.447  1.00  0.00    -0.050 A 
HETATM   25  C   UNL     1      43.045 -11.365   3.077  1.00  0.00     0.007 A 
HETATM   26  C   UNL     1      43.909 -11.883   4.042  1.00  0.00     0.001 A 
HETATM   27  C   UNL     1      43.737 -11.554   5.384  1.00  0.00     0.000 A 
HETATM   28  C   UNL     1      42.695 -10.711   5.766  1.00  0.00     0.001 A 
HETATM   29  C   UNL     1      41.828 -10.191   4.803  1.00  0.00     0.007 A 
ENDBRANCH  23  24
ENDBRANCH  20  23
ENDBRANCH  18  19
ENDBRANCH   2  18
TORSDOF 6
ENDMDL
MODEL 7
REMARK VINA RESULT:      -8.0      1.725      2.409
REMARK  6 active torsions:
REMARK  status: ('A' for Active; 'I' for Inactive)
REMARK    1  A    between atoms: C_7  and  C_8 
REMARK    2  A    between atoms: N_9  and  N_10 
REMARK       I    between atoms: N_10  and  C_11 
REMARK    3  A    between atoms: C_11  and  C_12 
REMARK    4  A    between atoms: C_12  and  N_13 
REMARK       I    between atoms: N_13  and  C_14 
REMARK    5  A    between atoms: C_14  and  C_15 
REMARK    6  A    between atoms: C_15  and  C_16 
ROOT
HETATM    1  N   UNL     1      43.793 -12.684   7.319  1.00  0.00    -0.246 N 
HETATM    2  C   UNL     1      44.602 -11.567   7.231  1.00  0.00     0.255 C 
HETATM    3  O   UNL     1      45.158 -11.173   6.206  1.00  0.00    -0.270 OA
HETATM    4  H   UNL     1      43.240 -12.819   8.170  1.00  0.00     0.192 HD
ENDROOT
BRANCH   1   5
HETATM    5  N   UNL     1      43.477 -13.402   6.199  1.00  0.00    -0.184 NA
HETATM    6  C   UNL     1      42.215 -13.649   6.058  1.00  0.00     0.153 C 
BRANCH   6   7
HETATM    7  C   UNL     1      41.720 -14.335   4.879  1.00  0.00     0.018 A 
HETATM    8  C   UNL     1      40.623 -13.907   4.141  1.00  0.00     0.018 A 
HETATM    9  C   UNL     1      39.705 -12.756   4.338  1.00  0.00     0.069 C 
HETATM   10  N   UNL     1      40.469 -14.771   3.085  1.00  0.00    -0.358 N 
HETATM   11  H   UNL     1      39.751 -14.705   2.377  1.00  0.00     0.166 HD
HETATM   12  C   UNL     1      41.433 -15.747   3.111  1.00  0.00     0.043 A 
HETATM   13  C   UNL     1      42.229 -15.510   4.233  1.00  0.00     0.004 A 
HETATM   14  C   UNL     1      41.659 -16.810   2.227  1.00  0.00     0.030 A 
HETATM   15  C   UNL     1      43.304 -16.392   4.481  1.00  0.00     0.014 A 
HETATM   16  C   UNL     1      43.543 -17.461   3.608  1.00  0.00     0.001 A 
HETATM   17  C   UNL     1      42.732 -17.663   2.496  1.00  0.00     0.002 A 
ENDBRANCH   6   7
ENDBRANCH   1   5
BRANCH   2  18
HETATM   18  C   UNL     1      44.609 -10.709   8.503  1.00  0.00     0.227 C 
BRANCH  18  19
HETATM   19  N   UNL     1      43.680  -9.585   8.578  1.00  0.00    -0.352 N 
HETATM   20  C   UNL     1      44.106  -8.282   8.699  1.00  0.00     0.222 C 
HETATM   21  O   UNL     1      45.262  -7.951   8.440  1.00  0.00    -0.273 OA
HETATM   22  H   UNL     1      42.713  -9.802   8.779  1.00  0.00     0.162 HD
BRANCH  20  23
HETATM   23  C   UNL     1      43.044  -7.295   9.144  1.00  0.00     0.141 C 
BRANCH  23  24
HETATM   24  C   UNL     1      42.922  -7.180  10.640  1.00  0.00    -0.050 A 
HETATM   25  C   UNL     1      42.347  -6.043  11.224  1.00  0.00     0.007 A 
HETATM   26  C   UNL     1      42.214  -5.951  12.610  1.00  0.00     0.001 A 
HETATM   27  C   UNL     1      42.659  -6.990  13.426  1.00  0.00     0.000 A 
HETATM   28  C   UNL     1      43.244  -8.119  12.856  1.00  0.00     0.001 A 
HETATM   29  C   UNL     1      43.380  -8.213  11.470  1.00  0.00     0.007 A 
ENDBRANCH  23  24
ENDBRANCH  20  23
ENDBRANCH  18  19
ENDBRANCH   2  18
TORSDOF 6
ENDMDL
MODEL 8
REMARK VINA RESULT:      -7.7      2.648      3.373
REMARK  6 active torsions:
REMARK  status: ('A' for Active; 'I' for Inactive)
REMARK    1  A    between atoms: C_7  and  C_8 
REMARK    2  A    between atoms: N_9  and  N_10 
REMARK       I    between atoms: N_10  and  C_11 
REMARK    3  A    between atoms: C_11  and  C_12 
REMARK    4  A    between atoms: C_12  and  N_13 
REMARK       I    between atoms: N_13  and  C_14 
REMARK    5  A    between atoms: C_14  and  C_15 
REMARK    6  A    between atoms: C_15  and  C_16 
ROOT
HETATM    1  N   UNL     1      40.795 -13.266   6.583  1.00  0.00    -0.246 N 
HETATM    2  C   UNL     1      39.921 -12.520   5.814  1.00  0.00     0.255 C 
HETATM    3  O   UNL     1      39.479 -12.857   4.715  1.00  0.00    -0.270 OA
HETATM    4  H   UNL     1      40.958 -12.980   7.552  1.00  0.00     0.192 HD
ENDROOT
BRANCH   1   5
HETATM    5  N   UNL     1      41.168 -14.522   6.189  1.00  0.00    -0.184 NA
HETATM    6  C   UNL     1      42.432 -14.656   5.951  1.00  0.00     0.153 C 
BRANCH   6   7
HETATM    7  C   UNL     1      42.988 -15.949   5.598  1.00  0.00     0.018 A 
HETATM    8  C   UNL     1      43.596 -16.803   6.511  1.00  0.00     0.018 A 
HETATM    9  C   UNL     1      43.860 -16.646   7.965  1.00  0.00     0.069 C 
HETATM   10  N   UNL     1      43.966 -17.939   5.836  1.00  0.00    -0.358 N 
HETATM   11  H   UNL     1      44.430 -18.737   6.248  1.00  0.00     0.166 HD
HETATM   12  C   UNL     1      43.616 -17.854   4.511  1.00  0.00     0.043 A 
HETATM   13  C   UNL     1      43.010 -16.611   4.325  1.00  0.00     0.004 A 
HETATM   14  C   UNL     1      43.786 -18.783   3.476  1.00  0.00     0.030 A 
HETATM   15  C   UNL     1      42.557 -16.282   3.028  1.00  0.00     0.014 A 
HETATM   16  C   UNL     1      42.720 -17.198   1.982  1.00  0.00     0.001 A 
HETATM   17  C   UNL     1      43.324 -18.431   2.205  1.00  0.00     0.002 A 
ENDBRANCH   6   7
ENDBRANCH   1   5
BRANCH   2  18
HETATM   18  C   UNL     1      39.370 -11.283   6.534  1.00  0.00     0.227 C 
BRANCH  18  19
HETATM   19  N   UNL     1      40.278 -10.521   7.386  1.00  0.00    -0.352 N 
HETATM   20  C   UNL     1      39.830  -9.650   8.352  1.00  0.00     0.222 C 
HETATM   21  O   UNL     1      38.674  -9.686   8.770  1.00  0.00    -0.273 OA
HETATM   22  H   UNL     1      41.245 -10.469   7.092  1.00  0.00     0.162 HD
BRANCH  20  23
HETATM   23  C   UNL     1      40.868  -8.674   8.871  1.00  0.00     0.141 C 
BRANCH  23  24
HETATM   24  C   UNL     1      41.804  -9.275   9.885  1.00  0.00    -0.050 A 
HETATM   25  C   UNL     1      41.390  -9.474  11.209  1.00  0.00     0.007 A 
HETATM   26  C   UNL     1      42.252 -10.056  12.139  1.00  0.00     0.001 A 
HETATM   27  C   UNL     1      43.537 -10.438  11.758  1.00  0.00     0.000 A 
HETATM   28  C   UNL     1      43.963 -10.233  10.448  1.00  0.00     0.001 A 
HETATM   29  C   UNL     1      43.104  -9.650   9.515  1.00  0.00     0.007 A 
ENDBRANCH  23  24
ENDBRANCH  20  23
ENDBRANCH  18  19
ENDBRANCH   2  18
TORSDOF 6
ENDMDL
MODEL 9
REMARK VINA RESULT:      -7.7      1.971      2.584
REMARK  6 active torsions:
REMARK  status: ('A' for Active; 'I' for Inactive)
REMARK    1  A    between atoms: C_7  and  C_8 
REMARK    2  A    between atoms: N_9  and  N_10 
REMARK       I    between atoms: N_10  and  C_11 
REMARK    3  A    between atoms: C_11  and  C_12 
REMARK    4  A    between atoms: C_12  and  N_13 
REMARK       I    between atoms: N_13  and  C_14 
REMARK    5  A    between atoms: C_14  and  C_15 
REMARK    6  A    between atoms: C_15  and  C_16 
ROOT
HETATM    1  N   UNL     1      40.755 -12.590   6.293  1.00  0.00    -0.246 N 
HETATM    2  C   UNL     1      40.922 -11.220   6.221  1.00  0.00     0.255 C 
HETATM    3  O   UNL     1      41.669 -10.636   5.436  1.00  0.00    -0.270 OA
HETATM    4  H   UNL     1      39.982 -12.959   6.853  1.00  0.00     0.192 HD
ENDROOT
BRANCH   1   5
HETATM    5  N   UNL     1      41.376 -13.413   5.393  1.00  0.00    -0.184 NA
HETATM    6  C   UNL     1      40.784 -14.548   5.207  1.00  0.00     0.153 C 
BRANCH   6   7
HETATM    7  C   UNL     1      41.283 -15.492   4.225  1.00  0.00     0.018 A 
HETATM    8  C   UNL     1      40.823 -15.558   2.916  1.00  0.00     0.018 A 
HETATM    9  C   UNL     1      39.769 -14.782   2.212  1.00  0.00     0.069 C 
HETATM   10  N   UNL     1      41.539 -16.536   2.271  1.00  0.00    -0.358 N 
HETATM   11  H   UNL     1      41.422 -16.805   1.304  1.00  0.00     0.166 HD
HETATM   12  C   UNL     1      42.454 -17.109   3.120  1.00  0.00     0.043 A 
HETATM   13  C   UNL     1      42.310 -16.485   4.360  1.00  0.00     0.004 A 
HETATM   14  C   UNL     1      43.392 -18.121   2.880  1.00  0.00     0.030 A 
HETATM   15  C   UNL     1      43.151 -16.905   5.415  1.00  0.00     0.014 A 
HETATM   16  C   UNL     1      44.094 -17.916   5.192  1.00  0.00     0.001 A 
HETATM   17  C   UNL     1      44.212 -18.513   3.940  1.00  0.00     0.002 A 
ENDBRANCH   6   7
ENDBRANCH   1   5
BRANCH   2  18
HETATM   18  C   UNL     1      39.933 -10.433   7.091  1.00  0.00     0.227 C 
BRANCH  18  19
HETATM   19  N   UNL     1      40.407  -9.911   8.369  1.00  0.00    -0.352 N 
HETATM   20  C   UNL     1      40.798  -8.602   8.534  1.00  0.00     0.222 C 
HETATM   21  O   UNL     1      40.488  -7.727   7.728  1.00  0.00    -0.273 OA
HETATM   22  H   UNL     1      40.666 -10.590   9.073  1.00  0.00     0.162 HD
BRANCH  20  23
HETATM   23  C   UNL     1      41.609  -8.325   9.785  1.00  0.00     0.141 C 
BRANCH  23  24
HETATM   24  C   UNL     1      43.057  -8.719   9.660  1.00  0.00    -0.050 A 
HETATM   25  C   UNL     1      43.614  -9.673  10.523  1.00  0.00     0.007 A 
HETATM   26  C   UNL     1      44.950 -10.053  10.387  1.00  0.00     0.001 A 
HETATM   27  C   UNL     1      45.743  -9.481   9.394  1.00  0.00     0.000 A 
HETATM   28  C   UNL     1      45.202  -8.522   8.539  1.00  0.00     0.001 A 
HETATM   29  C   UNL     1      43.867  -8.139   8.674  1.00  0.00     0.007 A 
ENDBRANCH  23  24
ENDBRANCH  20  23
ENDBRANCH  18  19
ENDBRANCH   2  18
TORSDOF 6
ENDMDL
MODEL 10
REMARK VINA RESULT:      -7.6      2.174      9.319
REMARK  6 active torsions:
REMARK  status: ('A' for Active; 'I' for Inactive)
REMARK    1  A    between atoms: C_7  and  C_8 
REMARK    2  A    between atoms: N_9  and  N_10 
REMARK       I    between atoms: N_10  and  C_11 
REMARK    3  A    between atoms: C_11  and  C_12 
REMARK    4  A    between atoms: C_12  and  N_13 
REMARK       I    between atoms: N_13  and  C_14 
REMARK    5  A    between atoms: C_14  and  C_15 
REMARK    6  A    between atoms: C_15  and  C_16 
ROOT
HETATM    1  N   UNL     1      41.315 -11.740   4.852  1.00  0.00    -0.246 N 
HETATM    2  C   UNL     1      40.113 -12.382   5.083  1.00  0.00     0.255 C 
HETATM    3  O   UNL     1      39.440 -12.281   6.109  1.00  0.00    -0.270 OA
HETATM    4  H   UNL     1      41.699 -11.751   3.904  1.00  0.00     0.192 HD
ENDROOT
BRANCH   1   5
HETATM    5  N   UNL     1      41.809 -10.844   5.760  1.00  0.00    -0.184 NA
HETATM    6  C   UNL     1      42.693 -11.331   6.569  1.00  0.00     0.153 C 
BRANCH   6   7
HETATM    7  C   UNL     1      43.361 -10.481   7.537  1.00  0.00     0.018 A 
HETATM    8  C   UNL     1      44.742 -10.388   7.658  1.00  0.00     0.018 A 
HETATM    9  C   UNL     1      45.834 -11.086   6.930  1.00  0.00     0.069 C 
HETATM   10  N   UNL     1      45.014  -9.471   8.642  1.00  0.00    -0.358 N 
HETATM   11  H   UNL     1      45.938  -9.197   8.947  1.00  0.00     0.166 HD
HETATM   12  C   UNL     1      43.851  -8.960   9.165  1.00  0.00     0.043 A 
HETATM   13  C   UNL     1      42.793  -9.583   8.501  1.00  0.00     0.004 A 
HETATM   14  C   UNL     1      43.663  -7.997  10.165  1.00  0.00     0.030 A 
HETATM   15  C   UNL     1      41.477  -9.222   8.866  1.00  0.00     0.014 A 
HETATM   16  C   UNL     1      41.272  -8.261   9.864  1.00  0.00     0.001 A 
HETATM   17  C   UNL     1      42.351  -7.657  10.501  1.00  0.00     0.002 A 
ENDBRANCH   6   7
ENDBRANCH   1   5
BRANCH   2  18
HETATM   18  C   UNL     1      39.556 -13.108   3.851  1.00  0.00     0.227 C 
BRANCH  18  19
HETATM   19  N   UNL     1      39.992 -14.479   3.606  1.00  0.00    -0.352 N 
HETATM   20  C   UNL     1      41.120 -14.777   2.878  1.00  0.00     0.222 C 
HETATM   21  O   UNL     1      41.989 -13.935   2.656  1.00  0.00    -0.273 OA
HETATM   22  H   UNL     1      39.318 -15.212   3.782  1.00  0.00     0.162 HD
BRANCH  20  23
HETATM   23  C   UNL     1      41.218 -16.212   2.398  1.00  0.00     0.141 C 
BRANCH  23  24
HETATM   24  C   UNL     1      42.324 -16.991   3.057  1.00  0.00    -0.050 A 
HETATM   25  C   UNL     1      42.995 -18.007   2.363  1.00  0.00     0.007 A 
HETATM   26  C   UNL     1      44.037 -18.709   2.970  1.00  0.00     0.001 A 
HETATM   27  C   UNL     1      44.413 -18.409   4.277  1.00  0.00     0.000 A 
HETATM   28  C   UNL     1      43.744 -17.411   4.982  1.00  0.00     0.001 A 
HETATM   29  C   UNL     1      42.701 -16.707   4.378  1.00  0.00     0.007 A 
ENDBRANCH  23  24
ENDBRANCH  20  23
ENDBRANCH  18  19
ENDBRANCH   2  18
TORSDOF 6
ENDMDL
