MODEL 1
REMARK VINA RESULT:      -9.5      0.000      0.000
REMARK  6 active torsions:
REMARK  status: ('A' for Active; 'I' for Inactive)
REMARK    1  A    between atoms: C_2  and  O_3 
REMARK    2  A    between atoms: C_2  and  C_4 
REMARK    3  A    between atoms: C_6  and  N_7 
REMARK       I    between atoms: N_7  and  C_8 
REMARK    4  A    between atoms: C_8  and  C_9 
REMARK    5  A    between atoms: C_12  and  C_13 
REMARK    6  A    between atoms: C_18  and  C_19 
ROOT
HETATM    1  C   UNL     1      41.318 -13.891   3.623  1.00  0.00     0.096 C 
HETATM    2  C   UNL     1      42.054 -14.993   4.018  1.00  0.00     0.138 C 
HETATM    3  N   UNL     1      42.568 -14.676   5.256  1.00  0.00    -0.240 N 
HETATM    4  C   UNL     1      43.439 -15.540   6.033  1.00  0.00     0.221 C 
HETATM    5  C   UNL     1      43.428 -16.973   5.470  1.00  0.00     0.067 C 
HETATM    6  C   UNL     1      43.488 -16.952   3.937  1.00  0.00     0.125 C 
HETATM    7  N   UNL     1      42.332 -16.191   3.431  1.00  0.00    -0.365 N 
HETATM    8  N   UNL     1      42.369 -13.396   5.602  1.00  0.00    -0.181 NA
HETATM    9  C   UNL     1      41.582 -12.930   4.628  1.00  0.00     0.160 C 
HETATM   10  H   UNL     1      42.295 -16.233   2.409  1.00  0.00     0.162 HD
ENDROOT
BRANCH   1  11
HETATM   11  C   UNL     1      40.492 -13.696   2.442  1.00  0.00     0.261 C 
HETATM   12  N   UNL     1      41.222 -13.589   1.272  1.00  0.00    -0.323 N 
HETATM   13  H   UNL     1      42.218 -13.755   1.366  1.00  0.00     0.169 HD
HETATM   14  O   UNL     1      39.271 -13.680   2.536  1.00  0.00    -0.267 OA
BRANCH  12  15
HETATM   15  C   UNL     1      40.734 -13.397  -0.035  1.00  0.00     0.035 A 
HETATM   16  C   UNL     1      40.103 -14.392  -0.786  1.00  0.00     0.039 A 
HETATM   17  C   UNL     1      39.648 -14.139  -2.094  1.00  0.00    -0.028 A 
HETATM   18  C   UNL     1      39.846 -12.866  -2.644  1.00  0.00     0.010 A 
HETATM   19  C   UNL     1      40.460 -11.862  -1.897  1.00  0.00     0.003 A 
HETATM   20  C   UNL     1      40.898 -12.127  -0.599  1.00  0.00     0.029 A 
BRANCH  17  21
HETATM   21  C   UNL     1      38.996 -15.249  -2.891  1.00  0.00     0.147 C 
HETATM   22  C   UNL     1      37.895 -14.725  -3.802  1.00  0.00     0.044 C 
BRANCH  21  23
HETATM   23  O   UNL     1      38.443 -16.232  -2.017  1.00  0.00    -0.391 OA
HETATM   24  H   UNL     1      37.492 -16.041  -1.951  1.00  0.00     0.210 HD
ENDBRANCH  21  23
ENDBRANCH  17  21
ENDBRANCH  12  15
ENDBRANCH   1  11
BRANCH   4  25
HETATM   25  C   UNL     1      43.041 -15.567   7.493  1.00  0.00     0.409 C 
HETATM   26  F   UNL     1      43.268 -14.407   8.140  1.00  0.00    -0.169 F 
HETATM   27  F   UNL     1      41.742 -15.904   7.665  1.00  0.00    -0.169 F 
HETATM   28  F   UNL     1      43.773 -16.511   8.144  1.00  0.00    -0.169 F 
ENDBRANCH   4  25
BRANCH   6  29
HETATM   29  C   UNL     1      43.533 -18.360   3.396  1.00  0.00     0.005 A 
HETATM   30  S   UNL     1      44.148 -19.634   4.367  1.00  0.00    -0.104 SA
HETATM   31  C   UNL     1      43.863 -20.793   3.143  1.00  0.00     0.050 A 
HETATM   32  C   UNL     1      43.312 -20.228   2.015  1.00  0.00     0.008 A 
HETATM   33  C   UNL     1      43.125 -18.824   2.158  1.00  0.00     0.017 A 
ENDBRANCH   6  29
TORSDOF 6
ENDMDL
MODEL 2
REMARK VINA RESULT:      -9.0      1.134      1.994
REMARK  6 active torsions:
REMARK  status: ('A' for Active; 'I' for Inactive)
REMARK    1  A    between atoms: C_2  and  O_3 
REMARK    2  A    between atoms: C_2  and  C_4 
REMARK    3  A    between atoms: C_6  and  N_7 
REMARK       I    between atoms: N_7  and  C_8 
REMARK    4  A    between atoms: C_8  and  C_9 
REMARK    5  A    between atoms: C_12  and  C_13 
REMARK    6  A    between atoms: C_18  and  C_19 
ROOT
HETATM    1  C   UNL     1      41.177 -13.844   3.564  1.00  0.00     0.096 C 
HETATM    2  C   UNL     1      41.949 -14.919   3.963  1.00  0.00     0.138 C 
HETATM    3  N   UNL     1      42.493 -14.561   5.177  1.00  0.00    -0.240 N 
HETATM    4  C   UNL     1      43.406 -15.387   5.947  1.00  0.00     0.221 C 
HETATM    5  C   UNL     1      43.408 -16.834   5.421  1.00  0.00     0.067 C 
HETATM    6  C   UNL     1      43.420 -16.851   3.886  1.00  0.00     0.125 C 
HETATM    7  N   UNL     1      42.233 -16.126   3.397  1.00  0.00    -0.365 N 
HETATM    8  N   UNL     1      42.278 -13.277   5.496  1.00  0.00    -0.181 NA
HETATM    9  C   UNL     1      41.451 -12.852   4.536  1.00  0.00     0.160 C 
HETATM   10  H   UNL     1      42.166 -16.195   2.378  1.00  0.00     0.162 HD
ENDROOT
BRANCH   1  11
HETATM   11  C   UNL     1      40.312 -13.696   2.405  1.00  0.00     0.261 C 
HETATM   12  N   UNL     1      40.973 -13.853   1.201  1.00  0.00    -0.323 N 
HETATM   13  H   UNL     1      41.942 -14.144   1.273  1.00  0.00     0.169 HD
HETATM   14  O   UNL     1      39.113 -13.494   2.549  1.00  0.00    -0.267 OA
BRANCH  12  15
HETATM   15  C   UNL     1      40.433 -13.773  -0.098  1.00  0.00     0.035 A 
HETATM   16  C   UNL     1      40.546 -12.650  -0.921  1.00  0.00     0.039 A 
HETATM   17  C   UNL     1      39.972 -12.628  -2.206  1.00  0.00    -0.028 A 
HETATM   18  C   UNL     1      39.271 -13.756  -2.652  1.00  0.00     0.010 A 
HETATM   19  C   UNL     1      39.166 -14.886  -1.845  1.00  0.00     0.003 A 
HETATM   20  C   UNL     1      39.747 -14.895  -0.576  1.00  0.00     0.029 A 
BRANCH  17  21
HETATM   21  C   UNL     1      40.088 -11.383  -3.060  1.00  0.00     0.147 C 
HETATM   22  C   UNL     1      40.806 -10.256  -2.330  1.00  0.00     0.044 C 
BRANCH  21  23
HETATM   23  O   UNL     1      38.796 -10.927  -3.455  1.00  0.00    -0.391 OA
HETATM   24  H   UNL     1      38.774 -10.963  -4.426  1.00  0.00     0.210 HD
ENDBRANCH  21  23
ENDBRANCH  17  21
ENDBRANCH  12  15
ENDBRANCH   1  11
BRANCH   4  25
HETATM   25  C   UNL     1      43.053 -15.385   7.419  1.00  0.00     0.409 C 
HETATM   26  F   UNL     1      43.681 -16.344   8.129  1.00  0.00    -0.169 F 
HETATM   27  F   UNL     1      43.301 -14.191   8.004  1.00  0.00    -0.169 F 
HETATM   28  F   UNL     1      41.721 -15.618   7.566  1.00  0.00    -0.169 F 
ENDBRANCH   4  25
BRANCH   6  29
HETATM   29  C   UNL     1      43.479 -18.271   3.379  1.00  0.00     0.005 A 
HETATM   30  S   UNL     1      44.148 -19.507   4.362  1.00  0.00    -0.104 SA
HETATM   31  C   UNL     1      43.851 -20.702   3.177  1.00  0.00     0.050 A 
HETATM   32  C   UNL     1      43.256 -20.177   2.052  1.00  0.00     0.008 A 
HETATM   33  C   UNL     1      43.045 -18.774   2.166  1.00  0.00     0.017 A 
ENDBRANCH   6  29
TORSDOF 6
ENDMDL
MODEL 3
REMARK VINA RESULT:      -8.7      4.778      8.212
REMARK  6 active torsions:
REMARK  status: ('A' for Active; 'I' for Inactive)
REMARK    1  A    between atoms: C_2  and  O_3 
REMARK    2  A    between atoms: C_2  and  C_4 
REMARK    3  A    between atoms: C_6  and  N_7 
REMARK       I    between atoms: N_7  and  C_8 
REMARK    4  A    between atoms: C_8  and  C_9 
REMARK    5  A    between atoms: C_12  and  C_13 
REMARK    6  A    between atoms: C_18  and  C_19 
ROOT
HETATM    1  C   UNL     1      42.342 -12.813   5.095  1.00  0.00     0.096 C 
HETATM    2  C   UNL     1      42.170 -13.949   4.325  1.00  0.00     0.138 C 
HETATM    3  N   UNL     1      41.185 -13.638   3.413  1.00  0.00    -0.240 N 
HETATM    4  C   UNL     1      40.659 -14.560   2.422  1.00  0.00     0.221 C 
HETATM    5  C   UNL     1      41.572 -15.792   2.284  1.00  0.00     0.067 C 
HETATM    6  C   UNL     1      42.030 -16.282   3.664  1.00  0.00     0.125 C 
HETATM    7  N   UNL     1      42.744 -15.185   4.341  1.00  0.00    -0.365 N 
HETATM    8  N   UNL     1      40.589 -12.463   3.656  1.00  0.00    -0.181 NA
HETATM    9  C   UNL     1      41.313 -11.947   4.654  1.00  0.00     0.160 C 
HETATM   10  H   UNL     1      43.139 -15.508   5.228  1.00  0.00     0.162 HD
ENDROOT
BRANCH   1  11
HETATM   11  C   UNL     1      43.302 -12.541   6.152  1.00  0.00     0.261 C 
HETATM   12  N   UNL     1      43.342 -11.211   6.530  1.00  0.00    -0.323 N 
HETATM   13  H   UNL     1      42.641 -10.617   6.100  1.00  0.00     0.169 HD
HETATM   14  O   UNL     1      43.953 -13.452   6.648  1.00  0.00    -0.267 OA
BRANCH  12  15
HETATM   15  C   UNL     1      44.155 -10.618   7.516  1.00  0.00     0.035 A 
HETATM   16  C   UNL     1      43.704 -10.271   8.792  1.00  0.00     0.039 A 
HETATM   17  C   UNL     1      44.564  -9.668   9.729  1.00  0.00    -0.028 A 
HETATM   18  C   UNL     1      45.891  -9.409   9.360  1.00  0.00     0.010 A 
HETATM   19  C   UNL     1      46.354  -9.765   8.094  1.00  0.00     0.003 A 
HETATM   20  C   UNL     1      45.490 -10.370   7.179  1.00  0.00     0.029 A 
BRANCH  17  21
HETATM   21  C   UNL     1      44.035  -9.278  11.093  1.00  0.00     0.147 C 
HETATM   22  C   UNL     1      43.303 -10.427  11.770  1.00  0.00     0.044 C 
BRANCH  21  23
HETATM   23  O   UNL     1      43.148  -8.166  10.984  1.00  0.00    -0.391 OA
HETATM   24  H   UNL     1      42.952  -7.878  11.892  1.00  0.00     0.210 HD
ENDBRANCH  21  23
ENDBRANCH  17  21
ENDBRANCH  12  15
ENDBRANCH   1  11
BRANCH   4  25
HETATM   25  C   UNL     1      40.498 -13.896   1.071  1.00  0.00     0.409 C 
HETATM   26  F   UNL     1      41.492 -13.038   0.766  1.00  0.00    -0.169 F 
HETATM   27  F   UNL     1      40.389 -14.795   0.068  1.00  0.00    -0.169 F 
HETATM   28  F   UNL     1      39.352 -13.164   1.060  1.00  0.00    -0.169 F 
ENDBRANCH   4  25
BRANCH   6  29
HETATM   29  C   UNL     1      42.879 -17.523   3.523  1.00  0.00     0.005 A 
HETATM   30  S   UNL     1      43.782 -18.103   4.861  1.00  0.00    -0.104 SA
HETATM   31  C   UNL     1      44.393 -19.420   3.961  1.00  0.00     0.050 A 
HETATM   32  C   UNL     1      43.925 -19.424   2.666  1.00  0.00     0.008 A 
HETATM   33  C   UNL     1      43.054 -18.327   2.411  1.00  0.00     0.017 A 
ENDBRANCH   6  29
TORSDOF 6
ENDMDL
MODEL 4
REMARK VINA RESULT:      -8.4      5.094      8.235
REMARK  6 active torsions:
REMARK  status: ('A' for Active; 'I' for Inactive)
REMARK    1  A    between atoms: C_2  and  O_3 
REMARK    2  A    between atoms: C_2  and  C_4 
REMARK    3  A    between atoms: C_6  and  N_7 
REMARK       I    between atoms: N_7  and  C_8 
REMARK    4  A    between atoms: C_8  and  C_9 
REMARK    5  A    between atoms: C_12  and  C_13 
REMARK    6  A    between atoms: C_18  and  C_19 
ROOT
HETATM    1  C   UNL     1      42.637 -13.608   5.339  1.00  0.00     0.096 C 
HETATM    2  C   UNL     1      42.654 -12.389   5.992  1.00  0.00     0.138 C 
HETATM    3  N   UNL     1      41.834 -11.560   5.260  1.00  0.00    -0.240 N 
HETATM    4  C   UNL     1      41.587 -10.162   5.569  1.00  0.00     0.221 C 
HETATM    5  C   UNL     1      42.065  -9.826   6.993  1.00  0.00     0.067 C 
HETATM    6  C   UNL     1      43.427 -10.476   7.274  1.00  0.00     0.125 C 
HETATM    7  N   UNL     1      43.297 -11.935   7.104  1.00  0.00    -0.365 N 
HETATM    8  N   UNL     1      41.440 -12.094   4.095  1.00  0.00    -0.181 NA
HETATM    9  C   UNL     1      41.898 -13.348   4.159  1.00  0.00     0.160 C 
HETATM   10  H   UNL     1      44.166 -12.405   7.370  1.00  0.00     0.162 HD
ENDROOT
BRANCH   1  11
HETATM   11  C   UNL     1      43.254 -14.872   5.706  1.00  0.00     0.261 C 
HETATM   12  N   UNL     1      42.769 -15.950   4.990  1.00  0.00    -0.323 N 
HETATM   13  H   UNL     1      42.125 -15.719   4.242  1.00  0.00     0.169 HD
HETATM   14  O   UNL     1      44.143 -14.905   6.548  1.00  0.00    -0.267 OA
BRANCH  12  15
HETATM   15  C   UNL     1      43.151 -17.302   5.100  1.00  0.00     0.035 A 
HETATM   16  C   UNL     1      43.476 -18.111   4.009  1.00  0.00     0.039 A 
HETATM   17  C   UNL     1      43.838 -19.460   4.185  1.00  0.00    -0.028 A 
HETATM   18  C   UNL     1      43.860 -19.990   5.482  1.00  0.00     0.010 A 
HETATM   19  C   UNL     1      43.552 -19.187   6.578  1.00  0.00     0.003 A 
HETATM   20  C   UNL     1      43.203 -17.849   6.387  1.00  0.00     0.029 A 
BRANCH  17  21
HETATM   21  C   UNL     1      44.155 -20.317   2.978  1.00  0.00     0.147 C 
HETATM   22  C   UNL     1      43.147 -20.115   1.855  1.00  0.00     0.044 C 
BRANCH  21  23
HETATM   23  O   UNL     1      44.175 -21.697   3.337  1.00  0.00    -0.391 OA
HETATM   24  H   UNL     1      43.354 -22.086   2.991  1.00  0.00     0.210 HD
ENDBRANCH  21  23
ENDBRANCH  17  21
ENDBRANCH  12  15
ENDBRANCH   1  11
BRANCH   4  25
HETATM   25  C   UNL     1      40.122  -9.810   5.431  1.00  0.00     0.409 C 
HETATM   26  F   UNL     1      39.745  -8.753   6.178  1.00  0.00    -0.169 F 
HETATM   27  F   UNL     1      39.770  -9.572   4.147  1.00  0.00    -0.169 F 
HETATM   28  F   UNL     1      39.362 -10.858   5.851  1.00  0.00    -0.169 F 
ENDBRANCH   4  25
BRANCH   6  29
HETATM   29  C   UNL     1      43.914 -10.096   8.651  1.00  0.00     0.005 A 
HETATM   30  S   UNL     1      42.796  -9.582   9.846  1.00  0.00    -0.104 SA
HETATM   31  C   UNL     1      44.032  -9.376  11.008  1.00  0.00     0.050 A 
HETATM   32  C   UNL     1      45.274  -9.689  10.503  1.00  0.00     0.008 A 
HETATM   33  C   UNL     1      45.207 -10.101   9.141  1.00  0.00     0.017 A 
ENDBRANCH   6  29
TORSDOF 6
ENDMDL
MODEL 5
REMARK VINA RESULT:      -8.3      4.805      9.107
REMARK  6 active torsions:
REMARK  status: ('A' for Active; 'I' for Inactive)
REMARK    1  A    between atoms: C_2  and  O_3 
REMARK    2  A    between atoms: C_2  and  C_4 
REMARK    3  A    between atoms: C_6  and  N_7 
REMARK       I    between atoms: N_7  and  C_8 
REMARK    4  A    between atoms: C_8  and  C_9 
REMARK    5  A    between atoms: C_12  and  C_13 
REMARK    6  A    between atoms: C_18  and  C_19 
ROOT
HETATM    1  C   UNL     1      42.860 -13.060   3.755  1.00  0.00     0.096 C 
HETATM    2  C   UNL     1      42.131 -12.999   2.581  1.00  0.00     0.138 C 
HETATM    3  N   UNL     1      41.852 -14.305   2.245  1.00  0.00    -0.240 N 
HETATM    4  C   UNL     1      41.128 -14.713   1.053  1.00  0.00     0.221 C 
HETATM    5  C   UNL     1      40.416 -13.510   0.410  1.00  0.00     0.067 C 
HETATM    6  C   UNL     1      41.332 -12.278   0.403  1.00  0.00     0.125 C 
HETATM    7  N   UNL     1      41.715 -11.968   1.792  1.00  0.00    -0.365 N 
HETATM    8  N   UNL     1      42.497 -15.199   3.007  1.00  0.00    -0.181 NA
HETATM    9  C   UNL     1      43.080 -14.445   3.944  1.00  0.00     0.160 C 
HETATM   10  H   UNL     1      42.255 -11.100   1.830  1.00  0.00     0.162 HD
ENDROOT
BRANCH   1  11
HETATM   11  C   UNL     1      43.352 -11.987   4.604  1.00  0.00     0.261 C 
HETATM   12  N   UNL     1      43.868 -12.430   5.807  1.00  0.00    -0.323 N 
HETATM   13  H   UNL     1      43.930 -13.437   5.907  1.00  0.00     0.169 HD
HETATM   14  O   UNL     1      43.321 -10.826   4.215  1.00  0.00    -0.267 OA
BRANCH  12  15
HETATM   15  C   UNL     1      44.420 -11.656   6.847  1.00  0.00     0.035 A 
HETATM   16  C   UNL     1      43.755 -11.369   8.042  1.00  0.00     0.039 A 
HETATM   17  C   UNL     1      44.357 -10.578   9.038  1.00  0.00    -0.028 A 
HETATM   18  C   UNL     1      45.643 -10.070   8.812  1.00  0.00     0.010 A 
HETATM   19  C   UNL     1      46.320 -10.363   7.630  1.00  0.00     0.003 A 
HETATM   20  C   UNL     1      45.712 -11.155   6.655  1.00  0.00     0.029 A 
BRANCH  17  21
HETATM   21  C   UNL     1      43.597 -10.262  10.308  1.00  0.00     0.147 C 
HETATM   22  C   UNL     1      44.246  -9.132  11.095  1.00  0.00     0.044 C 
BRANCH  21  23
HETATM   23  O   UNL     1      43.516 -11.416  11.142  1.00  0.00    -0.391 OA
HETATM   24  H   UNL     1      43.171 -12.136  10.587  1.00  0.00     0.210 HD
ENDBRANCH  21  23
ENDBRANCH  17  21
ENDBRANCH  12  15
ENDBRANCH   1  11
BRANCH   4  25
HETATM   25  C   UNL     1      40.116 -15.796   1.358  1.00  0.00     0.409 C 
HETATM   26  F   UNL     1      39.305 -15.506   2.394  1.00  0.00    -0.169 F 
HETATM   27  F   UNL     1      39.348 -16.096   0.287  1.00  0.00    -0.169 F 
HETATM   28  F   UNL     1      40.768 -16.942   1.698  1.00  0.00    -0.169 F 
ENDBRANCH   4  25
BRANCH   6  29
HETATM   29  C   UNL     1      40.647 -11.120  -0.279  1.00  0.00     0.005 A 
HETATM   30  S   UNL     1      41.559  -9.760  -0.788  1.00  0.00    -0.104 SA
HETATM   31  C   UNL     1      40.174  -8.984  -1.419  1.00  0.00     0.050 A 
HETATM   32  C   UNL     1      39.035  -9.738  -1.248  1.00  0.00     0.008 A 
HETATM   33  C   UNL     1      39.306 -10.969  -0.586  1.00  0.00     0.017 A 
ENDBRANCH   6  29
TORSDOF 6
ENDMDL
MODEL 6
REMARK VINA RESULT:      -8.3      4.442      7.880
REMARK  6 active torsions:
REMARK  status: ('A' for Active; 'I' for Inactive)
REMARK    1  A    between atoms: C_2  and  O_3 
REMARK    2  A    between atoms: C_2  and  C_4 
REMARK    3  A    between atoms: C_6  and  N_7 
REMARK       I    between atoms: N_7  and  C_8 
REMARK    4  A    between atoms: C_8  and  C_9 
REMARK    5  A    between atoms: C_12  and  C_13 
REMARK    6  A    between atoms: C_18  and  C_19 
ROOT
HETATM    1  C   UNL     1      42.519 -13.086   2.262  1.00  0.00     0.096 C 
HETATM    2  C   UNL     1      41.550 -12.708   1.351  1.00  0.00     0.138 C 
HETATM    3  N   UNL     1      41.382 -11.351   1.523  1.00  0.00    -0.240 N 
HETATM    4  C   UNL     1      40.427 -10.539   0.789  1.00  0.00     0.221 C 
HETATM    5  C   UNL     1      39.888 -11.303  -0.434  1.00  0.00     0.067 C 
HETATM    6  C   UNL     1      39.578 -12.761  -0.067  1.00  0.00     0.125 C 
HETATM    7  N   UNL     1      40.812 -13.394   0.433  1.00  0.00    -0.365 N 
HETATM    8  N   UNL     1      42.030 -10.867   2.591  1.00  0.00    -0.181 NA
HETATM    9  C   UNL     1      42.747 -11.911   3.018  1.00  0.00     0.160 C 
HETATM   10  H   UNL     1      40.659 -14.391   0.603  1.00  0.00     0.162 HD
ENDROOT
BRANCH   1  11
HETATM   11  C   UNL     1      43.150 -14.379   2.469  1.00  0.00     0.261 C 
HETATM   12  N   UNL     1      42.782 -14.987   3.655  1.00  0.00    -0.323 N 
HETATM   13  H   UNL     1      42.056 -14.510   4.180  1.00  0.00     0.169 HD
HETATM   14  O   UNL     1      43.893 -14.849   1.617  1.00  0.00    -0.267 OA
BRANCH  12  15
HETATM   15  C   UNL     1      43.208 -16.233   4.155  1.00  0.00     0.035 A 
HETATM   16  C   UNL     1      43.393 -17.369   3.363  1.00  0.00     0.039 A 
HETATM   17  C   UNL     1      43.809 -18.590   3.926  1.00  0.00    -0.028 A 
HETATM   18  C   UNL     1      44.030 -18.656   5.308  1.00  0.00     0.010 A 
HETATM   19  C   UNL     1      43.862 -17.525   6.104  1.00  0.00     0.003 A 
HETATM   20  C   UNL     1      43.457 -16.320   5.529  1.00  0.00     0.029 A 
BRANCH  17  21
HETATM   21  C   UNL     1      43.972 -19.808   3.042  1.00  0.00     0.147 C 
HETATM   22  C   UNL     1      42.970 -19.819   1.896  1.00  0.00     0.044 C 
BRANCH  21  23
HETATM   23  O   UNL     1      43.811 -21.003   3.805  1.00  0.00    -0.391 OA
HETATM   24  H   UNL     1      43.638 -20.726   4.721  1.00  0.00     0.210 HD
ENDBRANCH  21  23
ENDBRANCH  17  21
ENDBRANCH  12  15
ENDBRANCH   1  11
BRANCH   4  25
HETATM   25  C   UNL     1      41.038  -9.230   0.338  1.00  0.00     0.409 C 
HETATM   26  F   UNL     1      40.405  -8.668  -0.711  1.00  0.00    -0.169 F 
HETATM   27  F   UNL     1      41.097  -8.321   1.337  1.00  0.00    -0.169 F 
HETATM   28  F   UNL     1      42.320  -9.444  -0.066  1.00  0.00    -0.169 F 
ENDBRANCH   4  25
BRANCH   6  29
HETATM   29  C   UNL     1      38.998 -13.487  -1.256  1.00  0.00     0.005 A 
HETATM   30  S   UNL     1      37.729 -12.774  -2.164  1.00  0.00    -0.104 SA
HETATM   31  C   UNL     1      37.663 -14.101  -3.239  1.00  0.00     0.050 A 
HETATM   32  C   UNL     1      38.585 -15.072  -2.918  1.00  0.00     0.008 A 
HETATM   33  C   UNL     1      39.353 -14.721  -1.772  1.00  0.00     0.017 A 
ENDBRANCH   6  29
TORSDOF 6
ENDMDL
MODEL 7
REMARK VINA RESULT:      -8.2      3.002      4.632
REMARK  6 active torsions:
REMARK  status: ('A' for Active; 'I' for Inactive)
REMARK    1  A    between atoms: C_2  and  O_3 
REMARK    2  A    between atoms: C_2  and  C_4 
REMARK    3  A    between atoms: C_6  and  N_7 
REMARK       I    between atoms: N_7  and  C_8 
REMARK    4  A    between atoms: C_8  and  C_9 
REMARK    5  A    between atoms: C_12  and  C_13 
REMARK    6  A    between atoms: C_18  and  C_19 
ROOT
HETATM    1  C   UNL     1      41.651 -14.538   3.672  1.00  0.00     0.096 C 
HETATM    2  C   UNL     1      42.374 -14.285   4.823  1.00  0.00     0.138 C 
HETATM    3  N   UNL     1      42.342 -15.455   5.550  1.00  0.00    -0.240 N 
HETATM    4  C   UNL     1      42.952 -15.631   6.856  1.00  0.00     0.221 C 
HETATM    5  C   UNL     1      43.924 -14.477   7.164  1.00  0.00     0.067 C 
HETATM    6  C   UNL     1      43.318 -13.132   6.741  1.00  0.00     0.125 C 
HETATM    7  N   UNL     1      43.018 -13.182   5.299  1.00  0.00    -0.365 N 
HETATM    8  N   UNL     1      41.508 -16.373   5.043  1.00  0.00    -0.181 NA
HETATM    9  C   UNL     1      41.116 -15.831   3.886  1.00  0.00     0.160 C 
HETATM   10  H   UNL     1      42.694 -12.270   4.968  1.00  0.00     0.162 HD
ENDROOT
BRANCH   1  11
HETATM   11  C   UNL     1      41.422 -13.693   2.511  1.00  0.00     0.261 C 
HETATM   12  N   UNL     1      40.175 -13.869   1.940  1.00  0.00    -0.323 N 
HETATM   13  H   UNL     1      39.547 -14.482   2.449  1.00  0.00     0.169 HD
HETATM   14  O   UNL     1      42.276 -12.894   2.149  1.00  0.00    -0.267 OA
BRANCH  12  15
HETATM   15  C   UNL     1      39.641 -13.212   0.814  1.00  0.00     0.035 A 
HETATM   16  C   UNL     1      39.802 -13.662  -0.499  1.00  0.00     0.039 A 
HETATM   17  C   UNL     1      39.253 -12.953  -1.584  1.00  0.00    -0.028 A 
HETATM   18  C   UNL     1      38.542 -11.773  -1.330  1.00  0.00     0.010 A 
HETATM   19  C   UNL     1      38.363 -11.325  -0.023  1.00  0.00     0.003 A 
HETATM   20  C   UNL     1      38.906 -12.044   1.043  1.00  0.00     0.029 A 
BRANCH  17  21
HETATM   21  C   UNL     1      39.472 -13.452  -2.997  1.00  0.00     0.147 C 
HETATM   22  C   UNL     1      38.550 -14.613  -3.341  1.00  0.00     0.044 C 
BRANCH  21  23
HETATM   23  O   UNL     1      40.825 -13.869  -3.174  1.00  0.00    -0.391 OA
HETATM   24  H   UNL     1      40.942 -14.034  -4.125  1.00  0.00     0.210 HD
ENDBRANCH  21  23
ENDBRANCH  17  21
ENDBRANCH  12  15
ENDBRANCH   1  11
BRANCH   4  25
HETATM   25  C   UNL     1      43.685 -16.950   6.958  1.00  0.00     0.409 C 
HETATM   26  F   UNL     1      42.870 -18.024   6.981  1.00  0.00    -0.169 F 
HETATM   27  F   UNL     1      44.582 -17.117   5.960  1.00  0.00    -0.169 F 
HETATM   28  F   UNL     1      44.390 -16.988   8.121  1.00  0.00    -0.169 F 
ENDBRANCH   4  25
BRANCH   6  29
HETATM   29  C   UNL     1      44.253 -12.002   7.097  1.00  0.00     0.005 A 
HETATM   30  S   UNL     1      43.841 -10.907   8.351  1.00  0.00    -0.104 SA
HETATM   31  C   UNL     1      45.293 -10.028   8.151  1.00  0.00     0.050 A 
HETATM   32  C   UNL     1      46.080 -10.551   7.150  1.00  0.00     0.008 A 
HETATM   33  C   UNL     1      45.479 -11.688   6.538  1.00  0.00     0.017 A 
ENDBRANCH   6  29
TORSDOF 6
ENDMDL
MODEL 8
REMARK VINA RESULT:      -8.2      4.886      8.052
REMARK  6 active torsions:
REMARK  status: ('A' for Active; 'I' for Inactive)
REMARK    1  A    between atoms: C_2  and  O_3 
REMARK    2  A    between atoms: C_2  and  C_4 
REMARK    3  A    between atoms: C_6  and  N_7 
REMARK       I    between atoms: N_7  and  C_8 
REMARK    4  A    between atoms: C_8  and  C_9 
REMARK    5  A    between atoms: C_12  and  C_13 
REMARK    6  A    between atoms: C_18  and  C_19 
ROOT
HETATM    1  C   UNL     1      41.778 -12.965   5.123  1.00  0.00     0.096 C 
HETATM    2  C   UNL     1      41.884 -11.880   5.973  1.00  0.00     0.138 C 
HETATM    3  N   UNL     1      40.836 -11.047   5.650  1.00  0.00    -0.240 N 
HETATM    4  C   UNL     1      40.582  -9.761   6.276  1.00  0.00     0.221 C 
HETATM    5  C   UNL     1      41.406  -9.611   7.568  1.00  0.00     0.067 C 
HETATM    6  C   UNL     1      42.837 -10.127   7.359  1.00  0.00     0.125 C 
HETATM    7  N   UNL     1      42.773 -11.542   6.950  1.00  0.00    -0.365 N 
HETATM    8  N   UNL     1      40.179 -11.424   4.545  1.00  0.00    -0.181 NA
HETATM    9  C   UNL     1      40.727 -12.606   4.246  1.00  0.00     0.160 C 
HETATM   10  H   UNL     1      43.713 -11.939   6.888  1.00  0.00     0.162 HD
ENDROOT
BRANCH   1  11
HETATM   11  C   UNL     1      42.563 -14.188   5.069  1.00  0.00     0.261 C 
HETATM   12  N   UNL     1      42.154 -15.061   4.079  1.00  0.00    -0.323 N 
HETATM   13  H   UNL     1      41.433 -14.708   3.460  1.00  0.00     0.169 HD
HETATM   14  O   UNL     1      43.511 -14.349   5.828  1.00  0.00    -0.267 OA
BRANCH  12  15
HETATM   15  C   UNL     1      42.697 -16.322   3.761  1.00  0.00     0.035 A 
HETATM   16  C   UNL     1      43.094 -17.262   4.715  1.00  0.00     0.039 A 
HETATM   17  C   UNL     1      43.642 -18.501   4.333  1.00  0.00    -0.028 A 
HETATM   18  C   UNL     1      43.794 -18.780   2.968  1.00  0.00     0.010 A 
HETATM   19  C   UNL     1      43.387 -17.855   2.009  1.00  0.00     0.003 A 
HETATM   20  C   UNL     1      42.838 -16.634   2.405  1.00  0.00     0.029 A 
BRANCH  17  21
HETATM   21  C   UNL     1      44.089 -19.485   5.393  1.00  0.00     0.147 C 
HETATM   22  C   UNL     1      43.968 -20.927   4.920  1.00  0.00     0.044 C 
BRANCH  21  23
HETATM   23  O   UNL     1      43.316 -19.323   6.582  1.00  0.00    -0.391 OA
HETATM   24  H   UNL     1      43.887 -18.868   7.224  1.00  0.00     0.210 HD
ENDBRANCH  21  23
ENDBRANCH  17  21
ENDBRANCH  12  15
ENDBRANCH   1  11
BRANCH   4  25
HETATM   25  C   UNL     1      39.113  -9.573   6.589  1.00  0.00     0.409 C 
HETATM   26  F   UNL     1      38.397  -9.079   5.560  1.00  0.00    -0.169 F 
HETATM   27  F   UNL     1      38.527 -10.718   7.006  1.00  0.00    -0.169 F 
HETATM   28  F   UNL     1      38.978  -8.678   7.606  1.00  0.00    -0.169 F 
ENDBRANCH   4  25
BRANCH   6  29
HETATM   29  C   UNL     1      43.653  -9.925   8.612  1.00  0.00     0.005 A 
HETATM   30  S   UNL     1      45.354 -10.150   8.576  1.00  0.00    -0.104 SA
HETATM   31  C   UNL     1      45.508  -9.751  10.230  1.00  0.00     0.050 A 
HETATM   32  C   UNL     1      44.294  -9.452  10.805  1.00  0.00     0.008 A 
HETATM   33  C   UNL     1      43.222  -9.557   9.874  1.00  0.00     0.017 A 
ENDBRANCH   6  29
TORSDOF 6
ENDMDL
MODEL 9
REMARK VINA RESULT:      -8.2      4.969      8.130
REMARK  6 active torsions:
REMARK  status: ('A' for Active; 'I' for Inactive)
REMARK    1  A    between atoms: C_2  and  O_3 
REMARK    2  A    between atoms: C_2  and  C_4 
REMARK    3  A    between atoms: C_6  and  N_7 
REMARK       I    between atoms: N_7  and  C_8 
REMARK    4  A    between atoms: C_8  and  C_9 
REMARK    5  A    between atoms: C_12  and  C_13 
REMARK    6  A    between atoms: C_18  and  C_19 
ROOT
HETATM    1  C   UNL     1      43.478 -12.119   6.034  1.00  0.00     0.096 C 
HETATM    2  C   UNL     1      43.033 -10.864   6.409  1.00  0.00     0.138 C 
HETATM    3  N   UNL     1      43.730 -10.546   7.554  1.00  0.00    -0.240 N 
HETATM    4  C   UNL     1      43.551  -9.321   8.314  1.00  0.00     0.221 C 
HETATM    5  C   UNL     1      42.757  -8.284   7.499  1.00  0.00     0.067 C 
HETATM    6  C   UNL     1      41.580  -8.952   6.774  1.00  0.00     0.125 C 
HETATM    7  N   UNL     1      42.107 -10.008   5.892  1.00  0.00    -0.365 N 
HETATM    8  N   UNL     1      44.448 -11.568   8.040  1.00  0.00    -0.181 NA
HETATM    9  C   UNL     1      44.323 -12.510   7.100  1.00  0.00     0.160 C 
HETATM   10  H   UNL     1      41.355 -10.413   5.329  1.00  0.00     0.162 HD
ENDROOT
BRANCH   1  11
HETATM   11  C   UNL     1      43.149 -12.912   4.861  1.00  0.00     0.261 C 
HETATM   12  N   UNL     1      43.012 -14.261   5.130  1.00  0.00    -0.323 N 
HETATM   13  H   UNL     1      43.060 -14.515   6.111  1.00  0.00     0.169 HD
HETATM   14  O   UNL     1      42.982 -12.371   3.775  1.00  0.00    -0.267 OA
BRANCH  12  15
HETATM   15  C   UNL     1      42.701 -15.295   4.224  1.00  0.00     0.035 A 
HETATM   16  C   UNL     1      43.487 -16.435   4.044  1.00  0.00     0.039 A 
HETATM   17  C   UNL     1      43.127 -17.428   3.113  1.00  0.00    -0.028 A 
HETATM   18  C   UNL     1      41.962 -17.252   2.354  1.00  0.00     0.010 A 
HETATM   19  C   UNL     1      41.163 -16.125   2.538  1.00  0.00     0.003 A 
HETATM   20  C   UNL     1      41.530 -15.154   3.471  1.00  0.00     0.029 A 
BRANCH  17  21
HETATM   21  C   UNL     1      44.018 -18.637   2.921  1.00  0.00     0.147 C 
HETATM   22  C   UNL     1      43.307 -19.755   2.173  1.00  0.00     0.044 C 
BRANCH  21  23
HETATM   23  O   UNL     1      44.462 -19.135   4.181  1.00  0.00    -0.391 OA
HETATM   24  H   UNL     1      44.861 -18.383   4.652  1.00  0.00     0.210 HD
ENDBRANCH  21  23
ENDBRANCH  17  21
ENDBRANCH  12  15
ENDBRANCH   1  11
BRANCH   4  25
HETATM   25  C   UNL     1      44.878  -8.726   8.734  1.00  0.00     0.409 C 
HETATM   26  F   UNL     1      45.327  -9.184   9.919  1.00  0.00    -0.169 F 
HETATM   27  F   UNL     1      45.843  -8.921   7.808  1.00  0.00    -0.169 F 
HETATM   28  F   UNL     1      44.745  -7.379   8.877  1.00  0.00    -0.169 F 
ENDBRANCH   4  25
BRANCH   6  29
HETATM   29  C   UNL     1      40.776  -7.919   6.023  1.00  0.00     0.005 A 
HETATM   30  S   UNL     1      39.173  -7.553   6.515  1.00  0.00    -0.104 SA
HETATM   31  C   UNL     1      38.989  -6.390   5.277  1.00  0.00     0.050 A 
HETATM   32  C   UNL     1      40.119  -6.278   4.500  1.00  0.00     0.008 A 
HETATM   33  C   UNL     1      41.149  -7.164   4.927  1.00  0.00     0.017 A 
ENDBRANCH   6  29
TORSDOF 6
ENDMDL
MODEL 10
REMARK VINA RESULT:      -8.2      4.604      7.900
REMARK  6 active torsions:
REMARK  status: ('A' for Active; 'I' for Inactive)
REMARK    1  A    between atoms: C_2  and  O_3 
REMARK    2  A    between atoms: C_2  and  C_4 
REMARK    3  A    between atoms: C_6  and  N_7 
REMARK       I    between atoms: N_7  and  C_8 
REMARK    4  A    between atoms: C_8  and  C_9 
REMARK    5  A    between atoms: C_12  and  C_13 
REMARK    6  A    between atoms: C_18  and  C_19 
ROOT
HETATM    1  C   UNL     1      39.930 -12.496   4.221  1.00  0.00     0.096 C 
HETATM    2  C   UNL     1      40.352 -13.586   3.483  1.00  0.00     0.138 C 
HETATM    3  N   UNL     1      39.758 -13.454   2.247  1.00  0.00    -0.240 N 
HETATM    4  C   UNL     1      39.900 -14.405   1.158  1.00  0.00     0.221 C 
HETATM    5  C   UNL     1      41.061 -15.378   1.431  1.00  0.00     0.067 C 
HETATM    6  C   UNL     1      41.047 -15.839   2.896  1.00  0.00     0.125 C 
HETATM    7  N   UNL     1      41.153 -14.653   3.764  1.00  0.00    -0.365 N 
HETATM    8  N   UNL     1      38.850 -12.469   2.196  1.00  0.00    -0.181 NA
HETATM    9  C   UNL     1      38.980 -11.867   3.382  1.00  0.00     0.160 C 
HETATM   10  H   UNL     1      41.235 -14.933   4.745  1.00  0.00     0.162 HD
ENDROOT
BRANCH   1  11
HETATM   11  C   UNL     1      40.304 -12.078   5.563  1.00  0.00     0.261 C 
HETATM   12  N   UNL     1      41.091 -10.942   5.586  1.00  0.00    -0.323 N 
HETATM   13  H   UNL     1      41.228 -10.491   4.688  1.00  0.00     0.169 HD
HETATM   14  O   UNL     1      39.893 -12.693   6.540  1.00  0.00    -0.267 OA
BRANCH  12  15
HETATM   15  C   UNL     1      41.621 -10.281   6.712  1.00  0.00     0.035 A 
HETATM   16  C   UNL     1      42.985 -10.214   7.006  1.00  0.00     0.039 A 
HETATM   17  C   UNL     1      43.450  -9.548   8.155  1.00  0.00    -0.028 A 
HETATM   18  C   UNL     1      42.517  -8.953   9.015  1.00  0.00     0.010 A 
HETATM   19  C   UNL     1      41.156  -9.002   8.723  1.00  0.00     0.003 A 
HETATM   20  C   UNL     1      40.711  -9.659   7.574  1.00  0.00     0.029 A 
BRANCH  17  21
HETATM   21  C   UNL     1      44.932  -9.520   8.460  1.00  0.00     0.147 C 
HETATM   22  C   UNL     1      45.231  -9.969   9.883  1.00  0.00     0.044 C 
BRANCH  21  23
HETATM   23  O   UNL     1      45.456  -8.206   8.272  1.00  0.00    -0.391 OA
HETATM   24  H   UNL     1      46.282  -8.161   8.782  1.00  0.00     0.210 HD
ENDBRANCH  21  23
ENDBRANCH  17  21
ENDBRANCH  12  15
ENDBRANCH   1  11
BRANCH   4  25
HETATM   25  C   UNL     1      40.125 -13.708  -0.166  1.00  0.00     0.409 C 
HETATM   26  F   UNL     1      40.973 -12.663  -0.093  1.00  0.00    -0.169 F 
HETATM   27  F   UNL     1      40.574 -14.554  -1.121  1.00  0.00    -0.169 F 
HETATM   28  F   UNL     1      38.945 -13.205  -0.620  1.00  0.00    -0.169 F 
ENDBRANCH   4  25
BRANCH   6  29
HETATM   29  C   UNL     1      42.154 -16.834   3.141  1.00  0.00     0.005 A 
HETATM   30  S   UNL     1      42.957 -16.871   4.656  1.00  0.00    -0.104 SA
HETATM   31  C   UNL     1      43.963 -18.163   4.166  1.00  0.00     0.050 A 
HETATM   32  C   UNL     1      43.700 -18.562   2.875  1.00  0.00     0.008 A 
HETATM   33  C   UNL     1      42.659 -17.793   2.281  1.00  0.00     0.017 A 
ENDBRANCH   6  29
TORSDOF 6
ENDMDL
