MODEL 1
REMARK VINA RESULT:      -9.1      0.000      0.000
REMARK  6 active torsions:
REMARK  status: ('A' for Active; 'I' for Inactive)
REMARK    1  A    between atoms: C_2  and  O_3 
REMARK    2  A    between atoms: C_2  and  C_4 
REMARK    3  A    between atoms: C_6  and  N_7 
REMARK       I    between atoms: N_7  and  C_8 
REMARK    4  A    between atoms: C_8  and  C_9 
REMARK    5  A    between atoms: C_12  and  C_13 
REMARK    6  A    between atoms: C_18  and  C_19 
ROOT
HETATM    1  C   UNL     1      42.297 -13.023   5.557  1.00  0.00     0.096 A 
HETATM    2  C   UNL     1      42.446 -13.638   4.327  1.00  0.00     0.138 A 
HETATM    3  N   UNL     1      41.174 -13.784   3.827  1.00  0.00    -0.240 N 
HETATM    4  C   UNL     1      40.852 -14.334   2.525  1.00  0.00     0.221 C 
HETATM    5  C   UNL     1      42.126 -14.474   1.668  1.00  0.00     0.066 C 
HETATM    6  C   UNL     1      43.363 -14.937   2.458  1.00  0.00     0.118 C 
HETATM    7  N   UNL     1      43.533 -14.072   3.634  1.00  0.00    -0.365 N 
HETATM    8  N   UNL     1      40.216 -13.309   4.638  1.00  0.00    -0.181 NA
HETATM    9  C   UNL     1      40.897 -12.895   5.711  1.00  0.00     0.160 A 
HETATM   10  H   UNL     1      44.404 -14.255   4.136  1.00  0.00     0.161 HD
ENDROOT
BRANCH   1  11
HETATM   11  C   UNL     1      43.316 -12.585   6.494  1.00  0.00     0.261 C 
HETATM   12  N   UNL     1      43.000 -11.385   7.106  1.00  0.00    -0.323 N 
HETATM   13  H   UNL     1      42.076 -11.025   6.896  1.00  0.00     0.169 HD
HETATM   14  O   UNL     1      44.297 -13.281   6.726  1.00  0.00    -0.267 OA
BRANCH  12  15
HETATM   15  C   UNL     1      43.733 -10.702   8.094  1.00  0.00     0.035 A 
HETATM   16  C   UNL     1      43.307 -10.557   9.417  1.00  0.00     0.039 A 
HETATM   17  C   UNL     1      44.086  -9.856  10.357  1.00  0.00    -0.028 A 
HETATM   18  C   UNL     1      45.304  -9.300   9.945  1.00  0.00     0.010 A 
HETATM   19  C   UNL     1      45.738  -9.442   8.629  1.00  0.00     0.003 A 
HETATM   20  C   UNL     1      44.960 -10.148   7.711  1.00  0.00     0.029 A 
BRANCH  17  21
HETATM   21  C   UNL     1      43.617  -9.759  11.794  1.00  0.00     0.147 C 
HETATM   22  C   UNL     1      43.309  -8.316  12.175  1.00  0.00     0.044 C 
BRANCH  21  23
HETATM   23  O   UNL     1      42.445 -10.550  11.984  1.00  0.00    -0.391 OA
HETATM   24  H   UNL     1      42.744 -11.437  12.243  1.00  0.00     0.210 HD
ENDBRANCH  21  23
ENDBRANCH  17  21
ENDBRANCH  12  15
ENDBRANCH   1  11
BRANCH   4  25
HETATM   25  C   UNL     1      40.061 -15.618   2.665  1.00  0.00     0.409 C 
HETATM   26  F   UNL     1      40.401 -16.359   3.734  1.00  0.00    -0.169 F 
HETATM   27  F   UNL     1      38.730 -15.390   2.734  1.00  0.00    -0.169 F 
HETATM   28  F   UNL     1      40.248 -16.397   1.565  1.00  0.00    -0.169 F 
ENDBRANCH   4  25
BRANCH   6  29
HETATM   29  C   UNL     1      43.400 -16.423   2.779  1.00  0.00    -0.035 A 
HETATM   30  C   UNL     1      43.713 -16.831   4.091  1.00  0.00     0.009 A 
HETATM   31  C   UNL     1      43.774 -18.184   4.432  1.00  0.00     0.001 A 
HETATM   32  C   UNL     1      43.511 -19.157   3.474  1.00  0.00     0.000 A 
HETATM   33  C   UNL     1      43.180 -18.778   2.177  1.00  0.00     0.001 A 
HETATM   34  C   UNL     1      43.121 -17.425   1.833  1.00  0.00     0.009 A 
ENDBRANCH   6  29
TORSDOF 6
ENDMDL
MODEL 2
REMARK VINA RESULT:      -8.9      4.389      8.294
REMARK  6 active torsions:
REMARK  status: ('A' for Active; 'I' for Inactive)
REMARK    1  A    between atoms: C_2  and  O_3 
REMARK    2  A    between atoms: C_2  and  C_4 
REMARK    3  A    between atoms: C_6  and  N_7 
REMARK       I    between atoms: N_7  and  C_8 
REMARK    4  A    between atoms: C_8  and  C_9 
REMARK    5  A    between atoms: C_12  and  C_13 
REMARK    6  A    between atoms: C_18  and  C_19 
ROOT
HETATM    1  C   UNL     1      40.625 -12.785   3.484  1.00  0.00     0.096 A 
HETATM    2  C   UNL     1      40.713 -13.872   4.334  1.00  0.00     0.138 A 
HETATM    3  N   UNL     1      41.397 -13.426   5.439  1.00  0.00    -0.240 N 
HETATM    4  C   UNL     1      41.674 -14.219   6.621  1.00  0.00     0.221 C 
HETATM    5  C   UNL     1      40.865 -15.531   6.592  1.00  0.00     0.066 C 
HETATM    6  C   UNL     1      40.760 -16.169   5.195  1.00  0.00     0.118 C 
HETATM    7  N   UNL     1      40.283 -15.159   4.241  1.00  0.00    -0.365 N 
HETATM    8  N   UNL     1      41.754 -12.134   5.370  1.00  0.00    -0.181 NA
HETATM    9  C   UNL     1      41.330 -11.761   4.159  1.00  0.00     0.160 A 
HETATM   10  H   UNL     1      40.082 -15.551   3.318  1.00  0.00     0.161 HD
ENDROOT
BRANCH   1  11
HETATM   11  C   UNL     1      39.961 -12.677   2.197  1.00  0.00     0.261 C 
HETATM   12  N   UNL     1      40.767 -13.070   1.144  1.00  0.00    -0.323 N 
HETATM   13  H   UNL     1      41.662 -13.464   1.411  1.00  0.00     0.169 HD
HETATM   14  O   UNL     1      38.787 -12.333   2.123  1.00  0.00    -0.267 OA
BRANCH  12  15
HETATM   15  C   UNL     1      40.431 -13.138  -0.221  1.00  0.00     0.035 A 
HETATM   16  C   UNL     1      39.498 -14.034  -0.749  1.00  0.00     0.039 A 
HETATM   17  C   UNL     1      39.210 -14.054  -2.126  1.00  0.00    -0.028 A 
HETATM   18  C   UNL     1      39.877 -13.156  -2.969  1.00  0.00     0.010 A 
HETATM   19  C   UNL     1      40.806 -12.257  -2.451  1.00  0.00     0.003 A 
HETATM   20  C   UNL     1      41.074 -12.242  -1.083  1.00  0.00     0.029 A 
BRANCH  17  21
HETATM   21  C   UNL     1      38.158 -15.006  -2.657  1.00  0.00     0.147 C 
HETATM   22  C   UNL     1      38.057 -14.922  -4.176  1.00  0.00     0.044 C 
BRANCH  21  23
HETATM   23  O   UNL     1      38.475 -16.347  -2.287  1.00  0.00    -0.391 OA
HETATM   24  H   UNL     1      39.391 -16.341  -1.966  1.00  0.00     0.210 HD
ENDBRANCH  21  23
ENDBRANCH  17  21
ENDBRANCH  12  15
ENDBRANCH   1  11
BRANCH   4  25
HETATM   25  C   UNL     1      43.165 -14.420   6.796  1.00  0.00     0.409 C 
HETATM   26  F   UNL     1      43.491 -15.489   7.544  1.00  0.00    -0.169 F 
HETATM   27  F   UNL     1      43.805 -14.542   5.611  1.00  0.00    -0.169 F 
HETATM   28  F   UNL     1      43.708 -13.329   7.402  1.00  0.00    -0.169 F 
ENDBRANCH   4  25
BRANCH   6  29
HETATM   29  C   UNL     1      42.004 -16.911   4.733  1.00  0.00    -0.035 A 
HETATM   30  C   UNL     1      42.395 -16.816   3.383  1.00  0.00     0.009 A 
HETATM   31  C   UNL     1      43.522 -17.491   2.907  1.00  0.00     0.001 A 
HETATM   32  C   UNL     1      44.290 -18.262   3.772  1.00  0.00     0.000 A 
HETATM   33  C   UNL     1      43.935 -18.355   5.114  1.00  0.00     0.001 A 
HETATM   34  C   UNL     1      42.807 -17.683   5.592  1.00  0.00     0.009 A 
ENDBRANCH   6  29
TORSDOF 6
ENDMDL
MODEL 3
REMARK VINA RESULT:      -8.7      4.382      8.251
REMARK  6 active torsions:
REMARK  status: ('A' for Active; 'I' for Inactive)
REMARK    1  A    between atoms: C_2  and  O_3 
REMARK    2  A    between atoms: C_2  and  C_4 
REMARK    3  A    between atoms: C_6  and  N_7 
REMARK       I    between atoms: N_7  and  C_8 
REMARK    4  A    between atoms: C_8  and  C_9 
REMARK    5  A    between atoms: C_12  and  C_13 
REMARK    6  A    between atoms: C_18  and  C_19 
ROOT
HETATM    1  C   UNL     1      40.399 -12.799   3.533  1.00  0.00     0.096 A 
HETATM    2  C   UNL     1      40.662 -13.857   4.384  1.00  0.00     0.138 A 
HETATM    3  N   UNL     1      41.544 -13.372   5.319  1.00  0.00    -0.240 N 
HETATM    4  C   UNL     1      42.054 -14.125   6.449  1.00  0.00     0.221 C 
HETATM    5  C   UNL     1      41.267 -15.439   6.621  1.00  0.00     0.066 C 
HETATM    6  C   UNL     1      40.896 -16.124   5.293  1.00  0.00     0.118 C 
HETATM    7  N   UNL     1      40.233 -15.147   4.418  1.00  0.00    -0.365 N 
HETATM    8  N   UNL     1      41.869 -12.083   5.140  1.00  0.00    -0.181 NA
HETATM    9  C   UNL     1      41.213 -11.752   4.024  1.00  0.00     0.160 A 
HETATM   10  H   UNL     1      39.859 -15.570   3.566  1.00  0.00     0.161 HD
ENDROOT
BRANCH   1  11
HETATM   11  C   UNL     1      39.495 -12.736   2.398  1.00  0.00     0.261 C 
HETATM   12  N   UNL     1      40.080 -13.171   1.223  1.00  0.00    -0.323 N 
HETATM   13  H   UNL     1      41.011 -13.559   1.324  1.00  0.00     0.169 HD
HETATM   14  O   UNL     1      38.329 -12.389   2.543  1.00  0.00    -0.267 OA
BRANCH  12  15
HETATM   15  C   UNL     1      39.483 -13.288  -0.046  1.00  0.00     0.035 A 
HETATM   16  C   UNL     1      38.727 -12.277  -0.645  1.00  0.00     0.039 A 
HETATM   17  C   UNL     1      38.152 -12.458  -1.917  1.00  0.00    -0.028 A 
HETATM   18  C   UNL     1      38.348 -13.677  -2.580  1.00  0.00     0.010 A 
HETATM   19  C   UNL     1      39.103 -14.689  -1.991  1.00  0.00     0.003 A 
HETATM   20  C   UNL     1      39.675 -14.491  -0.735  1.00  0.00     0.029 A 
BRANCH  17  21
HETATM   21  C   UNL     1      37.379 -11.325  -2.558  1.00  0.00     0.147 C 
HETATM   22  C   UNL     1      38.314 -10.364  -3.284  1.00  0.00     0.044 C 
BRANCH  21  23
HETATM   23  O   UNL     1      36.428 -11.839  -3.488  1.00  0.00    -0.391 OA
HETATM   24  H   UNL     1      36.361 -12.794  -3.322  1.00  0.00     0.210 HD
ENDBRANCH  21  23
ENDBRANCH  17  21
ENDBRANCH  12  15
ENDBRANCH   1  11
BRANCH   4  25
HETATM   25  C   UNL     1      43.552 -14.316   6.335  1.00  0.00     0.409 C 
HETATM   26  F   UNL     1      43.984 -14.537   5.081  1.00  0.00    -0.169 F 
HETATM   27  F   UNL     1      44.238 -13.257   6.822  1.00  0.00    -0.169 F 
HETATM   28  F   UNL     1      43.938 -15.385   7.084  1.00  0.00    -0.169 F 
ENDBRANCH   4  25
BRANCH   6  29
HETATM   29  C   UNL     1      42.032 -16.878   4.621  1.00  0.00    -0.035 A 
HETATM   30  C   UNL     1      42.876 -17.686   5.408  1.00  0.00     0.009 A 
HETATM   31  C   UNL     1      43.943 -18.388   4.840  1.00  0.00     0.001 A 
HETATM   32  C   UNL     1      44.180 -18.307   3.473  1.00  0.00     0.000 A 
HETATM   33  C   UNL     1      43.348 -17.531   2.672  1.00  0.00     0.001 A 
HETATM   34  C   UNL     1      42.283 -16.827   3.239  1.00  0.00     0.009 A 
ENDBRANCH   6  29
TORSDOF 6
ENDMDL
MODEL 4
REMARK VINA RESULT:      -8.3      1.876      3.336
REMARK  6 active torsions:
REMARK  status: ('A' for Active; 'I' for Inactive)
REMARK    1  A    between atoms: C_2  and  O_3 
REMARK    2  A    between atoms: C_2  and  C_4 
REMARK    3  A    between atoms: C_6  and  N_7 
REMARK       I    between atoms: N_7  and  C_8 
REMARK    4  A    between atoms: C_8  and  C_9 
REMARK    5  A    between atoms: C_12  and  C_13 
REMARK    6  A    between atoms: C_18  and  C_19 
ROOT
HETATM    1  C   UNL     1      43.142 -13.591   6.234  1.00  0.00     0.096 A 
HETATM    2  C   UNL     1      42.189 -14.356   5.588  1.00  0.00     0.138 A 
HETATM    3  N   UNL     1      42.765 -15.589   5.399  1.00  0.00    -0.240 N 
HETATM    4  C   UNL     1      42.103 -16.733   4.804  1.00  0.00     0.221 C 
HETATM    5  C   UNL     1      40.590 -16.471   4.669  1.00  0.00     0.066 C 
HETATM    6  C   UNL     1      40.240 -15.029   4.258  1.00  0.00     0.118 C 
HETATM    7  N   UNL     1      40.925 -14.093   5.160  1.00  0.00    -0.365 N 
HETATM    8  N   UNL     1      44.017 -15.680   5.875  1.00  0.00    -0.181 NA
HETATM    9  C   UNL     1      44.263 -14.449   6.334  1.00  0.00     0.160 A 
HETATM   10  H   UNL     1      40.641 -13.122   5.011  1.00  0.00     0.161 HD
ENDROOT
BRANCH   1  11
HETATM   11  C   UNL     1      43.049 -12.226   6.723  1.00  0.00     0.261 C 
HETATM   12  N   UNL     1      44.051 -11.910   7.622  1.00  0.00    -0.323 N 
HETATM   13  H   UNL     1      44.759 -12.625   7.747  1.00  0.00     0.169 HD
HETATM   14  O   UNL     1      42.192 -11.463   6.294  1.00  0.00    -0.267 OA
BRANCH  12  15
HETATM   15  C   UNL     1      44.289 -10.673   8.249  1.00  0.00     0.035 A 
HETATM   16  C   UNL     1      43.450 -10.119   9.219  1.00  0.00     0.039 A 
HETATM   17  C   UNL     1      43.742  -8.873   9.805  1.00  0.00    -0.028 A 
HETATM   18  C   UNL     1      44.895  -8.189   9.399  1.00  0.00     0.010 A 
HETATM   19  C   UNL     1      45.739  -8.735   8.435  1.00  0.00     0.003 A 
HETATM   20  C   UNL     1      45.442  -9.975   7.871  1.00  0.00     0.029 A 
BRANCH  17  21
HETATM   21  C   UNL     1      42.836  -8.324  10.888  1.00  0.00     0.147 C 
HETATM   22  C   UNL     1      43.336  -8.717  12.274  1.00  0.00     0.044 C 
BRANCH  21  23
HETATM   23  O   UNL     1      42.771  -6.902  10.803  1.00  0.00    -0.391 OA
HETATM   24  H   UNL     1      43.622  -6.603  10.443  1.00  0.00     0.210 HD
ENDBRANCH  21  23
ENDBRANCH  17  21
ENDBRANCH  12  15
ENDBRANCH   1  11
BRANCH   4  25
HETATM   25  C   UNL     1      42.776 -17.130   3.507  1.00  0.00     0.409 C 
HETATM   26  F   UNL     1      41.946 -17.683   2.605  1.00  0.00    -0.169 F 
HETATM   27  F   UNL     1      43.387 -16.082   2.910  1.00  0.00    -0.169 F 
HETATM   28  F   UNL     1      43.757 -18.039   3.756  1.00  0.00    -0.169 F 
ENDBRANCH   4  25
BRANCH   6  29
HETATM   29  C   UNL     1      40.438 -14.717   2.783  1.00  0.00    -0.035 A 
HETATM   30  C   UNL     1      41.244 -13.620   2.419  1.00  0.00     0.009 A 
HETATM   31  C   UNL     1      41.446 -13.284   1.078  1.00  0.00     0.001 A 
HETATM   32  C   UNL     1      40.858 -14.044   0.073  1.00  0.00     0.000 A 
HETATM   33  C   UNL     1      40.074 -15.144   0.408  1.00  0.00     0.001 A 
HETATM   34  C   UNL     1      39.869 -15.480   1.749  1.00  0.00     0.009 A 
ENDBRANCH   6  29
TORSDOF 6
ENDMDL
MODEL 5
REMARK VINA RESULT:      -8.2      5.077      7.672
REMARK  6 active torsions:
REMARK  status: ('A' for Active; 'I' for Inactive)
REMARK    1  A    between atoms: C_2  and  O_3 
REMARK    2  A    between atoms: C_2  and  C_4 
REMARK    3  A    between atoms: C_6  and  N_7 
REMARK       I    between atoms: N_7  and  C_8 
REMARK    4  A    between atoms: C_8  and  C_9 
REMARK    5  A    between atoms: C_12  and  C_13 
REMARK    6  A    between atoms: C_18  and  C_19 
ROOT
HETATM    1  C   UNL     1      41.376 -13.013   2.516  1.00  0.00     0.096 A 
HETATM    2  C   UNL     1      41.055 -12.403   1.317  1.00  0.00     0.138 A 
HETATM    3  N   UNL     1      39.979 -11.592   1.588  1.00  0.00    -0.240 N 
HETATM    4  C   UNL     1      39.340 -10.713   0.628  1.00  0.00     0.221 C 
HETATM    5  C   UNL     1      40.193 -10.597  -0.650  1.00  0.00     0.066 C 
HETATM    6  C   UNL     1      40.857 -11.918  -1.080  1.00  0.00     0.118 C 
HETATM    7  N   UNL     1      41.581 -12.486   0.065  1.00  0.00    -0.365 N 
HETATM    8  N   UNL     1      39.581 -11.630   2.869  1.00  0.00    -0.181 NA
HETATM    9  C   UNL     1      40.398 -12.533   3.419  1.00  0.00     0.160 A 
HETATM   10  H   UNL     1      42.139 -13.304  -0.187  1.00  0.00     0.161 HD
ENDROOT
BRANCH   1  11
HETATM   11  C   UNL     1      42.462 -13.927   2.819  1.00  0.00     0.261 C 
HETATM   12  N   UNL     1      42.035 -15.065   3.480  1.00  0.00    -0.323 N 
HETATM   13  H   UNL     1      41.030 -15.154   3.579  1.00  0.00     0.169 HD
HETATM   14  O   UNL     1      43.605 -13.692   2.444  1.00  0.00    -0.267 OA
BRANCH  12  15
HETATM   15  C   UNL     1      42.807 -16.171   3.880  1.00  0.00     0.035 A 
HETATM   16  C   UNL     1      42.904 -17.357   3.147  1.00  0.00     0.039 A 
HETATM   17  C   UNL     1      43.691 -18.431   3.604  1.00  0.00    -0.028 A 
HETATM   18  C   UNL     1      44.383 -18.294   4.815  1.00  0.00     0.010 A 
HETATM   19  C   UNL     1      44.295 -17.114   5.550  1.00  0.00     0.003 A 
HETATM   20  C   UNL     1      43.519 -16.055   5.079  1.00  0.00     0.029 A 
BRANCH  17  21
HETATM   21  C   UNL     1      43.811 -19.683   2.761  1.00  0.00     0.147 C 
HETATM   22  C   UNL     1      43.871 -20.931   3.636  1.00  0.00     0.044 C 
BRANCH  21  23
HETATM   23  O   UNL     1      42.698 -19.790   1.876  1.00  0.00    -0.391 OA
HETATM   24  H   UNL     1      42.243 -18.932   1.891  1.00  0.00     0.210 HD
ENDBRANCH  21  23
ENDBRANCH  17  21
ENDBRANCH  12  15
ENDBRANCH   1  11
BRANCH   4  25
HETATM   25  C   UNL     1      37.909 -11.143   0.375  1.00  0.00     0.409 C 
HETATM   26  F   UNL     1      37.424 -10.760  -0.819  1.00  0.00    -0.169 F 
HETATM   27  F   UNL     1      37.757 -12.484   0.465  1.00  0.00    -0.169 F 
HETATM   28  F   UNL     1      37.094 -10.611   1.326  1.00  0.00    -0.169 F 
ENDBRANCH   4  25
BRANCH   6  29
HETATM   29  C   UNL     1      39.931 -12.905  -1.773  1.00  0.00    -0.035 A 
HETATM   30  C   UNL     1      39.904 -14.243  -1.330  1.00  0.00     0.009 A 
HETATM   31  C   UNL     1      39.081 -15.191  -1.943  1.00  0.00     0.001 A 
HETATM   32  C   UNL     1      38.259 -14.821  -3.001  1.00  0.00     0.000 A 
HETATM   33  C   UNL     1      38.254 -13.501  -3.443  1.00  0.00     0.001 A 
HETATM   34  C   UNL     1      39.078 -12.552  -2.833  1.00  0.00     0.009 A 
ENDBRANCH   6  29
TORSDOF 6
ENDMDL
MODEL 6
REMARK VINA RESULT:      -8.2      2.193      2.852
REMARK  6 active torsions:
REMARK  status: ('A' for Active; 'I' for Inactive)
REMARK    1  A    between atoms: C_2  and  O_3 
REMARK    2  A    between atoms: C_2  and  C_4 
REMARK    3  A    between atoms: C_6  and  N_7 
REMARK       I    between atoms: N_7  and  C_8 
REMARK    4  A    between atoms: C_8  and  C_9 
REMARK    5  A    between atoms: C_12  and  C_13 
REMARK    6  A    between atoms: C_18  and  C_19 
ROOT
HETATM    1  C   UNL     1      40.986 -11.875   3.529  1.00  0.00     0.096 A 
HETATM    2  C   UNL     1      41.733 -12.954   3.093  1.00  0.00     0.138 A 
HETATM    3  N   UNL     1      40.901 -13.677   2.273  1.00  0.00    -0.240 N 
HETATM    4  C   UNL     1      41.286 -14.870   1.544  1.00  0.00     0.221 C 
HETATM    5  C   UNL     1      42.814 -15.061   1.588  1.00  0.00     0.066 C 
HETATM    6  C   UNL     1      43.450 -14.701   2.943  1.00  0.00     0.118 C 
HETATM    7  N   UNL     1      43.009 -13.356   3.338  1.00  0.00    -0.365 N 
HETATM    8  N   UNL     1      39.675 -13.147   2.142  1.00  0.00    -0.181 NA
HETATM    9  C   UNL     1      39.712 -12.081   2.948  1.00  0.00     0.160 A 
HETATM   10  H   UNL     1      43.488 -13.013   4.173  1.00  0.00     0.161 HD
ENDROOT
BRANCH   1  11
HETATM   11  C   UNL     1      41.383 -10.764   4.375  1.00  0.00     0.261 C 
HETATM   12  N   UNL     1      41.491 -11.118   5.708  1.00  0.00    -0.323 N 
HETATM   13  H   UNL     1      41.375 -12.106   5.902  1.00  0.00     0.169 HD
HETATM   14  O   UNL     1      41.646  -9.669   3.891  1.00  0.00    -0.267 OA
BRANCH  12  15
HETATM   15  C   UNL     1      41.897 -10.308   6.785  1.00  0.00     0.035 A 
HETATM   16  C   UNL     1      43.225 -10.175   7.200  1.00  0.00     0.039 A 
HETATM   17  C   UNL     1      43.566  -9.351   8.290  1.00  0.00    -0.028 A 
HETATM   18  C   UNL     1      42.547  -8.661   8.959  1.00  0.00     0.010 A 
HETATM   19  C   UNL     1      41.221  -8.785   8.550  1.00  0.00     0.003 A 
HETATM   20  C   UNL     1      40.900  -9.597   7.462  1.00  0.00     0.029 A 
BRANCH  17  21
HETATM   21  C   UNL     1      45.019  -9.193   8.682  1.00  0.00     0.147 C 
HETATM   22  C   UNL     1      45.893 -10.229   7.984  1.00  0.00     0.044 C 
BRANCH  21  23
HETATM   23  O   UNL     1      45.483  -7.888   8.341  1.00  0.00    -0.391 OA
HETATM   24  H   UNL     1      45.592  -7.401   9.174  1.00  0.00     0.210 HD
ENDBRANCH  21  23
ENDBRANCH  17  21
ENDBRANCH  12  15
ENDBRANCH   1  11
BRANCH   4  25
HETATM   25  C   UNL     1      40.502 -16.072   2.028  1.00  0.00     0.409 C 
HETATM   26  F   UNL     1      40.054 -15.963   3.291  1.00  0.00    -0.169 F 
HETATM   27  F   UNL     1      39.435 -16.334   1.239  1.00  0.00    -0.169 F 
HETATM   28  F   UNL     1      41.284 -17.183   1.977  1.00  0.00    -0.169 F 
ENDBRANCH   4  25
BRANCH   6  29
HETATM   29  C   UNL     1      43.274 -15.748   4.032  1.00  0.00    -0.035 A 
HETATM   30  C   UNL     1      42.582 -15.401   5.209  1.00  0.00     0.009 A 
HETATM   31  C   UNL     1      42.407 -16.323   6.244  1.00  0.00     0.001 A 
HETATM   32  C   UNL     1      42.908 -17.614   6.119  1.00  0.00     0.000 A 
HETATM   33  C   UNL     1      43.578 -17.986   4.958  1.00  0.00     0.001 A 
HETATM   34  C   UNL     1      43.756 -17.065   3.922  1.00  0.00     0.009 A 
ENDBRANCH   6  29
TORSDOF 6
ENDMDL
MODEL 7
REMARK VINA RESULT:      -8.1      4.126      9.541
REMARK  6 active torsions:
REMARK  status: ('A' for Active; 'I' for Inactive)
REMARK    1  A    between atoms: C_2  and  O_3 
REMARK    2  A    between atoms: C_2  and  C_4 
REMARK    3  A    between atoms: C_6  and  N_7 
REMARK       I    between atoms: N_7  and  C_8 
REMARK    4  A    between atoms: C_8  and  C_9 
REMARK    5  A    between atoms: C_12  and  C_13 
REMARK    6  A    between atoms: C_18  and  C_19 
ROOT
HETATM    1  C   UNL     1      42.858 -11.570   6.612  1.00  0.00     0.096 A 
HETATM    2  C   UNL     1      42.952 -10.370   7.293  1.00  0.00     0.138 A 
HETATM    3  N   UNL     1      44.081 -10.470   8.070  1.00  0.00    -0.240 N 
HETATM    4  C   UNL     1      44.603  -9.414   8.916  1.00  0.00     0.221 C 
HETATM    5  C   UNL     1      43.890  -8.081   8.617  1.00  0.00     0.066 C 
HETATM    6  C   UNL     1      42.383  -8.226   8.341  1.00  0.00     0.118 C 
HETATM    7  N   UNL     1      42.180  -9.251   7.308  1.00  0.00    -0.365 N 
HETATM    8  N   UNL     1      44.725 -11.641   7.942  1.00  0.00    -0.181 NA
HETATM    9  C   UNL     1      43.951 -12.327   7.096  1.00  0.00     0.160 A 
HETATM   10  H   UNL     1      41.208  -9.312   6.998  1.00  0.00     0.161 HD
ENDROOT
BRANCH   1  11
HETATM   11  C   UNL     1      41.887 -11.988   5.616  1.00  0.00     0.261 C 
HETATM   12  N   UNL     1      42.236 -13.172   4.993  1.00  0.00    -0.323 N 
HETATM   13  H   UNL     1      43.056 -13.633   5.371  1.00  0.00     0.169 HD
HETATM   14  O   UNL     1      40.855 -11.352   5.441  1.00  0.00    -0.267 OA
BRANCH  12  15
HETATM   15  C   UNL     1      41.507 -13.883   4.021  1.00  0.00     0.035 A 
HETATM   16  C   UNL     1      41.112 -13.342   2.795  1.00  0.00     0.039 A 
HETATM   17  C   UNL     1      40.379 -14.105   1.867  1.00  0.00    -0.028 A 
HETATM   18  C   UNL     1      40.046 -15.427   2.192  1.00  0.00     0.010 A 
HETATM   19  C   UNL     1      40.438 -15.975   3.411  1.00  0.00     0.003 A 
HETATM   20  C   UNL     1      41.173 -15.210   4.316  1.00  0.00     0.029 A 
BRANCH  17  21
HETATM   21  C   UNL     1      40.010 -13.502   0.528  1.00  0.00     0.147 C 
HETATM   22  C   UNL     1      39.832 -14.584  -0.532  1.00  0.00     0.044 C 
BRANCH  21  23
HETATM   23  O   UNL     1      38.798 -12.759   0.639  1.00  0.00    -0.391 OA
HETATM   24  H   UNL     1      39.045 -11.852   0.886  1.00  0.00     0.210 HD
ENDBRANCH  21  23
ENDBRANCH  17  21
ENDBRANCH  12  15
ENDBRANCH   1  11
BRANCH   4  25
HETATM   25  C   UNL     1      44.558  -9.822  10.374  1.00  0.00     0.409 C 
HETATM   26  F   UNL     1      44.458  -8.789  11.230  1.00  0.00    -0.169 F 
HETATM   27  F   UNL     1      43.534 -10.666  10.635  1.00  0.00    -0.169 F 
HETATM   28  F   UNL     1      45.692 -10.500  10.698  1.00  0.00    -0.169 F 
ENDBRANCH   4  25
BRANCH   6  29
HETATM   29  C   UNL     1      41.521  -8.423   9.578  1.00  0.00    -0.035 A 
HETATM   30  C   UNL     1      41.643  -7.515  10.648  1.00  0.00     0.009 A 
HETATM   31  C   UNL     1      40.884  -7.661  11.812  1.00  0.00     0.001 A 
HETATM   32  C   UNL     1      39.978  -8.710  11.926  1.00  0.00     0.000 A 
HETATM   33  C   UNL     1      39.826  -9.608  10.874  1.00  0.00     0.001 A 
HETATM   34  C   UNL     1      40.586  -9.465   9.711  1.00  0.00     0.009 A 
ENDBRANCH   6  29
TORSDOF 6
ENDMDL
MODEL 8
REMARK VINA RESULT:      -7.9     16.694     18.797
REMARK  6 active torsions:
REMARK  status: ('A' for Active; 'I' for Inactive)
REMARK    1  A    between atoms: C_2  and  O_3 
REMARK    2  A    between atoms: C_2  and  C_4 
REMARK    3  A    between atoms: C_6  and  N_7 
REMARK       I    between atoms: N_7  and  C_8 
REMARK    4  A    between atoms: C_8  and  C_9 
REMARK    5  A    between atoms: C_12  and  C_13 
REMARK    6  A    between atoms: C_18  and  C_19 
ROOT
HETATM    1  C   UNL     1      43.786 -30.228   0.769  1.00  0.00     0.096 A 
HETATM    2  C   UNL     1      44.948 -29.522   1.017  1.00  0.00     0.138 A 
HETATM    3  N   UNL     1      45.768 -29.763  -0.059  1.00  0.00    -0.240 N 
HETATM    4  C   UNL     1      47.079 -29.175  -0.252  1.00  0.00     0.221 C 
HETATM    5  C   UNL     1      47.314 -28.036   0.760  1.00  0.00     0.066 C 
HETATM    6  C   UNL     1      46.755 -28.323   2.165  1.00  0.00     0.118 C 
HETATM    7  N   UNL     1      45.348 -28.730   2.048  1.00  0.00    -0.365 N 
HETATM    8  N   UNL     1      45.225 -30.569  -0.984  1.00  0.00    -0.181 NA
HETATM    9  C   UNL     1      44.041 -30.893  -0.454  1.00  0.00     0.160 A 
HETATM   10  H   UNL     1      44.888 -28.822   2.955  1.00  0.00     0.161 HD
ENDROOT
BRANCH   1  11
HETATM   11  C   UNL     1      42.563 -30.290   1.550  1.00  0.00     0.261 C 
HETATM   12  N   UNL     1      42.568 -31.321   2.471  1.00  0.00    -0.323 N 
HETATM   13  H   UNL     1      43.442 -31.829   2.545  1.00  0.00     0.169 HD
HETATM   14  O   UNL     1      41.685 -29.447   1.409  1.00  0.00    -0.267 OA
BRANCH  12  15
HETATM   15  C   UNL     1      41.574 -31.639   3.415  1.00  0.00     0.035 A 
HETATM   16  C   UNL     1      40.364 -32.259   3.092  1.00  0.00     0.039 A 
HETATM   17  C   UNL     1      39.408 -32.546   4.085  1.00  0.00    -0.028 A 
HETATM   18  C   UNL     1      39.688 -32.199   5.413  1.00  0.00     0.010 A 
HETATM   19  C   UNL     1      40.892 -31.584   5.744  1.00  0.00     0.003 A 
HETATM   20  C   UNL     1      41.835 -31.315   4.752  1.00  0.00     0.029 A 
BRANCH  17  21
HETATM   21  C   UNL     1      38.128 -33.261   3.706  1.00  0.00     0.147 C 
HETATM   22  C   UNL     1      38.224 -34.754   4.001  1.00  0.00     0.044 C 
BRANCH  21  23
HETATM   23  O   UNL     1      37.026 -32.716   4.429  1.00  0.00    -0.391 OA
HETATM   24  H   UNL     1      36.230 -33.182   4.123  1.00  0.00     0.210 HD
ENDBRANCH  21  23
ENDBRANCH  17  21
ENDBRANCH  12  15
ENDBRANCH   1  11
BRANCH   4  25
HETATM   25  C   UNL     1      48.155 -30.242  -0.237  1.00  0.00     0.409 C 
HETATM   26  F   UNL     1      47.869 -31.298   0.544  1.00  0.00    -0.169 F 
HETATM   27  F   UNL     1      48.421 -30.712  -1.477  1.00  0.00    -0.169 F 
HETATM   28  F   UNL     1      49.322 -29.713   0.219  1.00  0.00    -0.169 F 
ENDBRANCH   4  25
BRANCH   6  29
HETATM   29  C   UNL     1      47.598 -29.264   3.010  1.00  0.00    -0.035 A 
HETATM   30  C   UNL     1      48.938 -28.923   3.284  1.00  0.00     0.009 A 
HETATM   31  C   UNL     1      49.757 -29.762   4.043  1.00  0.00     0.001 A 
HETATM   32  C   UNL     1      49.252 -30.951   4.557  1.00  0.00     0.000 A 
HETATM   33  C   UNL     1      47.927 -31.299   4.318  1.00  0.00     0.001 A 
HETATM   34  C   UNL     1      47.106 -30.463   3.556  1.00  0.00     0.009 A 
ENDBRANCH   6  29
TORSDOF 6
ENDMDL
MODEL 9
REMARK VINA RESULT:      -7.8     17.102     20.467
REMARK  6 active torsions:
REMARK  status: ('A' for Active; 'I' for Inactive)
REMARK    1  A    between atoms: C_2  and  O_3 
REMARK    2  A    between atoms: C_2  and  C_4 
REMARK    3  A    between atoms: C_6  and  N_7 
REMARK       I    between atoms: N_7  and  C_8 
REMARK    4  A    between atoms: C_8  and  C_9 
REMARK    5  A    between atoms: C_12  and  C_13 
REMARK    6  A    between atoms: C_18  and  C_19 
ROOT
HETATM    1  C   UNL     1      48.725 -30.374   0.432  1.00  0.00     0.096 A 
HETATM    2  C   UNL     1      47.822 -29.589  -0.260  1.00  0.00     0.138 A 
HETATM    3  N   UNL     1      46.651 -29.649   0.456  1.00  0.00    -0.240 N 
HETATM    4  C   UNL     1      45.438 -28.926   0.127  1.00  0.00     0.221 C 
HETATM    5  C   UNL     1      45.717 -27.872  -0.962  1.00  0.00     0.066 C 
HETATM    6  C   UNL     1      46.699 -28.342  -2.050  1.00  0.00     0.118 C 
HETATM    7  N   UNL     1      47.912 -28.865  -1.408  1.00  0.00    -0.365 N 
HETATM    8  N   UNL     1      46.729 -30.410   1.559  1.00  0.00    -0.181 NA
HETATM    9  C   UNL     1      47.974 -30.892   1.514  1.00  0.00     0.160 A 
HETATM   10  H   UNL     1      48.650 -29.087  -2.080  1.00  0.00     0.161 HD
ENDROOT
BRANCH   1  11
HETATM   11  C   UNL     1      50.129 -30.624   0.153  1.00  0.00     0.261 C 
HETATM   12  N   UNL     1      50.321 -31.669  -0.731  1.00  0.00    -0.323 N 
HETATM   13  H   UNL     1      49.473 -32.054  -1.134  1.00  0.00     0.169 HD
HETATM   14  O   UNL     1      51.001 -29.906   0.628  1.00  0.00    -0.267 OA
BRANCH  12  15
HETATM   15  C   UNL     1      51.538 -32.145  -1.253  1.00  0.00     0.035 A 
HETATM   16  C   UNL     1      51.928 -31.988  -2.585  1.00  0.00     0.039 A 
HETATM   17  C   UNL     1      53.158 -32.492  -3.046  1.00  0.00    -0.028 A 
HETATM   18  C   UNL     1      53.995 -33.161  -2.143  1.00  0.00     0.010 A 
HETATM   19  C   UNL     1      53.616 -33.319  -0.812  1.00  0.00     0.003 A 
HETATM   20  C   UNL     1      52.398 -32.805  -0.368  1.00  0.00     0.029 A 
BRANCH  17  21
HETATM   21  C   UNL     1      53.570 -32.262  -4.485  1.00  0.00     0.147 C 
HETATM   22  C   UNL     1      52.501 -32.764  -5.450  1.00  0.00     0.044 C 
BRANCH  21  23
HETATM   23  O   UNL     1      53.790 -30.873  -4.719  1.00  0.00    -0.391 OA
HETATM   24  H   UNL     1      53.300 -30.391  -4.033  1.00  0.00     0.210 HD
ENDBRANCH  21  23
ENDBRANCH  17  21
ENDBRANCH  12  15
ENDBRANCH   1  11
BRANCH   4  25
HETATM   25  C   UNL     1      44.317 -29.884  -0.218  1.00  0.00     0.409 C 
HETATM   26  F   UNL     1      44.732 -31.040  -0.765  1.00  0.00    -0.169 F 
HETATM   27  F   UNL     1      43.562 -30.192   0.861  1.00  0.00    -0.169 F 
HETATM   28  F   UNL     1      43.471 -29.302  -1.110  1.00  0.00    -0.169 F 
ENDBRANCH   4  25
BRANCH   6  29
HETATM   29  C   UNL     1      46.103 -29.277  -3.091  1.00  0.00    -0.035 A 
HETATM   30  C   UNL     1      45.010 -28.835  -3.861  1.00  0.00     0.009 A 
HETATM   31  C   UNL     1      44.419 -29.662  -4.820  1.00  0.00     0.001 A 
HETATM   32  C   UNL     1      44.915 -30.942  -5.037  1.00  0.00     0.000 A 
HETATM   33  C   UNL     1      46.006 -31.394  -4.302  1.00  0.00     0.001 A 
HETATM   34  C   UNL     1      46.597 -30.570  -3.342  1.00  0.00     0.009 A 
ENDBRANCH   6  29
TORSDOF 6
ENDMDL
MODEL 10
REMARK VINA RESULT:      -7.8     16.632     18.436
REMARK  6 active torsions:
REMARK  status: ('A' for Active; 'I' for Inactive)
REMARK    1  A    between atoms: C_2  and  O_3 
REMARK    2  A    between atoms: C_2  and  C_4 
REMARK    3  A    between atoms: C_6  and  N_7 
REMARK       I    between atoms: N_7  and  C_8 
REMARK    4  A    between atoms: C_8  and  C_9 
REMARK    5  A    between atoms: C_12  and  C_13 
REMARK    6  A    between atoms: C_18  and  C_19 
ROOT
HETATM    1  C   UNL     1      44.070 -29.883   0.450  1.00  0.00     0.096 A 
HETATM    2  C   UNL     1      45.239 -29.237   0.809  1.00  0.00     0.138 A 
HETATM    3  N   UNL     1      46.082 -29.368  -0.268  1.00  0.00    -0.240 N 
HETATM    4  C   UNL     1      47.410 -28.791  -0.358  1.00  0.00     0.221 C 
HETATM    5  C   UNL     1      47.640 -27.785   0.786  1.00  0.00     0.066 C 
HETATM    6  C   UNL     1      47.038 -28.222   2.133  1.00  0.00     0.118 C 
HETATM    7  N   UNL     1      45.627 -28.580   1.935  1.00  0.00    -0.365 N 
HETATM    8  N   UNL     1      45.548 -30.048  -1.295  1.00  0.00    -0.181 NA
HETATM    9  C   UNL     1      44.345 -30.405  -0.836  1.00  0.00     0.160 A 
HETATM   10  H   UNL     1      45.140 -28.769   2.814  1.00  0.00     0.161 HD
ENDROOT
BRANCH   1  11
HETATM   11  C   UNL     1      42.826 -30.008   1.189  1.00  0.00     0.261 C 
HETATM   12  N   UNL     1      42.779 -31.150   1.968  1.00  0.00    -0.323 N 
HETATM   13  H   UNL     1      43.637 -31.689   1.996  1.00  0.00     0.169 HD
HETATM   14  O   UNL     1      41.974 -29.129   1.138  1.00  0.00    -0.267 OA
BRANCH  12  15
HETATM   15  C   UNL     1      41.752 -31.557   2.840  1.00  0.00     0.035 A 
HETATM   16  C   UNL     1      41.838 -31.478   4.233  1.00  0.00     0.039 A 
HETATM   17  C   UNL     1      40.776 -31.907   5.051  1.00  0.00    -0.028 A 
HETATM   18  C   UNL     1      39.621 -32.419   4.445  1.00  0.00     0.010 A 
HETATM   19  C   UNL     1      39.525 -32.498   3.058  1.00  0.00     0.003 A 
HETATM   20  C   UNL     1      40.582 -32.060   2.260  1.00  0.00     0.029 A 
BRANCH  17  21
HETATM   21  C   UNL     1      40.884 -31.763   6.554  1.00  0.00     0.147 C 
HETATM   22  C   UNL     1      40.999 -33.124   7.230  1.00  0.00     0.044 C 
BRANCH  21  23
HETATM   23  O   UNL     1      42.025 -30.978   6.894  1.00  0.00    -0.391 OA
HETATM   24  H   UNL     1      41.884 -30.652   7.798  1.00  0.00     0.210 HD
ENDBRANCH  21  23
ENDBRANCH  17  21
ENDBRANCH  12  15
ENDBRANCH   1  11
BRANCH   4  25
HETATM   25  C   UNL     1      48.463 -29.876  -0.443  1.00  0.00     0.409 C 
HETATM   26  F   UNL     1      49.625 -29.562   0.157  1.00  0.00    -0.169 F 
HETATM   27  F   UNL     1      48.034 -31.044   0.087  1.00  0.00    -0.169 F 
HETATM   28  F   UNL     1      48.747 -30.142  -1.747  1.00  0.00    -0.169 F 
ENDBRANCH   4  25
BRANCH   6  29
HETATM   29  C   UNL     1      47.839 -29.275   2.882  1.00  0.00    -0.035 A 
HETATM   30  C   UNL     1      49.114 -28.939   3.378  1.00  0.00     0.009 A 
HETATM   31  C   UNL     1      49.895 -29.875   4.060  1.00  0.00     0.001 A 
HETATM   32  C   UNL     1      49.414 -31.162   4.273  1.00  0.00     0.000 A 
HETATM   33  C   UNL     1      48.149 -31.512   3.810  1.00  0.00     0.001 A 
HETATM   34  C   UNL     1      47.368 -30.577   3.125  1.00  0.00     0.009 A 
ENDBRANCH   6  29
TORSDOF 6
ENDMDL
