MODEL 1
REMARK VINA RESULT:      -8.5      0.000      0.000
REMARK  6 active torsions:
REMARK  status: ('A' for Active; 'I' for Inactive)
REMARK    1  A    between atoms: N_3  and  C_4 
REMARK    2  A    between atoms: C_12  and  C_13 
REMARK       I    between atoms: C_13  and  N_14 
REMARK    3  A    between atoms: N_14  and  N_15 
REMARK       I    between atoms: N_15  and  C_16 
REMARK    4  A    between atoms: C_16  and  C_17 
REMARK    5  A    between atoms: C_17  and  C_18 
REMARK    6  A    between atoms: C_21  and  O_22 
ROOT
HETATM    1  C   UNL     1      44.172 -11.546   7.396  1.00  0.00     0.272 C 
HETATM    2  N   UNL     1      43.261 -11.104   8.332  1.00  0.00    -0.263 N 
HETATM    3  O   UNL     1      45.381 -11.565   7.630  1.00  0.00    -0.266 OA
HETATM    4  H   UNL     1      42.259 -11.235   8.232  1.00  0.00     0.190 HD
ENDROOT
BRANCH   1   5
HETATM    5  C   UNL     1      43.608 -12.044   6.142  1.00  0.00     0.058 A 
HETATM    6  C   UNL     1      43.196 -13.335   5.811  1.00  0.00     0.029 A 
HETATM    7  N   UNL     1      42.758 -13.334   4.481  1.00  0.00    -0.319 N 
HETATM    8  C   UNL     1      43.068 -14.532   6.705  1.00  0.00     0.070 C 
HETATM    9  C   UNL     1      42.813 -12.025   4.011  1.00  0.00     0.014 A 
HETATM   10  C   UNL     1      42.491 -11.597   2.619  1.00  0.00     0.068 C 
HETATM   11  C   UNL     1      43.307 -11.230   5.022  1.00  0.00     0.044 A 
BRANCH   7  12
HETATM   12  C   UNL     1      42.338 -14.475   3.733  1.00  0.00     0.039 A 
HETATM   13  C   UNL     1      43.272 -15.214   2.996  1.00  0.00     0.030 A 
HETATM   14  C   UNL     1      42.860 -16.322   2.250  1.00  0.00     0.002 A 
HETATM   15  C   UNL     1      41.516 -16.695   2.238  1.00  0.00     0.000 A 
HETATM   16  C   UNL     1      40.584 -15.965   2.973  1.00  0.00     0.002 A 
HETATM   17  C   UNL     1      40.990 -14.857   3.719  1.00  0.00     0.030 A 
ENDBRANCH   7  12
ENDBRANCH   1   5
BRANCH   2  18
HETATM   18  N   UNL     1      43.732 -10.712   9.589  1.00  0.00    -0.267 N 
HETATM   19  C   UNL     1      43.487  -9.424  10.016  1.00  0.00     0.240 C 
HETATM   20  O   UNL     1      42.774  -8.644   9.385  1.00  0.00    -0.272 OA
HETATM   21  H   UNL     1      44.359 -11.363  10.061  1.00  0.00     0.190 HD
BRANCH  19  22
HETATM   22  C   UNL     1      44.188  -9.054  11.311  1.00  0.00     0.143 C 
BRANCH  22  23
HETATM   23  C   UNL     1      43.246  -8.763  12.454  1.00  0.00    -0.049 A 
HETATM   24  C   UNL     1      42.170  -9.620  12.732  1.00  0.00     0.010 A 
HETATM   25  C   UNL     1      41.326  -9.373  13.818  1.00  0.00     0.037 A 
HETATM   26  C   UNL     1      41.556  -8.265  14.627  1.00  0.00     0.065 A 
HETATM   27  C   UNL     1      42.609  -7.399  14.362  1.00  0.00     0.037 A 
HETATM   28  C   UNL     1      43.453  -7.647  13.279  1.00  0.00     0.010 A 
BRANCH  26  29
HETATM   29  O   UNL     1      40.764  -7.994  15.704  1.00  0.00    -0.361 OA
HETATM   30  H   UNL     1      41.106  -7.201  16.147  1.00  0.00     0.217 HD
ENDBRANCH  26  29
ENDBRANCH  22  23
ENDBRANCH  19  22
ENDBRANCH   2  18
TORSDOF 6
ENDMDL
MODEL 2
REMARK VINA RESULT:      -8.4      8.019     10.749
REMARK  6 active torsions:
REMARK  status: ('A' for Active; 'I' for Inactive)
REMARK    1  A    between atoms: N_3  and  C_4 
REMARK    2  A    between atoms: C_12  and  C_13 
REMARK       I    between atoms: C_13  and  N_14 
REMARK    3  A    between atoms: N_14  and  N_15 
REMARK       I    between atoms: N_15  and  C_16 
REMARK    4  A    between atoms: C_16  and  C_17 
REMARK    5  A    between atoms: C_17  and  C_18 
REMARK    6  A    between atoms: C_21  and  O_22 
ROOT
HETATM    1  C   UNL     1      40.129 -14.334   1.392  1.00  0.00     0.272 C 
HETATM    2  N   UNL     1      41.005 -15.398   1.372  1.00  0.00    -0.263 N 
HETATM    3  O   UNL     1      39.811 -13.779   2.444  1.00  0.00    -0.266 OA
HETATM    4  H   UNL     1      41.413 -15.763   0.516  1.00  0.00     0.190 HD
ENDROOT
BRANCH   1   5
HETATM    5  C   UNL     1      39.656 -13.874   0.087  1.00  0.00     0.058 A 
HETATM    6  C   UNL     1      39.369 -12.577  -0.340  1.00  0.00     0.029 A 
HETATM    7  N   UNL     1      38.910 -12.638  -1.663  1.00  0.00    -0.319 N 
HETATM    8  C   UNL     1      39.623 -11.283   0.371  1.00  0.00     0.070 C 
HETATM    9  C   UNL     1      38.996 -13.959  -2.089  1.00  0.00     0.014 A 
HETATM   10  C   UNL     1      38.546 -14.466  -3.417  1.00  0.00     0.068 C 
HETATM   11  C   UNL     1      39.470 -14.715  -1.038  1.00  0.00     0.044 A 
BRANCH   7  12
HETATM   12  C   UNL     1      38.429 -11.538  -2.437  1.00  0.00     0.039 A 
HETATM   13  C   UNL     1      37.062 -11.236  -2.453  1.00  0.00     0.030 A 
HETATM   14  C   UNL     1      36.587 -10.171  -3.223  1.00  0.00     0.002 A 
HETATM   15  C   UNL     1      37.475  -9.403  -3.976  1.00  0.00     0.000 A 
HETATM   16  C   UNL     1      38.837  -9.697  -3.960  1.00  0.00     0.002 A 
HETATM   17  C   UNL     1      39.316 -10.762  -3.193  1.00  0.00     0.030 A 
ENDBRANCH   7  12
ENDBRANCH   1   5
BRANCH   2  18
HETATM   18  N   UNL     1      41.573 -15.818   2.580  1.00  0.00    -0.267 N 
HETATM   19  C   UNL     1      42.913 -15.578   2.800  1.00  0.00     0.240 C 
HETATM   20  O   UNL     1      43.601 -14.910   2.027  1.00  0.00    -0.272 OA
HETATM   21  H   UNL     1      40.991 -16.410   3.172  1.00  0.00     0.190 HD
BRANCH  19  22
HETATM   22  C   UNL     1      43.462 -16.226   4.059  1.00  0.00     0.143 C 
BRANCH  22  23
HETATM   23  C   UNL     1      43.676 -17.715   3.937  1.00  0.00    -0.049 A 
HETATM   24  C   UNL     1      43.935 -18.497   5.073  1.00  0.00     0.010 A 
HETATM   25  C   UNL     1      44.088 -19.882   4.963  1.00  0.00     0.037 A 
HETATM   26  C   UNL     1      43.986 -20.486   3.715  1.00  0.00     0.065 A 
HETATM   27  C   UNL     1      43.740 -19.728   2.577  1.00  0.00     0.037 A 
HETATM   28  C   UNL     1      43.585 -18.346   2.687  1.00  0.00     0.010 A 
BRANCH  26  29
HETATM   29  O   UNL     1      44.116 -21.835   3.565  1.00  0.00    -0.361 OA
HETATM   30  H   UNL     1      43.232 -22.236   3.578  1.00  0.00     0.217 HD
ENDBRANCH  26  29
ENDBRANCH  22  23
ENDBRANCH  19  22
ENDBRANCH   2  18
TORSDOF 6
ENDMDL
MODEL 3
REMARK VINA RESULT:      -8.4      0.970      1.955
REMARK  6 active torsions:
REMARK  status: ('A' for Active; 'I' for Inactive)
REMARK    1  A    between atoms: N_3  and  C_4 
REMARK    2  A    between atoms: C_12  and  C_13 
REMARK       I    between atoms: C_13  and  N_14 
REMARK    3  A    between atoms: N_14  and  N_15 
REMARK       I    between atoms: N_15  and  C_16 
REMARK    4  A    between atoms: C_16  and  C_17 
REMARK    5  A    between atoms: C_17  and  C_18 
REMARK    6  A    between atoms: C_21  and  O_22 
ROOT
HETATM    1  C   UNL     1      44.087 -11.828   7.354  1.00  0.00     0.272 C 
HETATM    2  N   UNL     1      43.178 -11.191   8.171  1.00  0.00    -0.263 N 
HETATM    3  O   UNL     1      45.246 -11.426   7.243  1.00  0.00    -0.266 OA
HETATM    4  H   UNL     1      42.276 -11.592   8.412  1.00  0.00     0.190 HD
ENDROOT
BRANCH   1   5
HETATM    5  C   UNL     1      43.607 -13.035   6.684  1.00  0.00     0.058 A 
HETATM    6  C   UNL     1      43.169 -13.200   5.369  1.00  0.00     0.029 A 
HETATM    7  N   UNL     1      42.772 -14.532   5.198  1.00  0.00    -0.319 N 
HETATM    8  C   UNL     1      43.225 -12.219   4.238  1.00  0.00     0.070 C 
HETATM    9  C   UNL     1      43.046 -15.219   6.377  1.00  0.00     0.014 A 
HETATM   10  C   UNL     1      42.716 -16.650   6.636  1.00  0.00     0.068 C 
HETATM   11  C   UNL     1      43.575 -14.321   7.279  1.00  0.00     0.044 A 
BRANCH   7  12
HETATM   12  C   UNL     1      42.181 -15.089   4.023  1.00  0.00     0.039 A 
HETATM   13  C   UNL     1      42.992 -15.641   3.024  1.00  0.00     0.030 A 
HETATM   14  C   UNL     1      42.415 -16.171   1.866  1.00  0.00     0.002 A 
HETATM   15  C   UNL     1      41.031 -16.153   1.703  1.00  0.00     0.000 A 
HETATM   16  C   UNL     1      40.219 -15.608   2.697  1.00  0.00     0.002 A 
HETATM   17  C   UNL     1      40.790 -15.076   3.855  1.00  0.00     0.030 A 
ENDBRANCH   7  12
ENDBRANCH   1   5
BRANCH   2  18
HETATM   18  N   UNL     1      43.608 -10.090   8.920  1.00  0.00    -0.267 N 
HETATM   19  C   UNL     1      43.917 -10.275  10.251  1.00  0.00     0.240 C 
HETATM   20  O   UNL     1      43.939 -11.388  10.776  1.00  0.00    -0.272 OA
HETATM   21  H   UNL     1      43.530  -9.179   8.470  1.00  0.00     0.190 HD
BRANCH  19  22
HETATM   22  C   UNL     1      44.204  -8.990  11.007  1.00  0.00     0.143 C 
BRANCH  22  23
HETATM   23  C   UNL     1      43.319  -8.779  12.212  1.00  0.00    -0.049 A 
HETATM   24  C   UNL     1      42.251  -9.649  12.478  1.00  0.00     0.010 A 
HETATM   25  C   UNL     1      41.461  -9.478  13.618  1.00  0.00     0.037 A 
HETATM   26  C   UNL     1      41.737  -8.434  14.493  1.00  0.00     0.065 A 
HETATM   27  C   UNL     1      42.784  -7.555  14.242  1.00  0.00     0.037 A 
HETATM   28  C   UNL     1      43.574  -7.728  13.105  1.00  0.00     0.010 A 
BRANCH  26  29
HETATM   29  O   UNL     1      41.000  -8.238  15.623  1.00  0.00    -0.361 OA
HETATM   30  H   UNL     1      40.775  -7.296  15.687  1.00  0.00     0.217 HD
ENDBRANCH  26  29
ENDBRANCH  22  23
ENDBRANCH  19  22
ENDBRANCH   2  18
TORSDOF 6
ENDMDL
MODEL 4
REMARK VINA RESULT:      -8.2      3.327     10.150
REMARK  6 active torsions:
REMARK  status: ('A' for Active; 'I' for Inactive)
REMARK    1  A    between atoms: N_3  and  C_4 
REMARK    2  A    between atoms: C_12  and  C_13 
REMARK       I    between atoms: C_13  and  N_14 
REMARK    3  A    between atoms: N_14  and  N_15 
REMARK       I    between atoms: N_15  and  C_16 
REMARK    4  A    between atoms: C_16  and  C_17 
REMARK    5  A    between atoms: C_17  and  C_18 
REMARK    6  A    between atoms: C_21  and  O_22 
ROOT
HETATM    1  C   UNL     1      43.309 -11.968   4.851  1.00  0.00     0.272 C 
HETATM    2  N   UNL     1      42.947 -13.298   4.872  1.00  0.00    -0.263 N 
HETATM    3  O   UNL     1      43.942 -11.486   3.911  1.00  0.00    -0.266 OA
HETATM    4  H   UNL     1      42.287 -13.681   5.543  1.00  0.00     0.190 HD
ENDROOT
BRANCH   1   5
HETATM    5  C   UNL     1      42.843 -11.162   5.978  1.00  0.00     0.058 A 
HETATM    6  C   UNL     1      43.544 -10.732   7.105  1.00  0.00     0.029 A 
HETATM    7  N   UNL     1      42.664 -10.016   7.927  1.00  0.00    -0.319 N 
HETATM    8  C   UNL     1      45.011 -10.841   7.389  1.00  0.00     0.070 C 
HETATM    9  C   UNL     1      41.440  -9.923   7.272  1.00  0.00     0.014 A 
HETATM   10  C   UNL     1      40.210  -9.292   7.831  1.00  0.00     0.068 C 
HETATM   11  C   UNL     1      41.546 -10.598   6.075  1.00  0.00     0.044 A 
BRANCH   7  12
HETATM   12  C   UNL     1      42.966  -9.482   9.217  1.00  0.00     0.039 A 
HETATM   13  C   UNL     1      43.246 -10.344  10.285  1.00  0.00     0.030 A 
HETATM   14  C   UNL     1      43.525  -9.823  11.551  1.00  0.00     0.002 A 
HETATM   15  C   UNL     1      43.527  -8.444  11.756  1.00  0.00     0.000 A 
HETATM   16  C   UNL     1      43.252  -7.582  10.695  1.00  0.00     0.002 A 
HETATM   17  C   UNL     1      42.972  -8.097   9.427  1.00  0.00     0.030 A 
ENDBRANCH   7  12
ENDBRANCH   1   5
BRANCH   2  18
HETATM   18  N   UNL     1      43.275 -14.097   3.771  1.00  0.00    -0.267 N 
HETATM   19  C   UNL     1      42.672 -15.331   3.646  1.00  0.00     0.240 C 
HETATM   20  O   UNL     1      41.775 -15.708   4.400  1.00  0.00    -0.272 OA
HETATM   21  H   UNL     1      44.054 -13.778   3.197  1.00  0.00     0.190 HD
BRANCH  19  22
HETATM   22  C   UNL     1      43.226 -16.182   2.517  1.00  0.00     0.143 C 
BRANCH  22  23
HETATM   23  C   UNL     1      43.421 -17.633   2.885  1.00  0.00    -0.049 A 
HETATM   24  C   UNL     1      42.975 -18.655   2.033  1.00  0.00     0.010 A 
HETATM   25  C   UNL     1      43.197 -19.997   2.354  1.00  0.00     0.037 A 
HETATM   26  C   UNL     1      43.863 -20.319   3.531  1.00  0.00     0.065 A 
HETATM   27  C   UNL     1      44.304 -19.322   4.393  1.00  0.00     0.037 A 
HETATM   28  C   UNL     1      44.084 -17.982   4.071  1.00  0.00     0.010 A 
BRANCH  26  29
HETATM   29  O   UNL     1      44.111 -21.614   3.877  1.00  0.00    -0.361 OA
HETATM   30  H   UNL     1      43.310 -22.138   3.714  1.00  0.00     0.217 HD
ENDBRANCH  26  29
ENDBRANCH  22  23
ENDBRANCH  19  22
ENDBRANCH   2  18
TORSDOF 6
ENDMDL
MODEL 5
REMARK VINA RESULT:      -8.0      2.121      3.185
REMARK  6 active torsions:
REMARK  status: ('A' for Active; 'I' for Inactive)
REMARK    1  A    between atoms: N_3  and  C_4 
REMARK    2  A    between atoms: C_12  and  C_13 
REMARK       I    between atoms: C_13  and  N_14 
REMARK    3  A    between atoms: N_14  and  N_15 
REMARK       I    between atoms: N_15  and  C_16 
REMARK    4  A    between atoms: C_16  and  C_17 
REMARK    5  A    between atoms: C_17  and  C_18 
REMARK    6  A    between atoms: C_21  and  O_22 
ROOT
HETATM    1  C   UNL     1      42.775 -12.206   5.709  1.00  0.00     0.272 C 
HETATM    2  N   UNL     1      42.586 -12.001   7.060  1.00  0.00    -0.263 N 
HETATM    3  O   UNL     1      43.161 -11.302   4.967  1.00  0.00    -0.266 OA
HETATM    4  H   UNL     1      42.434 -12.760   7.718  1.00  0.00     0.190 HD
ENDROOT
BRANCH   1   5
HETATM    5  C   UNL     1      42.548 -13.569   5.233  1.00  0.00     0.058 A 
HETATM    6  C   UNL     1      43.252 -14.737   5.530  1.00  0.00     0.029 A 
HETATM    7  N   UNL     1      42.685 -15.793   4.806  1.00  0.00    -0.319 N 
HETATM    8  C   UNL     1      44.335 -14.940   6.546  1.00  0.00     0.070 C 
HETATM    9  C   UNL     1      41.572 -15.303   4.128  1.00  0.00     0.014 A 
HETATM   10  C   UNL     1      40.720 -16.090   3.191  1.00  0.00     0.068 C 
HETATM   11  C   UNL     1      41.468 -13.956   4.401  1.00  0.00     0.044 A 
BRANCH   7  12
HETATM   12  C   UNL     1      43.167 -17.137   4.762  1.00  0.00     0.039 A 
HETATM   13  C   UNL     1      43.107 -17.941   5.907  1.00  0.00     0.030 A 
HETATM   14  C   UNL     1      43.594 -19.251   5.870  1.00  0.00     0.002 A 
HETATM   15  C   UNL     1      44.139 -19.761   4.693  1.00  0.00     0.000 A 
HETATM   16  C   UNL     1      44.197 -18.966   3.550  1.00  0.00     0.002 A 
HETATM   17  C   UNL     1      43.713 -17.656   3.581  1.00  0.00     0.030 A 
ENDBRANCH   7  12
ENDBRANCH   1   5
BRANCH   2  18
HETATM   18  N   UNL     1      42.887 -10.743   7.593  1.00  0.00    -0.267 N 
HETATM   19  C   UNL     1      44.111 -10.557   8.199  1.00  0.00     0.240 C 
HETATM   20  O   UNL     1      44.992 -11.417   8.188  1.00  0.00    -0.272 OA
HETATM   21  H   UNL     1      42.120 -10.073   7.630  1.00  0.00     0.190 HD
BRANCH  19  22
HETATM   22  C   UNL     1      44.265  -9.215   8.892  1.00  0.00     0.143 C 
BRANCH  22  23
HETATM   23  C   UNL     1      43.722  -9.189  10.301  1.00  0.00    -0.049 A 
HETATM   24  C   UNL     1      43.322  -7.982  10.893  1.00  0.00     0.010 A 
HETATM   25  C   UNL     1      42.779  -7.967  12.180  1.00  0.00     0.037 A 
HETATM   26  C   UNL     1      42.638  -9.161  12.879  1.00  0.00     0.065 A 
HETATM   27  C   UNL     1      43.037 -10.365  12.314  1.00  0.00     0.037 A 
HETATM   28  C   UNL     1      43.577 -10.380  11.028  1.00  0.00     0.010 A 
BRANCH  26  29
HETATM   29  O   UNL     1      42.101  -9.193  14.132  1.00  0.00    -0.361 OA
HETATM   30  H   UNL     1      42.587  -8.568  14.694  1.00  0.00     0.217 HD
ENDBRANCH  26  29
ENDBRANCH  22  23
ENDBRANCH  19  22
ENDBRANCH   2  18
TORSDOF 6
ENDMDL
MODEL 6
REMARK VINA RESULT:      -8.0      3.359     10.083
REMARK  6 active torsions:
REMARK  status: ('A' for Active; 'I' for Inactive)
REMARK    1  A    between atoms: N_3  and  C_4 
REMARK    2  A    between atoms: C_12  and  C_13 
REMARK       I    between atoms: C_13  and  N_14 
REMARK    3  A    between atoms: N_14  and  N_15 
REMARK       I    between atoms: N_15  and  C_16 
REMARK    4  A    between atoms: C_16  and  C_17 
REMARK    5  A    between atoms: C_17  and  C_18 
REMARK    6  A    between atoms: C_21  and  O_22 
ROOT
HETATM    1  C   UNL     1      43.973 -11.694   5.513  1.00  0.00     0.272 C 
HETATM    2  N   UNL     1      43.431 -12.961   5.558  1.00  0.00    -0.263 N 
HETATM    3  O   UNL     1      44.377 -11.202   4.459  1.00  0.00    -0.266 OA
HETATM    4  H   UNL     1      42.940 -13.324   6.370  1.00  0.00     0.190 HD
ENDROOT
BRANCH   1   5
HETATM    5  C   UNL     1      43.978 -10.957   6.776  1.00  0.00     0.058 A 
HETATM    6  C   UNL     1      43.082  -9.993   7.239  1.00  0.00     0.029 A 
HETATM    7  N   UNL     1      43.521  -9.546   8.492  1.00  0.00    -0.319 N 
HETATM    8  C   UNL     1      41.778  -9.566   6.638  1.00  0.00     0.070 C 
HETATM    9  C   UNL     1      44.638 -10.294   8.850  1.00  0.00     0.014 A 
HETATM   10  C   UNL     1      45.449 -10.092  10.085  1.00  0.00     0.068 C 
HETATM   11  C   UNL     1      44.910 -11.171   7.822  1.00  0.00     0.044 A 
BRANCH   7  12
HETATM   12  C   UNL     1      42.931  -8.499   9.264  1.00  0.00     0.039 A 
HETATM   13  C   UNL     1      43.357  -7.176   9.092  1.00  0.00     0.030 A 
HETATM   14  C   UNL     1      42.793  -6.152   9.859  1.00  0.00     0.002 A 
HETATM   15  C   UNL     1      41.803  -6.446  10.797  1.00  0.00     0.000 A 
HETATM   16  C   UNL     1      41.374  -7.760  10.969  1.00  0.00     0.002 A 
HETATM   17  C   UNL     1      41.935  -8.787  10.206  1.00  0.00     0.030 A 
ENDBRANCH   7  12
ENDBRANCH   1   5
BRANCH   2  18
HETATM   18  N   UNL     1      43.304 -13.676   4.362  1.00  0.00    -0.267 N 
HETATM   19  C   UNL     1      42.428 -14.740   4.318  1.00  0.00     0.240 C 
HETATM   20  O   UNL     1      41.672 -15.014   5.250  1.00  0.00    -0.272 OA
HETATM   21  H   UNL     1      43.978 -13.456   3.630  1.00  0.00     0.190 HD
BRANCH  19  22
HETATM   22  C   UNL     1      42.496 -15.548   3.034  1.00  0.00     0.143 C 
BRANCH  22  23
HETATM   23  C   UNL     1      43.019 -16.952   3.222  1.00  0.00    -0.049 A 
HETATM   24  C   UNL     1      43.755 -17.295   4.366  1.00  0.00     0.010 A 
HETATM   25  C   UNL     1      44.199 -18.606   4.559  1.00  0.00     0.037 A 
HETATM   26  C   UNL     1      43.909 -19.576   3.606  1.00  0.00     0.065 A 
HETATM   27  C   UNL     1      43.190 -19.253   2.461  1.00  0.00     0.037 A 
HETATM   28  C   UNL     1      42.745 -17.945   2.270  1.00  0.00     0.010 A 
BRANCH  26  29
HETATM   29  O   UNL     1      44.312 -20.869   3.761  1.00  0.00    -0.361 OA
HETATM   30  H   UNL     1      43.646 -21.451   3.359  1.00  0.00     0.217 HD
ENDBRANCH  26  29
ENDBRANCH  22  23
ENDBRANCH  19  22
ENDBRANCH   2  18
TORSDOF 6
ENDMDL
MODEL 7
REMARK VINA RESULT:      -7.9      3.938     10.018
REMARK  6 active torsions:
REMARK  status: ('A' for Active; 'I' for Inactive)
REMARK    1  A    between atoms: N_3  and  C_4 
REMARK    2  A    between atoms: C_12  and  C_13 
REMARK       I    between atoms: C_13  and  N_14 
REMARK    3  A    between atoms: N_14  and  N_15 
REMARK       I    between atoms: N_15  and  C_16 
REMARK    4  A    between atoms: C_16  and  C_17 
REMARK    5  A    between atoms: C_17  and  C_18 
REMARK    6  A    between atoms: C_21  and  O_22 
ROOT
HETATM    1  C   UNL     1      42.603 -13.849   4.825  1.00  0.00     0.272 C 
HETATM    2  N   UNL     1      42.482 -13.858   3.452  1.00  0.00    -0.263 N 
HETATM    3  O   UNL     1      43.206 -14.740   5.425  1.00  0.00    -0.266 OA
HETATM    4  H   UNL     1      42.143 -13.060   2.921  1.00  0.00     0.190 HD
ENDROOT
BRANCH   1   5
HETATM    5  C   UNL     1      42.028 -12.692   5.509  1.00  0.00     0.058 A 
HETATM    6  C   UNL     1      42.659 -11.540   5.977  1.00  0.00     0.029 A 
HETATM    7  N   UNL     1      41.699 -10.729   6.597  1.00  0.00    -0.319 N 
HETATM    8  C   UNL     1      44.075 -11.099   5.763  1.00  0.00     0.070 C 
HETATM    9  C   UNL     1      40.456 -11.334   6.437  1.00  0.00     0.014 A 
HETATM   10  C   UNL     1      39.173 -10.827   7.004  1.00  0.00     0.068 C 
HETATM   11  C   UNL     1      40.643 -12.517   5.756  1.00  0.00     0.044 A 
BRANCH   7  12
HETATM   12  C   UNL     1      41.951  -9.502   7.283  1.00  0.00     0.039 A 
HETATM   13  C   UNL     1      41.779  -8.281   6.620  1.00  0.00     0.030 A 
HETATM   14  C   UNL     1      42.042  -7.079   7.284  1.00  0.00     0.002 A 
HETATM   15  C   UNL     1      42.474  -7.093   8.610  1.00  0.00     0.000 A 
HETATM   16  C   UNL     1      42.643  -8.307   9.275  1.00  0.00     0.002 A 
HETATM   17  C   UNL     1      42.383  -9.510   8.615  1.00  0.00     0.030 A 
ENDBRANCH   7  12
ENDBRANCH   1   5
BRANCH   2  18
HETATM   18  N   UNL     1      43.102 -14.885   2.733  1.00  0.00    -0.267 N 
HETATM   19  C   UNL     1      42.378 -16.024   2.448  1.00  0.00     0.240 C 
HETATM   20  O   UNL     1      41.177 -16.124   2.702  1.00  0.00    -0.272 OA
HETATM   21  H   UNL     1      44.106 -14.791   2.584  1.00  0.00     0.190 HD
BRANCH  19  22
HETATM   22  C   UNL     1      43.194 -17.139   1.820  1.00  0.00     0.143 C 
BRANCH  22  23
HETATM   23  C   UNL     1      43.517 -18.269   2.767  1.00  0.00    -0.049 A 
HETATM   24  C   UNL     1      43.828 -18.011   4.111  1.00  0.00     0.010 A 
HETATM   25  C   UNL     1      44.082 -19.062   4.996  1.00  0.00     0.037 A 
HETATM   26  C   UNL     1      44.027 -20.374   4.538  1.00  0.00     0.065 A 
HETATM   27  C   UNL     1      43.731 -20.649   3.209  1.00  0.00     0.037 A 
HETATM   28  C   UNL     1      43.475 -19.600   2.325  1.00  0.00     0.010 A 
BRANCH  26  29
HETATM   29  O   UNL     1      44.256 -21.429   5.371  1.00  0.00    -0.361 OA
HETATM   30  H   UNL     1      43.435 -21.940   5.457  1.00  0.00     0.217 HD
ENDBRANCH  26  29
ENDBRANCH  22  23
ENDBRANCH  19  22
ENDBRANCH   2  18
TORSDOF 6
ENDMDL
MODEL 8
REMARK VINA RESULT:      -7.8      2.643      3.358
REMARK  6 active torsions:
REMARK  status: ('A' for Active; 'I' for Inactive)
REMARK    1  A    between atoms: N_3  and  C_4 
REMARK    2  A    between atoms: C_12  and  C_13 
REMARK       I    between atoms: C_13  and  N_14 
REMARK    3  A    between atoms: N_14  and  N_15 
REMARK       I    between atoms: N_15  and  C_16 
REMARK    4  A    between atoms: C_16  and  C_17 
REMARK    5  A    between atoms: C_17  and  C_18 
REMARK    6  A    between atoms: C_21  and  O_22 
ROOT
HETATM    1  C   UNL     1      40.674 -12.882   5.872  1.00  0.00     0.272 C 
HETATM    2  N   UNL     1      41.377 -11.826   6.412  1.00  0.00    -0.263 N 
HETATM    3  O   UNL     1      39.480 -13.056   6.120  1.00  0.00    -0.266 OA
HETATM    4  H   UNL     1      42.306 -11.562   6.096  1.00  0.00     0.190 HD
ENDROOT
BRANCH   1   5
HETATM    5  C   UNL     1      41.416 -13.737   4.947  1.00  0.00     0.058 A 
HETATM    6  C   UNL     1      41.616 -15.117   4.987  1.00  0.00     0.029 A 
HETATM    7  N   UNL     1      42.426 -15.479   3.903  1.00  0.00    -0.319 N 
HETATM    8  C   UNL     1      40.989 -16.124   5.902  1.00  0.00     0.070 C 
HETATM    9  C   UNL     1      42.656 -14.341   3.137  1.00  0.00     0.014 A 
HETATM   10  C   UNL     1      43.525 -14.279   1.927  1.00  0.00     0.068 C 
HETATM   11  C   UNL     1      42.026 -13.280   3.752  1.00  0.00     0.044 A 
BRANCH   7  12
HETATM   12  C   UNL     1      42.935 -16.786   3.635  1.00  0.00     0.039 A 
HETATM   13  C   UNL     1      42.446 -17.520   2.546  1.00  0.00     0.030 A 
HETATM   14  C   UNL     1      42.931 -18.805   2.292  1.00  0.00     0.002 A 
HETATM   15  C   UNL     1      43.905 -19.362   3.120  1.00  0.00     0.000 A 
HETATM   16  C   UNL     1      44.399 -18.634   4.202  1.00  0.00     0.002 A 
HETATM   17  C   UNL     1      43.916 -17.349   4.461  1.00  0.00     0.030 A 
ENDBRANCH   7  12
ENDBRANCH   1   5
BRANCH   2  18
HETATM   18  N   UNL     1      40.695 -10.914   7.223  1.00  0.00    -0.267 N 
HETATM   19  C   UNL     1      41.287  -9.699   7.495  1.00  0.00     0.240 C 
HETATM   20  O   UNL     1      42.337  -9.341   6.962  1.00  0.00    -0.272 OA
HETATM   21  H   UNL     1      39.856 -11.260   7.687  1.00  0.00     0.190 HD
BRANCH  19  22
HETATM   22  C   UNL     1      40.543  -8.860   8.520  1.00  0.00     0.143 C 
BRANCH  22  23
HETATM   23  C   UNL     1      41.327  -8.601   9.783  1.00  0.00    -0.049 A 
HETATM   24  C   UNL     1      41.759  -9.665  10.590  1.00  0.00     0.010 A 
HETATM   25  C   UNL     1      42.523  -9.424  11.735  1.00  0.00     0.037 A 
HETATM   26  C   UNL     1      42.854  -8.118  12.076  1.00  0.00     0.065 A 
HETATM   27  C   UNL     1      42.428  -7.051  11.296  1.00  0.00     0.037 A 
HETATM   28  C   UNL     1      41.667  -7.291  10.152  1.00  0.00     0.010 A 
BRANCH  26  29
HETATM   29  O   UNL     1      43.609  -7.840  13.178  1.00  0.00    -0.361 OA
HETATM   30  H   UNL     1      44.453  -8.314  13.104  1.00  0.00     0.217 HD
ENDBRANCH  26  29
ENDBRANCH  22  23
ENDBRANCH  19  22
ENDBRANCH   2  18
TORSDOF 6
ENDMDL
MODEL 9
REMARK VINA RESULT:      -7.7      7.098      9.965
REMARK  6 active torsions:
REMARK  status: ('A' for Active; 'I' for Inactive)
REMARK    1  A    between atoms: N_3  and  C_4 
REMARK    2  A    between atoms: C_12  and  C_13 
REMARK       I    between atoms: C_13  and  N_14 
REMARK    3  A    between atoms: N_14  and  N_15 
REMARK       I    between atoms: N_15  and  C_16 
REMARK    4  A    between atoms: C_16  and  C_17 
REMARK    5  A    between atoms: C_17  and  C_18 
REMARK    6  A    between atoms: C_21  and  O_22 
ROOT
HETATM    1  C   UNL     1      40.397 -14.759   2.708  1.00  0.00     0.272 C 
HETATM    2  N   UNL     1      40.808 -14.488   3.996  1.00  0.00    -0.263 N 
HETATM    3  O   UNL     1      40.521 -15.881   2.214  1.00  0.00    -0.266 OA
HETATM    4  H   UNL     1      40.568 -13.630   4.483  1.00  0.00     0.190 HD
ENDROOT
BRANCH   1   5
HETATM    5  C   UNL     1      39.756 -13.655   1.997  1.00  0.00     0.058 A 
HETATM    6  C   UNL     1      39.679 -13.414   0.625  1.00  0.00     0.029 A 
HETATM    7  N   UNL     1      38.994 -12.209   0.423  1.00  0.00    -0.319 N 
HETATM    8  C   UNL     1      40.093 -14.309  -0.504  1.00  0.00     0.070 C 
HETATM    9  C   UNL     1      38.566 -11.744   1.663  1.00  0.00     0.014 A 
HETATM   10  C   UNL     1      37.852 -10.456   1.900  1.00  0.00     0.068 C 
HETATM   11  C   UNL     1      39.005 -12.629   2.624  1.00  0.00     0.044 A 
BRANCH   7  12
HETATM   12  C   UNL     1      38.779 -11.564  -0.832  1.00  0.00     0.039 A 
HETATM   13  C   UNL     1      37.570 -11.743  -1.515  1.00  0.00     0.030 A 
HETATM   14  C   UNL     1      37.365 -11.126  -2.752  1.00  0.00     0.002 A 
HETATM   15  C   UNL     1      38.363 -10.327  -3.310  1.00  0.00     0.000 A 
HETATM   16  C   UNL     1      39.567 -10.142  -2.631  1.00  0.00     0.002 A 
HETATM   17  C   UNL     1      39.777 -10.758  -1.396  1.00  0.00     0.030 A 
ENDBRANCH   7  12
ENDBRANCH   1   5
BRANCH   2  18
HETATM   18  N   UNL     1      41.335 -15.533   4.763  1.00  0.00    -0.267 N 
HETATM   19  C   UNL     1      42.695 -15.567   4.989  1.00  0.00     0.240 C 
HETATM   20  O   UNL     1      43.446 -14.656   4.639  1.00  0.00    -0.272 OA
HETATM   21  H   UNL     1      40.696 -16.293   4.992  1.00  0.00     0.190 HD
BRANCH  19  22
HETATM   22  C   UNL     1      43.178 -16.829   5.681  1.00  0.00     0.143 C 
BRANCH  22  23
HETATM   23  C   UNL     1      43.445 -17.979   4.740  1.00  0.00    -0.049 A 
HETATM   24  C   UNL     1      43.846 -19.230   5.233  1.00  0.00     0.010 A 
HETATM   25  C   UNL     1      44.049 -20.305   4.364  1.00  0.00     0.037 A 
HETATM   26  C   UNL     1      43.853 -20.129   2.998  1.00  0.00     0.065 A 
HETATM   27  C   UNL     1      43.466 -18.896   2.490  1.00  0.00     0.037 A 
HETATM   28  C   UNL     1      43.261 -17.823   3.358  1.00  0.00     0.010 A 
BRANCH  26  29
HETATM   29  O   UNL     1      44.027 -21.154   2.116  1.00  0.00    -0.361 OA
HETATM   30  H   UNL     1      44.825 -21.647   2.367  1.00  0.00     0.217 HD
ENDBRANCH  26  29
ENDBRANCH  22  23
ENDBRANCH  19  22
ENDBRANCH   2  18
TORSDOF 6
ENDMDL
MODEL 10
REMARK VINA RESULT:      -7.6      1.244      2.295
REMARK  6 active torsions:
REMARK  status: ('A' for Active; 'I' for Inactive)
REMARK    1  A    between atoms: N_3  and  C_4 
REMARK    2  A    between atoms: C_12  and  C_13 
REMARK       I    between atoms: C_13  and  N_14 
REMARK    3  A    between atoms: N_14  and  N_15 
REMARK       I    between atoms: N_15  and  C_16 
REMARK    4  A    between atoms: C_16  and  C_17 
REMARK    5  A    between atoms: C_17  and  C_18 
REMARK    6  A    between atoms: C_21  and  O_22 
ROOT
HETATM    1  C   UNL     1      44.036 -11.698   7.240  1.00  0.00     0.272 C 
HETATM    2  N   UNL     1      43.170 -11.049   8.095  1.00  0.00    -0.263 N 
HETATM    3  O   UNL     1      45.167 -11.264   7.017  1.00  0.00    -0.266 OA
HETATM    4  H   UNL     1      42.305 -11.467   8.427  1.00  0.00     0.190 HD
ENDROOT
BRANCH   1   5
HETATM    5  C   UNL     1      43.550 -12.953   6.671  1.00  0.00     0.058 A 
HETATM    6  C   UNL     1      43.199 -13.247   5.353  1.00  0.00     0.029 A 
HETATM    7  N   UNL     1      42.755 -14.575   5.298  1.00  0.00    -0.319 N 
HETATM    8  C   UNL     1      43.379 -12.402   4.129  1.00  0.00     0.070 C 
HETATM    9  C   UNL     1      42.913 -15.135   6.562  1.00  0.00     0.014 A 
HETATM   10  C   UNL     1      42.502 -16.515   6.949  1.00  0.00     0.068 C 
HETATM   11  C   UNL     1      43.418 -14.163   7.398  1.00  0.00     0.044 A 
BRANCH   7  12
HETATM   12  C   UNL     1      42.223 -15.236   4.150  1.00  0.00     0.039 A 
HETATM   13  C   UNL     1      43.067 -15.979   3.314  1.00  0.00     0.030 A 
HETATM   14  C   UNL     1      42.551 -16.613   2.181  1.00  0.00     0.002 A 
HETATM   15  C   UNL     1      41.194 -16.510   1.879  1.00  0.00     0.000 A 
HETATM   16  C   UNL     1      40.349 -15.776   2.710  1.00  0.00     0.002 A 
HETATM   17  C   UNL     1      40.860 -15.139   3.843  1.00  0.00     0.030 A 
ENDBRANCH   7  12
ENDBRANCH   1   5
BRANCH   2  18
HETATM   18  N   UNL     1      43.616  -9.897   8.751  1.00  0.00    -0.267 N 
HETATM   19  C   UNL     1      42.705  -8.902   9.033  1.00  0.00     0.240 C 
HETATM   20  O   UNL     1      41.498  -9.035   8.834  1.00  0.00    -0.272 OA
HETATM   21  H   UNL     1      44.625  -9.798   8.856  1.00  0.00     0.190 HD
BRANCH  19  22
HETATM   22  C   UNL     1      43.324  -7.631   9.587  1.00  0.00     0.143 C 
BRANCH  22  23
HETATM   23  C   UNL     1      42.994  -7.371  11.037  1.00  0.00    -0.049 A 
HETATM   24  C   UNL     1      42.255  -6.238  11.412  1.00  0.00     0.010 A 
HETATM   25  C   UNL     1      41.911  -6.024  12.749  1.00  0.00     0.037 A 
HETATM   26  C   UNL     1      42.310  -6.941  13.715  1.00  0.00     0.065 A 
HETATM   27  C   UNL     1      43.050  -8.063  13.365  1.00  0.00     0.037 A 
HETATM   28  C   UNL     1      43.391  -8.279  12.030  1.00  0.00     0.010 A 
BRANCH  26  29
HETATM   29  O   UNL     1      41.986  -6.777  15.030  1.00  0.00    -0.361 OA
HETATM   30  H   UNL     1      41.412  -5.998  15.112  1.00  0.00     0.217 HD
ENDBRANCH  26  29
ENDBRANCH  22  23
ENDBRANCH  19  22
ENDBRANCH   2  18
TORSDOF 6
ENDMDL
