MODEL 1
REMARK VINA RESULT:      -8.6      0.000      0.000
REMARK  1 active torsions:
REMARK  status: ('A' for Active; 'I' for Inactive)
REMARK    1  A    between atoms: C_6  and  N_7 
ROOT
HETATM    1  N   UNL     1      41.601 -15.082   4.370  1.00  0.00    -0.320 N 
HETATM    2  C   UNL     1      40.706 -15.049   5.490  1.00  0.00     0.141 C 
HETATM    3  N   UNL     1      40.060 -16.104   5.899  1.00  0.00    -0.380 N 
HETATM    4  H   UNL     1      40.194 -16.978   5.410  1.00  0.00     0.158 HD
HETATM    5  H   UNL     1      39.431 -16.032   6.686  1.00  0.00     0.158 HD
HETATM    6  S   UNL     1      40.564 -13.484   6.207  1.00  0.00    -0.086 SA
HETATM    7  C   UNL     1      41.408 -12.740   4.776  1.00  0.00     0.093 C 
HETATM    8  C   UNL     1      42.395 -13.840   4.326  1.00  0.00     0.121 C 
HETATM    9  C   UNL     1      42.244 -11.490   4.894  1.00  0.00     0.158 C 
HETATM   10  S   UNL     1      43.256 -11.596   3.403  1.00  0.00     0.147 S 
HETATM   11  O   UNL     1      42.652 -10.774   2.378  1.00  0.00    -0.228 OA
HETATM   12  O   UNL     1      44.645 -11.472   3.788  1.00  0.00    -0.228 OA
HETATM   13  C   UNL     1      42.925 -13.326   3.008  1.00  0.00     0.167 C 
ENDROOT
BRANCH   1  14
HETATM   14  C   UNL     1      42.242 -16.240   3.883  1.00  0.00     0.048 A 
HETATM   15  C   UNL     1      41.797 -16.807   2.665  1.00  0.00    -0.034 A 
HETATM   16  C   UNL     1      42.413 -17.966   2.165  1.00  0.00     0.015 A 
HETATM   17  C   UNL     1      40.681 -16.210   1.845  1.00  0.00     0.050 C 
HETATM   18  C   UNL     1      43.442 -18.596   2.864  1.00  0.00    -0.061 A 
HETATM   19  C   UNL     1      44.050 -19.868   2.348  1.00  0.00     0.048 C 
HETATM   20  C   UNL     1      43.849 -18.062   4.087  1.00  0.00     0.015 A 
HETATM   21  C   UNL     1      43.275 -16.885   4.602  1.00  0.00    -0.034 A 
HETATM   22  C   UNL     1      43.762 -16.421   5.952  1.00  0.00     0.050 C 
ENDBRANCH   1  14
TORSDOF 1
ENDMDL
MODEL 2
REMARK VINA RESULT:      -8.2      0.109      1.954
REMARK  1 active torsions:
REMARK  status: ('A' for Active; 'I' for Inactive)
REMARK    1  A    between atoms: C_6  and  N_7 
ROOT
HETATM    1  N   UNL     1      41.514 -15.030   4.395  1.00  0.00    -0.320 N 
HETATM    2  C   UNL     1      40.638 -14.972   5.528  1.00  0.00     0.141 C 
HETATM    3  N   UNL     1      39.976 -16.010   5.953  1.00  0.00    -0.380 N 
HETATM    4  H   UNL     1      40.084 -16.890   5.467  1.00  0.00     0.158 HD
HETATM    5  H   UNL     1      39.362 -15.922   6.749  1.00  0.00     0.158 HD
HETATM    6  S   UNL     1      40.540 -13.400   6.239  1.00  0.00    -0.086 SA
HETATM    7  C   UNL     1      41.378 -12.682   4.791  1.00  0.00     0.093 C 
HETATM    8  C   UNL     1      42.333 -13.805   4.331  1.00  0.00     0.121 C 
HETATM    9  C   UNL     1      42.241 -11.450   4.889  1.00  0.00     0.158 C 
HETATM   10  S   UNL     1      43.227 -11.585   3.382  1.00  0.00     0.147 S 
HETATM   11  O   UNL     1      42.624 -10.755   2.363  1.00  0.00    -0.228 OA
HETATM   12  O   UNL     1      44.624 -11.489   3.745  1.00  0.00    -0.228 OA
HETATM   13  C   UNL     1      42.853 -13.309   3.002  1.00  0.00     0.167 C 
ENDROOT
BRANCH   1  14
HETATM   14  C   UNL     1      42.122 -16.203   3.903  1.00  0.00     0.048 A 
HETATM   15  C   UNL     1      43.174 -16.791   4.644  1.00  0.00    -0.034 A 
HETATM   16  C   UNL     1      43.802 -17.954   4.168  1.00  0.00     0.015 A 
HETATM   17  C   UNL     1      43.659 -16.233   5.958  1.00  0.00     0.050 C 
HETATM   18  C   UNL     1      43.430 -18.531   2.954  1.00  0.00    -0.061 A 
HETATM   19  C   UNL     1      44.151 -19.738   2.429  1.00  0.00     0.048 C 
HETATM   20  C   UNL     1      42.424 -17.924   2.202  1.00  0.00     0.015 A 
HETATM   21  C   UNL     1      41.753 -16.776   2.663  1.00  0.00    -0.034 A 
HETATM   22  C   UNL     1      40.711 -16.181   1.750  1.00  0.00     0.050 C 
ENDBRANCH   1  14
TORSDOF 1
ENDMDL
MODEL 3
REMARK VINA RESULT:      -7.3      1.937      2.257
REMARK  1 active torsions:
REMARK  status: ('A' for Active; 'I' for Inactive)
REMARK    1  A    between atoms: C_6  and  N_7 
ROOT
HETATM    1  N   UNL     1      42.083 -14.717   4.585  1.00  0.00    -0.320 N 
HETATM    2  C   UNL     1      40.716 -14.463   4.238  1.00  0.00     0.141 C 
HETATM    3  N   UNL     1      39.992 -15.321   3.577  1.00  0.00    -0.380 N 
HETATM    4  H   UNL     1      40.409 -16.199   3.299  1.00  0.00     0.158 HD
HETATM    5  H   UNL     1      39.036 -15.096   3.344  1.00  0.00     0.158 HD
HETATM    6  S   UNL     1      40.152 -12.916   4.761  1.00  0.00    -0.086 SA
HETATM    7  C   UNL     1      41.861 -12.404   5.123  1.00  0.00     0.093 C 
HETATM    8  C   UNL     1      42.546 -13.716   5.565  1.00  0.00     0.121 C 
HETATM    9  C   UNL     1      42.191 -11.407   6.205  1.00  0.00     0.158 C 
HETATM   10  S   UNL     1      43.938 -11.760   6.493  1.00  0.00     0.147 S 
HETATM   11  O   UNL     1      44.729 -10.807   5.747  1.00  0.00    -0.228 OA
HETATM   12  O   UNL     1      44.125 -11.993   7.909  1.00  0.00    -0.228 OA
HETATM   13  C   UNL     1      44.009 -13.347   5.639  1.00  0.00     0.167 C 
ENDROOT
BRANCH   1  14
HETATM   14  C   UNL     1      42.665 -15.997   4.691  1.00  0.00     0.048 A 
HETATM   15  C   UNL     1      43.239 -16.586   3.540  1.00  0.00    -0.034 A 
HETATM   16  C   UNL     1      43.815 -17.864   3.619  1.00  0.00     0.015 A 
HETATM   17  C   UNL     1      43.282 -15.891   2.203  1.00  0.00     0.050 C 
HETATM   18  C   UNL     1      43.806 -18.588   4.811  1.00  0.00    -0.061 A 
HETATM   19  C   UNL     1      44.371 -19.978   4.866  1.00  0.00     0.048 C 
HETATM   20  C   UNL     1      43.199 -18.025   5.935  1.00  0.00     0.015 A 
HETATM   21  C   UNL     1      42.640 -16.734   5.899  1.00  0.00    -0.034 A 
HETATM   22  C   UNL     1      41.974 -16.243   7.159  1.00  0.00     0.050 C 
ENDBRANCH   1  14
TORSDOF 1
ENDMDL
MODEL 4
REMARK VINA RESULT:      -7.1      1.631      1.883
REMARK  1 active torsions:
REMARK  status: ('A' for Active; 'I' for Inactive)
REMARK    1  A    between atoms: C_6  and  N_7 
ROOT
HETATM    1  N   UNL     1      40.728 -14.141   4.106  1.00  0.00    -0.320 N 
HETATM    2  C   UNL     1      40.120 -13.915   5.384  1.00  0.00     0.141 C 
HETATM    3  N   UNL     1      39.928 -14.873   6.245  1.00  0.00    -0.380 N 
HETATM    4  H   UNL     1      40.218 -15.811   6.005  1.00  0.00     0.158 HD
HETATM    5  H   UNL     1      39.486 -14.671   7.130  1.00  0.00     0.158 HD
HETATM    6  S   UNL     1      39.658 -12.270   5.642  1.00  0.00    -0.086 SA
HETATM    7  C   UNL     1      39.917 -11.910   3.876  1.00  0.00     0.093 C 
HETATM    8  C   UNL     1      41.076 -12.851   3.481  1.00  0.00     0.121 C 
HETATM    9  C   UNL     1      40.335 -10.547   3.385  1.00  0.00     0.158 C 
HETATM   10  S   UNL     1      40.996 -10.944   1.753  1.00  0.00     0.147 S 
HETATM   11  O   UNL     1      39.970 -10.690   0.766  1.00  0.00    -0.228 OA
HETATM   12  O   UNL     1      42.329 -10.389   1.657  1.00  0.00    -0.228 OA
HETATM   13  C   UNL     1      41.137 -12.729   1.976  1.00  0.00     0.167 C 
ENDROOT
BRANCH   1  14
HETATM   14  C   UNL     1      41.576 -15.223   3.795  1.00  0.00     0.048 A 
HETATM   15  C   UNL     1      41.160 -16.161   2.820  1.00  0.00    -0.034 A 
HETATM   16  C   UNL     1      41.983 -17.254   2.501  1.00  0.00     0.015 A 
HETATM   17  C   UNL     1      39.856 -16.039   2.073  1.00  0.00     0.050 C 
HETATM   18  C   UNL     1      43.199 -17.456   3.153  1.00  0.00    -0.061 A 
HETATM   19  C   UNL     1      44.040 -18.661   2.846  1.00  0.00     0.048 C 
HETATM   20  C   UNL     1      43.587 -16.556   4.147  1.00  0.00     0.015 A 
HETATM   21  C   UNL     1      42.802 -15.434   4.469  1.00  0.00    -0.034 A 
HETATM   22  C   UNL     1      43.297 -14.552   5.587  1.00  0.00     0.050 C 
ENDBRANCH   1  14
TORSDOF 1
ENDMDL
MODEL 5
REMARK VINA RESULT:      -7.0      2.035      2.771
REMARK  1 active torsions:
REMARK  status: ('A' for Active; 'I' for Inactive)
REMARK    1  A    between atoms: C_6  and  N_7 
ROOT
HETATM    1  N   UNL     1      41.927 -14.299   4.581  1.00  0.00    -0.320 N 
HETATM    2  C   UNL     1      40.554 -13.994   4.303  1.00  0.00     0.141 C 
HETATM    3  N   UNL     1      39.796 -14.775   3.587  1.00  0.00    -0.380 N 
HETATM    4  H   UNL     1      40.189 -15.629   3.214  1.00  0.00     0.158 HD
HETATM    5  H   UNL     1      38.837 -14.516   3.407  1.00  0.00     0.158 HD
HETATM    6  S   UNL     1      40.032 -12.496   4.988  1.00  0.00    -0.086 SA
HETATM    7  C   UNL     1      41.760 -12.046   5.342  1.00  0.00     0.093 C 
HETATM    8  C   UNL     1      42.436 -13.403   5.636  1.00  0.00     0.121 C 
HETATM    9  C   UNL     1      42.140 -11.161   6.503  1.00  0.00     0.158 C 
HETATM   10  S   UNL     1      43.889 -11.563   6.701  1.00  0.00     0.147 S 
HETATM   11  O   UNL     1      44.673 -10.555   6.022  1.00  0.00    -0.228 OA
HETATM   12  O   UNL     1      44.115 -11.934   8.081  1.00  0.00    -0.228 OA
HETATM   13  C   UNL     1      43.907 -13.063   5.698  1.00  0.00     0.167 C 
ENDROOT
BRANCH   1  14
HETATM   14  C   UNL     1      42.490 -15.591   4.547  1.00  0.00     0.048 A 
HETATM   15  C   UNL     1      42.438 -16.392   5.712  1.00  0.00    -0.034 A 
HETATM   16  C   UNL     1      43.002 -17.678   5.705  1.00  0.00     0.015 A 
HETATM   17  C   UNL     1      41.780 -15.934   6.989  1.00  0.00     0.050 C 
HETATM   18  C   UNL     1      43.646 -18.178   4.574  1.00  0.00    -0.061 A 
HETATM   19  C   UNL     1      44.298 -19.531   4.600  1.00  0.00     0.048 C 
HETATM   20  C   UNL     1      43.737 -17.370   3.439  1.00  0.00     0.015 A 
HETATM   21  C   UNL     1      43.156 -16.089   3.402  1.00  0.00    -0.034 A 
HETATM   22  C   UNL     1      43.351 -15.288   2.140  1.00  0.00     0.050 C 
ENDBRANCH   1  14
TORSDOF 1
ENDMDL
MODEL 6
REMARK VINA RESULT:      -6.9      2.674      4.000
REMARK  1 active torsions:
REMARK  status: ('A' for Active; 'I' for Inactive)
REMARK    1  A    between atoms: C_6  and  N_7 
ROOT
HETATM    1  N   UNL     1      42.451 -12.927   5.827  1.00  0.00    -0.320 N 
HETATM    2  C   UNL     1      43.556 -12.195   6.375  1.00  0.00     0.141 C 
HETATM    3  N   UNL     1      44.734 -12.728   6.537  1.00  0.00    -0.380 N 
HETATM    4  H   UNL     1      44.876 -13.692   6.268  1.00  0.00     0.158 HD
HETATM    5  H   UNL     1      45.482 -12.179   6.937  1.00  0.00     0.158 HD
HETATM    6  S   UNL     1      43.157 -10.571   6.807  1.00  0.00    -0.086 SA
HETATM    7  C   UNL     1      41.385 -10.948   6.625  1.00  0.00     0.093 C 
HETATM    8  C   UNL     1      41.353 -12.000   5.495  1.00  0.00     0.121 C 
HETATM    9  C   UNL     1      40.378  -9.903   6.216  1.00  0.00     0.158 C 
HETATM   10  S   UNL     1      39.014 -10.933   5.633  1.00  0.00     0.147 S 
HETATM   11  O   UNL     1      38.047 -11.063   6.700  1.00  0.00    -0.228 OA
HETATM   12  O   UNL     1      38.656 -10.499   4.300  1.00  0.00    -0.228 OA
HETATM   13  C   UNL     1      39.923 -12.487   5.501  1.00  0.00     0.167 C 
ENDROOT
BRANCH   1  14
HETATM   14  C   UNL     1      42.565 -14.067   5.006  1.00  0.00     0.048 A 
HETATM   15  C   UNL     1      42.348 -15.344   5.574  1.00  0.00    -0.034 A 
HETATM   16  C   UNL     1      42.466 -16.495   4.777  1.00  0.00     0.015 A 
HETATM   17  C   UNL     1      41.972 -15.542   7.021  1.00  0.00     0.050 C 
HETATM   18  C   UNL     1      42.827 -16.410   3.434  1.00  0.00    -0.061 A 
HETATM   19  C   UNL     1      43.009 -17.652   2.610  1.00  0.00     0.048 C 
HETATM   20  C   UNL     1      43.085 -15.152   2.885  1.00  0.00     0.015 A 
HETATM   21  C   UNL     1      42.946 -13.977   3.646  1.00  0.00    -0.034 A 
HETATM   22  C   UNL     1      43.290 -12.677   2.964  1.00  0.00     0.050 C 
ENDBRANCH   1  14
TORSDOF 1
ENDMDL
MODEL 7
REMARK VINA RESULT:      -6.7      2.714      3.845
REMARK  1 active torsions:
REMARK  status: ('A' for Active; 'I' for Inactive)
REMARK    1  A    between atoms: C_6  and  N_7 
ROOT
HETATM    1  N   UNL     1      42.510 -12.806   5.872  1.00  0.00    -0.320 N 
HETATM    2  C   UNL     1      43.587 -12.044   6.433  1.00  0.00     0.141 C 
HETATM    3  N   UNL     1      44.778 -12.541   6.605  1.00  0.00    -0.380 N 
HETATM    4  H   UNL     1      44.951 -13.500   6.334  1.00  0.00     0.158 HD
HETATM    5  H   UNL     1      45.505 -11.972   7.014  1.00  0.00     0.158 HD
HETATM    6  S   UNL     1      43.134 -10.434   6.867  1.00  0.00    -0.086 SA
HETATM    7  C   UNL     1      41.376 -10.864   6.666  1.00  0.00     0.093 C 
HETATM    8  C   UNL     1      41.387 -11.912   5.532  1.00  0.00     0.121 C 
HETATM    9  C   UNL     1      40.342  -9.849   6.251  1.00  0.00     0.158 C 
HETATM   10  S   UNL     1      39.015 -10.917   5.651  1.00  0.00     0.147 S 
HETATM   11  O   UNL     1      38.042 -11.080   6.708  1.00  0.00    -0.228 OA
HETATM   12  O   UNL     1      38.657 -10.488   4.317  1.00  0.00    -0.228 OA
HETATM   13  C   UNL     1      39.972 -12.442   5.523  1.00  0.00     0.167 C 
ENDROOT
BRANCH   1  14
HETATM   14  C   UNL     1      42.665 -13.939   5.048  1.00  0.00     0.048 A 
HETATM   15  C   UNL     1      42.996 -13.754   3.684  1.00  0.00    -0.034 A 
HETATM   16  C   UNL     1      43.145 -14.868   2.841  1.00  0.00     0.015 A 
HETATM   17  C   UNL     1      43.217 -12.392   3.075  1.00  0.00     0.050 C 
HETATM   18  C   UNL     1      42.943 -16.164   3.314  1.00  0.00    -0.061 A 
HETATM   19  C   UNL     1      43.046 -17.341   2.387  1.00  0.00     0.048 C 
HETATM   20  C   UNL     1      42.572 -16.343   4.648  1.00  0.00     0.015 A 
HETATM   21  C   UNL     1      42.444 -15.252   5.527  1.00  0.00    -0.034 A 
HETATM   22  C   UNL     1      41.999 -15.558   6.935  1.00  0.00     0.050 C 
ENDBRANCH   1  14
TORSDOF 1
ENDMDL
MODEL 8
REMARK VINA RESULT:      -6.6      9.579     10.692
REMARK  1 active torsions:
REMARK  status: ('A' for Active; 'I' for Inactive)
REMARK    1  A    between atoms: C_6  and  N_7 
ROOT
HETATM    1  N   UNL     1      41.682  -8.423  11.172  1.00  0.00    -0.320 N 
HETATM    2  C   UNL     1      40.499  -9.220  11.028  1.00  0.00     0.141 C 
HETATM    3  N   UNL     1      40.251  -9.915   9.954  1.00  0.00    -0.380 N 
HETATM    4  H   UNL     1      40.917  -9.891   9.193  1.00  0.00     0.158 HD
HETATM    5  H   UNL     1      39.401 -10.454   9.891  1.00  0.00     0.158 HD
HETATM    6  S   UNL     1      39.449  -9.143  12.398  1.00  0.00    -0.086 SA
HETATM    7  C   UNL     1      40.386  -7.724  13.047  1.00  0.00     0.093 C 
HETATM    8  C   UNL     1      41.831  -7.996  12.576  1.00  0.00     0.121 C 
HETATM    9  C   UNL     1      40.504  -7.445  14.525  1.00  0.00     0.158 C 
HETATM   10  S   UNL     1      41.957  -6.374  14.571  1.00  0.00     0.147 S 
HETATM   11  O   UNL     1      41.514  -4.999  14.619  1.00  0.00    -0.228 OA
HETATM   12  O   UNL     1      42.897  -6.927  15.521  1.00  0.00    -0.228 OA
HETATM   13  C   UNL     1      42.562  -6.716  12.905  1.00  0.00     0.167 C 
ENDROOT
BRANCH   1  14
HETATM   14  C   UNL     1      42.881  -8.621  10.458  1.00  0.00     0.048 A 
HETATM   15  C   UNL     1      43.188  -7.756   9.381  1.00  0.00    -0.034 A 
HETATM   16  C   UNL     1      44.373  -7.941   8.648  1.00  0.00     0.015 A 
HETATM   17  C   UNL     1      42.299  -6.607   8.977  1.00  0.00     0.050 C 
HETATM   18  C   UNL     1      45.246  -8.987   8.940  1.00  0.00    -0.061 A 
HETATM   19  C   UNL     1      46.478  -9.209   8.110  1.00  0.00     0.048 C 
HETATM   20  C   UNL     1      44.920  -9.868   9.973  1.00  0.00     0.015 A 
HETATM   21  C   UNL     1      43.758  -9.694  10.747  1.00  0.00    -0.034 A 
HETATM   22  C   UNL     1      43.483 -10.727  11.809  1.00  0.00     0.050 C 
ENDBRANCH   1  14
TORSDOF 1
ENDMDL
MODEL 9
REMARK VINA RESULT:      -6.4      2.186      3.681
REMARK  1 active torsions:
REMARK  status: ('A' for Active; 'I' for Inactive)
REMARK    1  A    between atoms: C_6  and  N_7 
ROOT
HETATM    1  N   UNL     1      41.322 -14.151   4.448  1.00  0.00    -0.320 N 
HETATM    2  C   UNL     1      41.147 -15.280   5.314  1.00  0.00     0.141 C 
HETATM    3  N   UNL     1      40.323 -16.251   5.038  1.00  0.00    -0.380 N 
HETATM    4  H   UNL     1      39.788 -16.208   4.181  1.00  0.00     0.158 HD
HETATM    5  H   UNL     1      40.223 -17.022   5.681  1.00  0.00     0.158 HD
HETATM    6  S   UNL     1      42.111 -15.202   6.746  1.00  0.00    -0.086 SA
HETATM    7  C   UNL     1      42.489 -13.454   6.407  1.00  0.00     0.093 C 
HETATM    8  C   UNL     1      42.507 -13.378   4.865  1.00  0.00     0.121 C 
HETATM    9  C   UNL     1      43.780 -12.810   6.846  1.00  0.00     0.158 C 
HETATM   10  S   UNL     1      43.847 -11.370   5.759  1.00  0.00     0.147 S 
HETATM   11  O   UNL     1      43.342 -10.224   6.482  1.00  0.00    -0.228 OA
HETATM   12  O   UNL     1      45.128 -11.369   5.086  1.00  0.00    -0.228 OA
HETATM   13  C   UNL     1      42.585 -11.897   4.581  1.00  0.00     0.167 C 
ENDROOT
BRANCH   1  14
HETATM   14  C   UNL     1      41.034 -14.139   3.068  1.00  0.00     0.048 A 
HETATM   15  C   UNL     1      39.948 -13.360   2.602  1.00  0.00    -0.034 A 
HETATM   16  C   UNL     1      39.636 -13.341   1.232  1.00  0.00     0.015 A 
HETATM   17  C   UNL     1      39.098 -12.515   3.516  1.00  0.00     0.050 C 
HETATM   18  C   UNL     1      40.358 -14.105   0.316  1.00  0.00    -0.061 A 
HETATM   19  C   UNL     1      39.974 -14.122  -1.135  1.00  0.00     0.048 C 
HETATM   20  C   UNL     1      41.399 -14.908   0.783  1.00  0.00     0.015 A 
HETATM   21  C   UNL     1      41.759 -14.927   2.144  1.00  0.00    -0.034 A 
HETATM   22  C   UNL     1      42.872 -15.863   2.543  1.00  0.00     0.050 C 
ENDBRANCH   1  14
TORSDOF 1
ENDMDL
MODEL 10
REMARK VINA RESULT:      -6.3      3.234      3.860
REMARK  1 active torsions:
REMARK  status: ('A' for Active; 'I' for Inactive)
REMARK    1  A    between atoms: C_6  and  N_7 
ROOT
HETATM    1  N   UNL     1      40.292 -13.678   2.118  1.00  0.00    -0.320 N 
HETATM    2  C   UNL     1      39.633 -12.939   3.155  1.00  0.00     0.141 C 
HETATM    3  N   UNL     1      39.501 -13.400   4.366  1.00  0.00    -0.380 N 
HETATM    4  H   UNL     1      39.877 -14.313   4.584  1.00  0.00     0.158 HD
HETATM    5  H   UNL     1      39.021 -12.850   5.063  1.00  0.00     0.158 HD
HETATM    6  S   UNL     1      39.025 -11.410   2.627  1.00  0.00    -0.086 SA
HETATM    7  C   UNL     1      39.298 -11.890   0.892  1.00  0.00     0.093 C 
HETATM    8  C   UNL     1      40.544 -12.801   0.959  1.00  0.00     0.121 C 
HETATM    9  C   UNL     1      39.611 -10.880  -0.183  1.00  0.00     0.158 C 
HETATM   10  S   UNL     1      40.346 -11.930  -1.455  1.00  0.00     0.147 S 
HETATM   11  O   UNL     1      39.329 -12.254  -2.429  1.00  0.00    -0.228 OA
HETATM   12  O   UNL     1      41.629 -11.368  -1.820  1.00  0.00    -0.228 OA
HETATM   13  C   UNL     1      40.633 -13.387  -0.430  1.00  0.00     0.167 C 
ENDROOT
BRANCH   1  14
HETATM   14  C   UNL     1      41.237 -14.702   2.332  1.00  0.00     0.048 A 
HETATM   15  C   UNL     1      40.884 -16.036   2.019  1.00  0.00    -0.034 A 
HETATM   16  C   UNL     1      41.806 -17.074   2.234  1.00  0.00     0.015 A 
HETATM   17  C   UNL     1      39.545 -16.412   1.437  1.00  0.00     0.050 C 
HETATM   18  C   UNL     1      43.062 -16.823   2.784  1.00  0.00    -0.061 A 
HETATM   19  C   UNL     1      44.014 -17.949   3.065  1.00  0.00     0.048 C 
HETATM   20  C   UNL     1      43.392 -15.513   3.135  1.00  0.00     0.015 A 
HETATM   21  C   UNL     1      42.505 -14.445   2.905  1.00  0.00    -0.034 A 
HETATM   22  C   UNL     1      42.948 -13.078   3.361  1.00  0.00     0.050 C 
ENDBRANCH   1  14
TORSDOF 1
ENDMDL
