MODEL 1
REMARK VINA RESULT:      -7.9      0.000      0.000
REMARK  2 active torsions:
REMARK  status: ('A' for Active; 'I' for Inactive)
REMARK    1  A    between atoms: C_5  and  C_6 
REMARK       I    between atoms: C_6  and  N_7 
REMARK    2  A    between atoms: N_7  and  C_8 
ROOT
HETATM    1  C   UNL     1      42.954 -15.972   5.446  1.00  0.00     0.262 C 
HETATM    2  N   UNL     1      42.749 -14.755   4.837  1.00  0.00    -0.306 N 
HETATM    3  O   UNL     1      42.995 -16.198   6.652  1.00  0.00    -0.267 OA
HETATM    4  H   UNL     1      42.733 -14.720   3.821  1.00  0.00     0.170 HD
ENDROOT
BRANCH   2   5
HETATM    5  C   UNL     1      42.588 -13.549   5.482  1.00  0.00     0.152 A 
HETATM    6  N   UNL     1      41.426 -12.948   5.732  1.00  0.00    -0.156 NA
HETATM    7  N   UNL     1      41.759 -11.828   6.387  1.00  0.00    -0.275 N 
HETATM    8  H   UNL     1      41.015 -11.207   6.685  1.00  0.00     0.189 HD
HETATM    9  C   UNL     1      43.105 -11.676   6.582  1.00  0.00     0.071 A 
HETATM   10  C   UNL     1      43.701 -10.573   7.280  1.00  0.00     0.034 A 
HETATM   11  C   UNL     1      43.670 -12.783   5.985  1.00  0.00     0.084 A 
HETATM   12  S   UNL     1      42.759  -9.306   7.963  1.00  0.00    -0.076 SA
HETATM   13  C   UNL     1      45.050 -10.364   7.513  1.00  0.00     0.023 A 
HETATM   14  C   UNL     1      44.134  -8.521   8.552  1.00  0.00     0.075 A 
HETATM   15 CL   UNL     1      43.969  -7.054   9.429  1.00  0.00    -0.076 Cl
HETATM   16  C   UNL     1      45.302  -9.170   8.254  1.00  0.00     0.033 A 
ENDBRANCH   2   5
BRANCH   1  17
HETATM   17  C   UNL     1      43.154 -17.096   4.481  1.00  0.00     0.097 A 
HETATM   18  C   UNL     1      43.963 -18.116   4.816  1.00  0.00     0.109 A 
HETATM   19  N   UNL     1      44.221 -19.186   3.997  1.00  0.00    -0.368 N 
HETATM   20  C   UNL     1      43.663 -19.305   2.743  1.00  0.00     0.008 A 
HETATM   21  H   UNL     1      44.855 -19.911   4.327  1.00  0.00     0.165 HD
HETATM   22  C   UNL     1      44.022 -20.516   1.931  1.00  0.00     0.068 C 
HETATM   23  C   UNL     1      42.829 -18.360   2.275  1.00  0.00     0.080 A 
HETATM   24  C   UNL     1      42.524 -17.180   3.131  1.00  0.00     0.190 A 
HETATM   25  O   UNL     1      41.772 -16.300   2.714  1.00  0.00    -0.287 OA
ENDBRANCH   1  17
TORSDOF 2
ENDMDL
MODEL 2
REMARK VINA RESULT:      -7.9      4.477      8.949
REMARK  2 active torsions:
REMARK  status: ('A' for Active; 'I' for Inactive)
REMARK    1  A    between atoms: C_5  and  C_6 
REMARK       I    between atoms: C_6  and  N_7 
REMARK    2  A    between atoms: N_7  and  C_8 
ROOT
HETATM    1  C   UNL     1      43.460 -11.381   6.500  1.00  0.00     0.262 C 
HETATM    2  N   UNL     1      42.787 -12.570   6.669  1.00  0.00    -0.306 N 
HETATM    3  O   UNL     1      44.046 -11.000   5.490  1.00  0.00    -0.267 OA
HETATM    4  H   UNL     1      42.341 -12.749   7.566  1.00  0.00     0.170 HD
ENDROOT
BRANCH   2   5
HETATM    5  C   UNL     1      42.679 -13.575   5.734  1.00  0.00     0.152 A 
HETATM    6  N   UNL     1      41.981 -13.514   4.602  1.00  0.00    -0.156 NA
HETATM    7  N   UNL     1      42.187 -14.699   4.013  1.00  0.00    -0.275 N 
HETATM    8  H   UNL     1      41.744 -14.875   3.118  1.00  0.00     0.189 HD
HETATM    9  C   UNL     1      43.005 -15.538   4.720  1.00  0.00     0.071 A 
HETATM   10  C   UNL     1      43.394 -16.848   4.283  1.00  0.00     0.034 A 
HETATM   11  C   UNL     1      43.329 -14.829   5.858  1.00  0.00     0.084 A 
HETATM   12  S   UNL     1      42.861 -17.507   2.786  1.00  0.00    -0.076 SA
HETATM   13  C   UNL     1      44.219 -17.739   4.948  1.00  0.00     0.023 A 
HETATM   14  C   UNL     1      43.726 -18.935   3.040  1.00  0.00     0.075 A 
HETATM   15 CL   UNL     1      43.680 -20.182   1.860  1.00  0.00    -0.076 Cl
HETATM   16  C   UNL     1      44.413 -18.955   4.223  1.00  0.00     0.033 A 
ENDBRANCH   2   5
BRANCH   1  17
HETATM   17  C   UNL     1      43.453 -10.513   7.717  1.00  0.00     0.097 A 
HETATM   18  C   UNL     1      42.381  -9.740   7.968  1.00  0.00     0.109 A 
HETATM   19  N   UNL     1      42.283  -8.901   9.049  1.00  0.00    -0.368 N 
HETATM   20  C   UNL     1      43.290  -8.778   9.980  1.00  0.00     0.008 A 
HETATM   21  H   UNL     1      41.438  -8.344   9.158  1.00  0.00     0.165 HD
HETATM   22  C   UNL     1      43.076  -7.824  11.119  1.00  0.00     0.068 C 
HETATM   23  C   UNL     1      44.422  -9.494   9.859  1.00  0.00     0.080 A 
HETATM   24  C   UNL     1      44.572 -10.416   8.699  1.00  0.00     0.190 A 
HETATM   25  O   UNL     1      45.605 -11.070   8.566  1.00  0.00    -0.287 OA
ENDBRANCH   1  17
TORSDOF 2
ENDMDL
MODEL 3
REMARK VINA RESULT:      -7.8      4.539      8.888
REMARK  2 active torsions:
REMARK  status: ('A' for Active; 'I' for Inactive)
REMARK    1  A    between atoms: C_5  and  C_6 
REMARK       I    between atoms: C_6  and  N_7 
REMARK    2  A    between atoms: N_7  and  C_8 
ROOT
HETATM    1  C   UNL     1      44.058 -11.545   7.274  1.00  0.00     0.262 C 
HETATM    2  N   UNL     1      43.016 -12.418   7.056  1.00  0.00    -0.306 N 
HETATM    3  O   UNL     1      45.086 -11.441   6.611  1.00  0.00    -0.267 OA
HETATM    4  H   UNL     1      42.220 -12.387   7.688  1.00  0.00     0.170 HD
ENDROOT
BRANCH   2   5
HETATM    5  C   UNL     1      42.958 -13.371   6.063  1.00  0.00     0.152 A 
HETATM    6  N   UNL     1      42.491 -13.182   4.830  1.00  0.00    -0.156 NA
HETATM    7  N   UNL     1      42.652 -14.365   4.223  1.00  0.00    -0.275 N 
HETATM    8  H   UNL     1      42.363 -14.453   3.255  1.00  0.00     0.189 HD
HETATM    9  C   UNL     1      43.217 -15.327   5.018  1.00  0.00     0.071 A 
HETATM   10  C   UNL     1      43.513 -16.662   4.585  1.00  0.00     0.034 A 
HETATM   11  C   UNL     1      43.412 -14.703   6.232  1.00  0.00     0.084 A 
HETATM   12  S   UNL     1      43.185 -17.198   2.983  1.00  0.00    -0.076 SA
HETATM   13  C   UNL     1      44.084 -17.676   5.336  1.00  0.00     0.023 A 
HETATM   14  C   UNL     1      43.804 -18.735   3.308  1.00  0.00     0.075 A 
HETATM   15 CL   UNL     1      43.820 -19.928   2.072  1.00  0.00    -0.076 Cl
HETATM   16  C   UNL     1      44.254 -18.883   4.592  1.00  0.00     0.033 A 
ENDBRANCH   2   5
BRANCH   1  17
HETATM   17  C   UNL     1      43.861 -10.667   8.467  1.00  0.00     0.097 A 
HETATM   18  C   UNL     1      44.773 -10.682   9.454  1.00  0.00     0.109 A 
HETATM   19  N   UNL     1      44.677  -9.924  10.594  1.00  0.00    -0.368 N 
HETATM   20  C   UNL     1      43.620  -9.071  10.824  1.00  0.00     0.008 A 
HETATM   21  H   UNL     1      45.410 -10.004  11.296  1.00  0.00     0.165 HD
HETATM   22  C   UNL     1      43.616  -8.295  12.109  1.00  0.00     0.068 C 
HETATM   23  C   UNL     1      42.632  -8.950   9.920  1.00  0.00     0.080 A 
HETATM   24  C   UNL     1      42.696  -9.757   8.670  1.00  0.00     0.190 A 
HETATM   25  O   UNL     1      41.794  -9.667   7.837  1.00  0.00    -0.287 OA
ENDBRANCH   1  17
TORSDOF 2
ENDMDL
MODEL 4
REMARK VINA RESULT:      -7.8      5.731      7.222
REMARK  2 active torsions:
REMARK  status: ('A' for Active; 'I' for Inactive)
REMARK    1  A    between atoms: C_5  and  C_6 
REMARK       I    between atoms: C_6  and  N_7 
REMARK    2  A    between atoms: N_7  and  C_8 
ROOT
HETATM    1  C   UNL     1      42.944 -16.091   2.256  1.00  0.00     0.262 C 
HETATM    2  N   UNL     1      41.719 -15.561   2.591  1.00  0.00    -0.306 N 
HETATM    3  O   UNL     1      43.690 -15.718   1.354  1.00  0.00    -0.267 OA
HETATM    4  H   UNL     1      41.212 -15.972   3.372  1.00  0.00     0.170 HD
ENDROOT
BRANCH   2   5
HETATM    5  C   UNL     1      41.085 -14.524   1.942  1.00  0.00     0.152 A 
HETATM    6  N   UNL     1      41.092 -13.248   2.321  1.00  0.00    -0.156 NA
HETATM    7  N   UNL     1      40.371 -12.614   1.386  1.00  0.00    -0.275 N 
HETATM    8  H   UNL     1      40.246 -11.612   1.474  1.00  0.00     0.189 HD
HETATM    9  C   UNL     1      39.894 -13.434   0.400  1.00  0.00     0.071 A 
HETATM   10  C   UNL     1      39.121 -12.985  -0.722  1.00  0.00     0.034 A 
HETATM   11  C   UNL     1      40.337 -14.693   0.750  1.00  0.00     0.084 A 
HETATM   12  S   UNL     1      38.712 -11.329  -0.945  1.00  0.00    -0.076 SA
HETATM   13  C   UNL     1      38.614 -13.761  -1.751  1.00  0.00     0.023 A 
HETATM   14  C   UNL     1      37.891 -11.665  -2.383  1.00  0.00     0.075 A 
HETATM   15 CL   UNL     1      37.153 -10.388  -3.263  1.00  0.00    -0.076 Cl
HETATM   16  C   UNL     1      37.899 -12.992  -2.719  1.00  0.00     0.033 A 
ENDBRANCH   2   5
BRANCH   1  17
HETATM   17  C   UNL     1      43.346 -17.251   3.109  1.00  0.00     0.097 A 
HETATM   18  C   UNL     1      43.454 -18.471   2.554  1.00  0.00     0.109 A 
HETATM   19  N   UNL     1      43.804 -19.599   3.253  1.00  0.00    -0.368 N 
HETATM   20  C   UNL     1      44.077 -19.573   4.603  1.00  0.00     0.008 A 
HETATM   21  H   UNL     1      43.853 -20.485   2.755  1.00  0.00     0.165 HD
HETATM   22  C   UNL     1      44.443 -20.870   5.265  1.00  0.00     0.068 C 
HETATM   23  C   UNL     1      44.012 -18.419   5.290  1.00  0.00     0.080 A 
HETATM   24  C   UNL     1      43.634 -17.172   4.571  1.00  0.00     0.190 A 
HETATM   25  O   UNL     1      43.558 -16.109   5.187  1.00  0.00    -0.287 OA
ENDBRANCH   1  17
TORSDOF 2
ENDMDL
MODEL 5
REMARK VINA RESULT:      -7.5      4.558      8.910
REMARK  2 active torsions:
REMARK  status: ('A' for Active; 'I' for Inactive)
REMARK    1  A    between atoms: C_5  and  C_6 
REMARK       I    between atoms: C_6  and  N_7 
REMARK    2  A    between atoms: N_7  and  C_8 
ROOT
HETATM    1  C   UNL     1      44.222 -11.971   7.232  1.00  0.00     0.262 C 
HETATM    2  N   UNL     1      43.275 -12.969   7.275  1.00  0.00    -0.306 N 
HETATM    3  O   UNL     1      45.328 -12.024   6.701  1.00  0.00    -0.267 OA
HETATM    4  H   UNL     1      42.395 -12.779   7.749  1.00  0.00     0.170 HD
ENDROOT
BRANCH   2   5
HETATM    5  C   UNL     1      43.415 -14.237   6.755  1.00  0.00     0.152 A 
HETATM    6  N   UNL     1      43.699 -15.336   7.450  1.00  0.00    -0.156 NA
HETATM    7  N   UNL     1      43.712 -16.318   6.539  1.00  0.00    -0.275 N 
HETATM    8  H   UNL     1      43.908 -17.262   6.852  1.00  0.00     0.189 HD
HETATM    9  C   UNL     1      43.440 -15.899   5.265  1.00  0.00     0.071 A 
HETATM   10  C   UNL     1      43.372 -16.767   4.125  1.00  0.00     0.034 A 
HETATM   11  C   UNL     1      43.256 -14.537   5.379  1.00  0.00     0.084 A 
HETATM   12  S   UNL     1      43.625 -18.464   4.252  1.00  0.00    -0.076 SA
HETATM   13  C   UNL     1      43.099 -16.407   2.816  1.00  0.00     0.023 A 
HETATM   14  C   UNL     1      43.364 -18.686   2.598  1.00  0.00     0.075 A 
HETATM   15 CL   UNL     1      43.453 -20.263   1.924  1.00  0.00    -0.076 Cl
HETATM   16  C   UNL     1      43.093 -17.525   1.927  1.00  0.00     0.033 A 
ENDBRANCH   2   5
BRANCH   1  17
HETATM   17  C   UNL     1      43.805 -10.720   7.936  1.00  0.00     0.097 A 
HETATM   18  C   UNL     1      44.538 -10.269   8.968  1.00  0.00     0.109 A 
HETATM   19  N   UNL     1      44.232  -9.140   9.686  1.00  0.00    -0.368 N 
HETATM   20  C   UNL     1      43.130  -8.364   9.402  1.00  0.00     0.008 A 
HETATM   21  H   UNL     1      44.838  -8.876  10.459  1.00  0.00     0.165 HD
HETATM   22  C   UNL     1      42.890  -7.154  10.257  1.00  0.00     0.068 C 
HETATM   23  C   UNL     1      42.306  -8.692   8.391  1.00  0.00     0.080 A 
HETATM   24  C   UNL     1      42.600  -9.912   7.588  1.00  0.00     0.190 A 
HETATM   25  O   UNL     1      41.850 -10.233   6.668  1.00  0.00    -0.287 OA
ENDBRANCH   1  17
TORSDOF 2
ENDMDL
MODEL 6
REMARK VINA RESULT:      -7.2      5.432      6.142
REMARK  2 active torsions:
REMARK  status: ('A' for Active; 'I' for Inactive)
REMARK    1  A    between atoms: C_5  and  C_6 
REMARK       I    between atoms: C_6  and  N_7 
REMARK    2  A    between atoms: N_7  and  C_8 
ROOT
HETATM    1  C   UNL     1      42.608 -16.348   2.072  1.00  0.00     0.262 C 
HETATM    2  N   UNL     1      41.330 -15.947   2.385  1.00  0.00    -0.306 N 
HETATM    3  O   UNL     1      43.320 -15.913   1.170  1.00  0.00    -0.267 OA
HETATM    4  H   UNL     1      40.861 -16.396   3.169  1.00  0.00     0.170 HD
ENDROOT
BRANCH   2   5
HETATM    5  C   UNL     1      40.595 -14.997   1.710  1.00  0.00     0.152 A 
HETATM    6  N   UNL     1      40.135 -15.108   0.466  1.00  0.00    -0.156 NA
HETATM    7  N   UNL     1      39.469 -13.966   0.248  1.00  0.00    -0.275 N 
HETATM    8  H   UNL     1      39.024 -13.833  -0.653  1.00  0.00     0.189 HD
HETATM    9  C   UNL     1      39.472 -13.108   1.315  1.00  0.00     0.071 A 
HETATM   10  C   UNL     1      38.806 -11.837   1.332  1.00  0.00     0.034 A 
HETATM   11  C   UNL     1      40.215 -13.755   2.279  1.00  0.00     0.084 A 
HETATM   12  S   UNL     1      37.911 -11.256  -0.017  1.00  0.00    -0.076 SA
HETATM   13  C   UNL     1      38.769 -10.929   2.377  1.00  0.00     0.023 A 
HETATM   14  C   UNL     1      37.491  -9.838   0.798  1.00  0.00     0.075 A 
HETATM   15 CL   UNL     1      36.510  -8.664   0.019  1.00  0.00    -0.076 Cl
HETATM   16  C   UNL     1      38.002  -9.765   2.066  1.00  0.00     0.033 A 
ENDBRANCH   2   5
BRANCH   1  17
HETATM   17  C   UNL     1      43.123 -17.442   2.951  1.00  0.00     0.097 A 
HETATM   18  C   UNL     1      43.266 -18.680   2.447  1.00  0.00     0.109 A 
HETATM   19  N   UNL     1      43.718 -19.752   3.174  1.00  0.00    -0.368 N 
HETATM   20  C   UNL     1      44.068 -19.646   4.502  1.00  0.00     0.008 A 
HETATM   21  H   UNL     1      43.787 -20.658   2.715  1.00  0.00     0.165 HD
HETATM   22  C   UNL     1      44.544 -20.887   5.199  1.00  0.00     0.068 C 
HETATM   23  C   UNL     1      43.980 -18.465   5.139  1.00  0.00     0.080 A 
HETATM   24  C   UNL     1      43.491 -17.276   4.387  1.00  0.00     0.190 A 
HETATM   25  O   UNL     1      43.393 -16.190   4.957  1.00  0.00    -0.287 OA
ENDBRANCH   1  17
TORSDOF 2
ENDMDL
MODEL 7
REMARK VINA RESULT:      -6.6      4.709      9.420
REMARK  2 active torsions:
REMARK  status: ('A' for Active; 'I' for Inactive)
REMARK    1  A    between atoms: C_5  and  C_6 
REMARK       I    between atoms: C_6  and  N_7 
REMARK    2  A    between atoms: N_7  and  C_8 
ROOT
HETATM    1  C   UNL     1      42.209  -9.456   8.505  1.00  0.00     0.262 C 
HETATM    2  N   UNL     1      43.011 -10.493   8.085  1.00  0.00    -0.306 N 
HETATM    3  O   UNL     1      41.320  -8.902   7.863  1.00  0.00    -0.267 OA
HETATM    4  H   UNL     1      43.706 -10.858   8.732  1.00  0.00     0.170 HD
ENDROOT
BRANCH   2   5
HETATM    5  C   UNL     1      42.985 -11.078   6.838  1.00  0.00     0.152 A 
HETATM    6  N   UNL     1      42.975 -10.432   5.675  1.00  0.00    -0.156 NA
HETATM    7  N   UNL     1      42.971 -11.400   4.750  1.00  0.00    -0.275 N 
HETATM    8  H   UNL     1      42.968 -11.132   3.772  1.00  0.00     0.189 HD
HETATM    9  C   UNL     1      42.984 -12.667   5.269  1.00  0.00     0.071 A 
HETATM   10  C   UNL     1      43.010 -13.865   4.481  1.00  0.00     0.034 A 
HETATM   11  C   UNL     1      42.978 -12.481   6.636  1.00  0.00     0.084 A 
HETATM   12  S   UNL     1      43.033 -13.826   2.761  1.00  0.00    -0.076 SA
HETATM   13  C   UNL     1      43.027 -15.169   4.944  1.00  0.00     0.023 A 
HETATM   14  C   UNL     1      43.074 -15.512   2.665  1.00  0.00     0.075 A 
HETATM   15 CL   UNL     1      43.121 -16.279   1.129  1.00  0.00    -0.076 Cl
HETATM   16  C   UNL     1      43.066 -16.129   3.887  1.00  0.00     0.033 A 
ENDBRANCH   2   5
BRANCH   1  17
HETATM   17  C   UNL     1      42.511  -8.992   9.893  1.00  0.00     0.097 A 
HETATM   18  C   UNL     1      42.123  -7.763  10.276  1.00  0.00     0.109 A 
HETATM   19  N   UNL     1      42.363  -7.241  11.522  1.00  0.00    -0.368 N 
HETATM   20  C   UNL     1      43.032  -7.944  12.499  1.00  0.00     0.008 A 
HETATM   21  H   UNL     1      42.042  -6.296  11.725  1.00  0.00     0.165 HD
HETATM   22  C   UNL     1      43.243  -7.271  13.824  1.00  0.00     0.068 C 
HETATM   23  C   UNL     1      43.476  -9.191  12.259  1.00  0.00     0.080 A 
HETATM   24  C   UNL     1      43.239  -9.795  10.918  1.00  0.00     0.190 A 
HETATM   25  O   UNL     1      43.648 -10.930  10.678  1.00  0.00    -0.287 OA
ENDBRANCH   1  17
TORSDOF 2
ENDMDL
MODEL 8
REMARK VINA RESULT:      -6.5      9.664     14.036
REMARK  2 active torsions:
REMARK  status: ('A' for Active; 'I' for Inactive)
REMARK    1  A    between atoms: C_5  and  C_6 
REMARK       I    between atoms: C_6  and  N_7 
REMARK    2  A    between atoms: N_7  and  C_8 
ROOT
HETATM    1  C   UNL     1      41.630  -7.197  17.127  1.00  0.00     0.262 C 
HETATM    2  N   UNL     1      41.198  -8.254  16.359  1.00  0.00    -0.306 N 
HETATM    3  O   UNL     1      42.054  -6.116  16.726  1.00  0.00    -0.267 OA
HETATM    4  H   UNL     1      40.865  -9.091  16.833  1.00  0.00     0.170 HD
ENDROOT
BRANCH   2   5
HETATM    5  C   UNL     1      41.199  -8.305  14.983  1.00  0.00     0.152 A 
HETATM    6  N   UNL     1      40.351  -7.666  14.180  1.00  0.00    -0.156 NA
HETATM    7  N   UNL     1      40.746  -7.993  12.942  1.00  0.00    -0.275 N 
HETATM    8  H   UNL     1      40.234  -7.607  12.156  1.00  0.00     0.189 HD
HETATM    9  C   UNL     1      41.834  -8.823  12.906  1.00  0.00     0.071 A 
HETATM   10  C   UNL     1      42.456  -9.290  11.700  1.00  0.00     0.034 A 
HETATM   11  C   UNL     1      42.139  -9.053  14.231  1.00  0.00     0.084 A 
HETATM   12  S   UNL     1      41.885  -8.833  10.142  1.00  0.00    -0.076 SA
HETATM   13  C   UNL     1      43.555 -10.125  11.597  1.00  0.00     0.023 A 
HETATM   14  C   UNL     1      43.092  -9.730   9.373  1.00  0.00     0.075 A 
HETATM   15 CL   UNL     1      43.175  -9.755   7.658  1.00  0.00    -0.076 Cl
HETATM   16  C   UNL     1      43.926 -10.380  10.242  1.00  0.00     0.033 A 
ENDBRANCH   2   5
BRANCH   1  17
HETATM   17  C   UNL     1      41.563  -7.459  18.597  1.00  0.00     0.097 A 
HETATM   18  C   UNL     1      42.656  -7.258  19.353  1.00  0.00     0.109 A 
HETATM   19  N   UNL     1      42.700  -7.481  20.706  1.00  0.00    -0.368 N 
HETATM   20  C   UNL     1      41.609  -7.938  21.412  1.00  0.00     0.008 A 
HETATM   21  H   UNL     1      43.573  -7.311  21.200  1.00  0.00     0.165 HD
HETATM   22  C   UNL     1      41.774  -8.153  22.889  1.00  0.00     0.068 C 
HETATM   23  C   UNL     1      40.444  -8.180  20.787  1.00  0.00     0.080 A 
HETATM   24  C   UNL     1      40.353  -7.954  19.318  1.00  0.00     0.190 A 
HETATM   25  O   UNL     1      39.298  -8.181  18.727  1.00  0.00    -0.287 OA
ENDBRANCH   1  17
TORSDOF 2
ENDMDL
MODEL 9
REMARK VINA RESULT:      -6.5      7.402     12.222
REMARK  2 active torsions:
REMARK  status: ('A' for Active; 'I' for Inactive)
REMARK    1  A    between atoms: C_5  and  C_6 
REMARK       I    between atoms: C_6  and  N_7 
REMARK    2  A    between atoms: N_7  and  C_8 
ROOT
HETATM    1  C   UNL     1      40.613  -7.812  13.807  1.00  0.00     0.262 C 
HETATM    2  N   UNL     1      40.783  -7.529  12.471  1.00  0.00    -0.306 N 
HETATM    3  O   UNL     1      40.963  -8.829  14.398  1.00  0.00    -0.267 OA
HETATM    4  H   UNL     1      40.445  -6.636  12.119  1.00  0.00     0.170 HD
ENDROOT
BRANCH   2   5
HETATM    5  C   UNL     1      41.353  -8.365  11.536  1.00  0.00     0.152 A 
HETATM    6  N   UNL     1      40.786  -9.452  11.016  1.00  0.00    -0.156 NA
HETATM    7  N   UNL     1      41.691  -9.923  10.149  1.00  0.00    -0.275 N 
HETATM    8  H   UNL     1      41.465 -10.761   9.625  1.00  0.00     0.189 HD
HETATM    9  C   UNL     1      42.836  -9.176  10.077  1.00  0.00     0.071 A 
HETATM   10  C   UNL     1      43.937  -9.463   9.204  1.00  0.00     0.034 A 
HETATM   11  C   UNL     1      42.643  -8.158  10.988  1.00  0.00     0.084 A 
HETATM   12  S   UNL     1      43.924 -10.807   8.129  1.00  0.00    -0.076 SA
HETATM   13  C   UNL     1      45.116  -8.747   9.083  1.00  0.00     0.023 A 
HETATM   14  C   UNL     1      45.452 -10.415   7.527  1.00  0.00     0.075 A 
HETATM   15 CL   UNL     1      46.164 -11.389   6.304  1.00  0.00    -0.076 Cl
HETATM   16  C   UNL     1      45.998  -9.301   8.105  1.00  0.00     0.033 A 
ENDBRANCH   2   5
BRANCH   1  17
HETATM   17  C   UNL     1      39.907  -6.730  14.561  1.00  0.00     0.097 A 
HETATM   18  C   UNL     1      40.539  -6.115  15.575  1.00  0.00     0.109 A 
HETATM   19  N   UNL     1      39.975  -5.121  16.335  1.00  0.00    -0.368 N 
HETATM   20  C   UNL     1      38.693  -4.666  16.117  1.00  0.00     0.008 A 
HETATM   21  H   UNL     1      40.522  -4.716  17.091  1.00  0.00     0.165 HD
HETATM   22  C   UNL     1      38.177  -3.579  17.014  1.00  0.00     0.068 C 
HETATM   23  C   UNL     1      37.942  -5.188  15.131  1.00  0.00     0.080 A 
HETATM   24  C   UNL     1      38.515  -6.270  14.284  1.00  0.00     0.190 A 
HETATM   25  O   UNL     1      37.838  -6.768  13.386  1.00  0.00    -0.287 OA
ENDBRANCH   1  17
TORSDOF 2
ENDMDL
MODEL 10
REMARK VINA RESULT:      -6.5      4.335      5.285
REMARK  2 active torsions:
REMARK  status: ('A' for Active; 'I' for Inactive)
REMARK    1  A    between atoms: C_5  and  C_6 
REMARK       I    between atoms: C_6  and  N_7 
REMARK    2  A    between atoms: N_7  and  C_8 
ROOT
HETATM    1  C   UNL     1      42.739 -15.354   3.764  1.00  0.00     0.262 C 
HETATM    2  N   UNL     1      41.542 -15.010   4.350  1.00  0.00    -0.306 N 
HETATM    3  O   UNL     1      43.450 -14.642   3.061  1.00  0.00    -0.267 OA
HETATM    4  H   UNL     1      41.063 -15.707   4.915  1.00  0.00     0.170 HD
ENDROOT
BRANCH   2   5
HETATM    5  C   UNL     1      40.900 -13.798   4.219  1.00  0.00     0.152 A 
HETATM    6  N   UNL     1      41.031 -12.756   5.037  1.00  0.00    -0.156 NA
HETATM    7  N   UNL     1      40.245 -11.810   4.507  1.00  0.00    -0.275 N 
HETATM    8  H   UNL     1      40.193 -10.911   4.974  1.00  0.00     0.189 HD
HETATM    9  C   UNL     1      39.603 -12.196   3.361  1.00  0.00     0.071 A 
HETATM   10  C   UNL     1      38.731 -11.350   2.599  1.00  0.00     0.034 A 
HETATM   11  C   UNL     1      40.006 -13.499   3.161  1.00  0.00     0.084 A 
HETATM   12  S   UNL     1      38.401  -9.725   3.058  1.00  0.00    -0.076 SA
HETATM   13  C   UNL     1      38.058 -11.679   1.434  1.00  0.00     0.023 A 
HETATM   14  C   UNL     1      37.396  -9.489   1.722  1.00  0.00     0.075 A 
HETATM   15 CL   UNL     1      36.638  -7.967   1.481  1.00  0.00    -0.076 Cl
HETATM   16  C   UNL     1      37.281 -10.595   0.923  1.00  0.00     0.033 A 
ENDBRANCH   2   5
BRANCH   1  17
HETATM   17  C   UNL     1      43.156 -16.763   4.041  1.00  0.00     0.097 A 
HETATM   18  C   UNL     1      43.376 -17.148   5.310  1.00  0.00     0.109 A 
HETATM   19  N   UNL     1      43.773 -18.412   5.666  1.00  0.00    -0.368 N 
HETATM   20  C   UNL     1      43.982 -19.407   4.736  1.00  0.00     0.008 A 
HETATM   21  H   UNL     1      43.927 -18.615   6.651  1.00  0.00     0.165 HD
HETATM   22  C   UNL     1      44.421 -20.751   5.240  1.00  0.00     0.068 C 
HETATM   23  C   UNL     1      43.795 -19.167   3.426  1.00  0.00     0.080 A 
HETATM   24  C   UNL     1      43.367 -17.807   2.996  1.00  0.00     0.190 A 
HETATM   25  O   UNL     1      43.203 -17.567   1.801  1.00  0.00    -0.287 OA
ENDBRANCH   1  17
TORSDOF 2
ENDMDL
