MODEL 1
REMARK VINA RESULT:      -7.6      0.000      0.000
REMARK  2 active torsions:
REMARK  status: ('A' for Active; 'I' for Inactive)
REMARK    1  A    between atoms: C_6  and  N_7 
REMARK       I    between atoms: N_7  and  C_8 
REMARK       I    between atoms: C_8  and  N_9 
REMARK    2  A    between atoms: N_9  and  C_10 
ROOT
HETATM    1  N   UNL     1      42.403 -12.746   6.513  1.00  0.00    -0.306 N 
HETATM    2  C   UNL     1      42.121 -14.006   6.081  1.00  0.00     0.321 C 
HETATM    3  N   UNL     1      43.153 -14.809   5.713  1.00  0.00    -0.338 N 
HETATM    4  O   UNL     1      40.967 -14.425   6.159  1.00  0.00    -0.247 OA
HETATM    5  H   UNL     1      41.616 -12.371   7.030  1.00  0.00     0.171 HD
HETATM    6  H   UNL     1      43.989 -14.345   5.387  1.00  0.00     0.164 HD
ENDROOT
BRANCH   3   7
HETATM    7  C   UNL     1      43.010 -16.210   5.347  1.00  0.00     0.089 C 
HETATM    8  C   UNL     1      43.193 -16.424   3.834  1.00  0.00     0.058 C 
HETATM    9  C   UNL     1      42.983 -17.887   3.512  1.00  0.00     0.190 C 
HETATM   10  N   UNL     1      43.976 -18.698   4.301  1.00  0.00    -0.067 N 
HETATM   11  C   UNL     1      43.287 -18.338   2.099  1.00  0.00     0.035 C 
HETATM   12  H   UNL     1      44.915 -18.310   4.113  1.00  0.00     0.280 HD
HETATM   13  C   UNL     1      43.755 -18.604   5.777  1.00  0.00     0.237 C 
HETATM   14  C   UNL     1      43.956 -20.074   3.685  1.00  0.00     0.235 C 
HETATM   15  C   UNL     1      43.900 -17.143   6.190  1.00  0.00     0.053 C 
HETATM   16  C   UNL     1      43.440 -19.847   2.263  1.00  0.00     0.030 C 
ENDBRANCH   3   7
BRANCH   1  17
HETATM   17  C   UNL     1      43.611 -12.017   6.601  1.00  0.00     0.077 A 
HETATM   18  C   UNL     1      44.453 -11.611   5.560  1.00  0.00     0.152 A 
HETATM   19  N   UNL     1      45.634 -10.970   5.728  1.00  0.00    -0.247 NA
HETATM   20 CL   UNL     1      44.037 -11.718   3.890  1.00  0.00    -0.060 Cl
HETATM   21  C   UNL     1      45.988 -10.667   6.992  1.00  0.00     0.118 A 
HETATM   22  C   UNL     1      45.204 -10.956   8.092  1.00  0.00     0.022 A 
HETATM   23  C   UNL     1      43.998 -11.627   7.889  1.00  0.00     0.034 A 
ENDBRANCH   1  17
TORSDOF 2
ENDMDL
MODEL 2
REMARK VINA RESULT:      -7.5      5.220      6.767
REMARK  2 active torsions:
REMARK  status: ('A' for Active; 'I' for Inactive)
REMARK    1  A    between atoms: C_6  and  N_7 
REMARK       I    between atoms: N_7  and  C_8 
REMARK       I    between atoms: C_8  and  N_9 
REMARK    2  A    between atoms: N_9  and  C_10 
ROOT
HETATM    1  N   UNL     1      39.675 -14.464   0.275  1.00  0.00    -0.306 N 
HETATM    2  C   UNL     1      40.386 -15.189   1.181  1.00  0.00     0.321 C 
HETATM    3  N   UNL     1      41.738 -15.237   1.051  1.00  0.00    -0.338 N 
HETATM    4  O   UNL     1      39.810 -15.666   2.157  1.00  0.00    -0.247 OA
HETATM    5  H   UNL     1      38.752 -14.257   0.642  1.00  0.00     0.171 HD
HETATM    6  H   UNL     1      42.104 -15.104   0.119  1.00  0.00     0.164 HD
ENDROOT
BRANCH   3   7
HETATM    7  C   UNL     1      42.630 -15.871   2.009  1.00  0.00     0.089 C 
HETATM    8  C   UNL     1      42.528 -15.217   3.399  1.00  0.00     0.058 C 
HETATM    9  C   UNL     1      43.513 -15.885   4.333  1.00  0.00     0.190 C 
HETATM   10  N   UNL     1      43.192 -17.355   4.396  1.00  0.00    -0.067 N 
HETATM   11  C   UNL     1      43.450 -15.504   5.797  1.00  0.00     0.035 C 
HETATM   12  H   UNL     1      42.191 -17.445   4.633  1.00  0.00     0.280 HD
HETATM   13  C   UNL     1      43.393 -18.046   3.085  1.00  0.00     0.237 C 
HETATM   14  C   UNL     1      43.957 -17.886   5.582  1.00  0.00     0.235 C 
HETATM   15  C   UNL     1      42.466 -17.401   2.059  1.00  0.00     0.053 C 
HETATM   16  C   UNL     1      44.186 -16.661   6.468  1.00  0.00     0.030 C 
ENDBRANCH   3   7
BRANCH   1  17
HETATM   17  C   UNL     1      40.053 -13.761  -0.892  1.00  0.00     0.077 A 
HETATM   18  C   UNL     1      39.821 -14.113  -2.226  1.00  0.00     0.152 A 
HETATM   19  N   UNL     1      40.274 -13.420  -3.297  1.00  0.00    -0.247 NA
HETATM   20 CL   UNL     1      38.780 -15.399  -2.714  1.00  0.00    -0.060 Cl
HETATM   21  C   UNL     1      40.955 -12.285  -3.045  1.00  0.00     0.118 A 
HETATM   22  C   UNL     1      41.184 -11.803  -1.770  1.00  0.00     0.022 A 
HETATM   23  C   UNL     1      40.715 -12.544  -0.686  1.00  0.00     0.034 A 
ENDBRANCH   1  17
TORSDOF 2
ENDMDL
MODEL 3
REMARK VINA RESULT:      -7.5      5.285      6.462
REMARK  2 active torsions:
REMARK  status: ('A' for Active; 'I' for Inactive)
REMARK    1  A    between atoms: C_6  and  N_7 
REMARK       I    between atoms: N_7  and  C_8 
REMARK       I    between atoms: C_8  and  N_9 
REMARK    2  A    between atoms: N_9  and  C_10 
ROOT
HETATM    1  N   UNL     1      39.448 -13.054   0.570  1.00  0.00    -0.306 N 
HETATM    2  C   UNL     1      39.798 -13.837   1.627  1.00  0.00     0.321 C 
HETATM    3  N   UNL     1      40.938 -14.571   1.537  1.00  0.00    -0.338 N 
HETATM    4  O   UNL     1      39.155 -13.761   2.672  1.00  0.00    -0.247 OA
HETATM    5  H   UNL     1      38.780 -12.350   0.865  1.00  0.00     0.171 HD
HETATM    6  H   UNL     1      41.236 -14.826   0.606  1.00  0.00     0.164 HD
ENDROOT
BRANCH   3   7
HETATM    7  C   UNL     1      41.495 -15.356   2.628  1.00  0.00     0.089 C 
HETATM    8  C   UNL     1      42.303 -16.559   2.109  1.00  0.00     0.058 C 
HETATM    9  C   UNL     1      42.810 -17.360   3.288  1.00  0.00     0.190 C 
HETATM   10  N   UNL     1      43.661 -16.461   4.146  1.00  0.00    -0.067 N 
HETATM   11  C   UNL     1      43.774 -18.490   2.996  1.00  0.00     0.035 C 
HETATM   12  H   UNL     1      44.373 -16.029   3.535  1.00  0.00     0.280 HD
HETATM   13  C   UNL     1      42.880 -15.343   4.762  1.00  0.00     0.237 C 
HETATM   14  C   UNL     1      44.406 -17.380   5.081  1.00  0.00     0.235 C 
HETATM   15  C   UNL     1      42.285 -14.502   3.638  1.00  0.00     0.053 C 
HETATM   16  C   UNL     1      44.421 -18.728   4.358  1.00  0.00     0.030 C 
ENDBRANCH   3   7
BRANCH   1  17
HETATM   17  C   UNL     1      40.011 -12.879  -0.715  1.00  0.00     0.077 A 
HETATM   18  C   UNL     1      39.950 -13.749  -1.809  1.00  0.00     0.152 A 
HETATM   19  N   UNL     1      40.573 -13.543  -2.994  1.00  0.00    -0.247 NA
HETATM   20 CL   UNL     1      38.936 -15.142  -1.877  1.00  0.00    -0.060 Cl
HETATM   21  C   UNL     1      41.259 -12.391  -3.130  1.00  0.00     0.118 A 
HETATM   22  C   UNL     1      41.330 -11.427  -2.142  1.00  0.00     0.022 A 
HETATM   23  C   UNL     1      40.687 -11.672  -0.929  1.00  0.00     0.034 A 
ENDBRANCH   1  17
TORSDOF 2
ENDMDL
MODEL 4
REMARK VINA RESULT:      -7.0      1.790      1.963
REMARK  2 active torsions:
REMARK  status: ('A' for Active; 'I' for Inactive)
REMARK    1  A    between atoms: C_6  and  N_7 
REMARK       I    between atoms: N_7  and  C_8 
REMARK       I    between atoms: C_8  and  N_9 
REMARK    2  A    between atoms: N_9  and  C_10 
ROOT
HETATM    1  N   UNL     1      42.446 -11.679   6.641  1.00  0.00    -0.306 N 
HETATM    2  C   UNL     1      42.205 -12.912   6.119  1.00  0.00     0.321 C 
HETATM    3  N   UNL     1      43.226 -13.808   6.082  1.00  0.00    -0.338 N 
HETATM    4  O   UNL     1      41.054 -13.226   5.821  1.00  0.00    -0.247 OA
HETATM    5  H   UNL     1      41.572 -11.229   6.890  1.00  0.00     0.171 HD
HETATM    6  H   UNL     1      44.160 -13.424   6.046  1.00  0.00     0.164 HD
ENDROOT
BRANCH   3   7
HETATM    7  C   UNL     1      43.084 -15.195   5.664  1.00  0.00     0.089 C 
HETATM    8  C   UNL     1      43.062 -15.327   4.131  1.00  0.00     0.058 C 
HETATM    9  C   UNL     1      42.861 -16.781   3.763  1.00  0.00     0.190 C 
HETATM   10  N   UNL     1      43.983 -17.586   4.364  1.00  0.00    -0.067 N 
HETATM   11  C   UNL     1      42.982 -17.149   2.299  1.00  0.00     0.035 C 
HETATM   12  H   UNL     1      44.872 -17.149   4.070  1.00  0.00     0.280 HD
HETATM   13  C   UNL     1      43.965 -17.573   5.859  1.00  0.00     0.237 C 
HETATM   14  C   UNL     1      43.927 -18.930   3.683  1.00  0.00     0.235 C 
HETATM   15  C   UNL     1      44.114 -16.129   6.326  1.00  0.00     0.053 C 
HETATM   16  C   UNL     1      43.210 -18.657   2.360  1.00  0.00     0.030 C 
ENDBRANCH   3   7
BRANCH   1  17
HETATM   17  C   UNL     1      43.623 -11.060   7.120  1.00  0.00     0.077 A 
HETATM   18  C   UNL     1      43.736 -10.038   8.069  1.00  0.00     0.152 A 
HETATM   19  N   UNL     1      44.898  -9.445   8.431  1.00  0.00    -0.247 NA
HETATM   20 CL   UNL     1      42.427  -9.484   9.047  1.00  0.00    -0.060 Cl
HETATM   21  C   UNL     1      46.025  -9.917   7.863  1.00  0.00     0.118 A 
HETATM   22  C   UNL     1      46.042 -10.969   6.966  1.00  0.00     0.022 A 
HETATM   23  C   UNL     1      44.828 -11.551   6.604  1.00  0.00     0.034 A 
ENDBRANCH   1  17
TORSDOF 2
ENDMDL
MODEL 5
REMARK VINA RESULT:      -7.0      5.277      6.999
REMARK  2 active torsions:
REMARK  status: ('A' for Active; 'I' for Inactive)
REMARK    1  A    between atoms: C_6  and  N_7 
REMARK       I    between atoms: N_7  and  C_8 
REMARK       I    between atoms: C_8  and  N_9 
REMARK    2  A    between atoms: N_9  and  C_10 
ROOT
HETATM    1  N   UNL     1      40.986 -13.184  -0.127  1.00  0.00    -0.306 N 
HETATM    2  C   UNL     1      41.384 -13.911   0.953  1.00  0.00     0.321 C 
HETATM    3  N   UNL     1      40.687 -15.035   1.267  1.00  0.00    -0.338 N 
HETATM    4  O   UNL     1      42.427 -13.610   1.529  1.00  0.00    -0.247 OA
HETATM    5  H   UNL     1      41.736 -12.573  -0.431  1.00  0.00     0.171 HD
HETATM    6  H   UNL     1      39.720 -15.059   0.977  1.00  0.00     0.164 HD
ENDROOT
BRANCH   3   7
HETATM    7  C   UNL     1      41.069 -15.968   2.316  1.00  0.00     0.089 C 
HETATM    8  C   UNL     1      42.405 -16.664   1.999  1.00  0.00     0.058 C 
HETATM    9  C   UNL     1      42.720 -17.654   3.099  1.00  0.00     0.190 C 
HETATM   10  N   UNL     1      42.789 -16.911   4.407  1.00  0.00    -0.067 N 
HETATM   11  C   UNL     1      44.079 -18.321   3.065  1.00  0.00     0.035 C 
HETATM   12  H   UNL     1      43.448 -16.125   4.285  1.00  0.00     0.280 HD
HETATM   13  C   UNL     1      41.474 -16.318   4.803  1.00  0.00     0.237 C 
HETATM   14  C   UNL     1      43.439 -17.862   5.379  1.00  0.00     0.235 C 
HETATM   15  C   UNL     1      41.049 -15.332   3.719  1.00  0.00     0.053 C 
HETATM   16  C   UNL     1      44.230 -18.828   4.496  1.00  0.00     0.030 C 
ENDBRANCH   3   7
BRANCH   1  17
HETATM   17  C   UNL     1      39.890 -13.313  -1.011  1.00  0.00     0.077 A 
HETATM   18  C   UNL     1      38.636 -12.697  -0.927  1.00  0.00     0.152 A 
HETATM   19  N   UNL     1      37.608 -12.921  -1.779  1.00  0.00    -0.247 NA
HETATM   20 CL   UNL     1      38.258 -11.432   0.181  1.00  0.00    -0.060 Cl
HETATM   21  C   UNL     1      37.839 -13.764  -2.805  1.00  0.00     0.118 A 
HETATM   22  C   UNL     1      39.059 -14.375  -3.028  1.00  0.00     0.022 A 
HETATM   23  C   UNL     1      40.096 -14.133  -2.127  1.00  0.00     0.034 A 
ENDBRANCH   1  17
TORSDOF 2
ENDMDL
MODEL 6
REMARK VINA RESULT:      -6.8      5.328      6.878
REMARK  2 active torsions:
REMARK  status: ('A' for Active; 'I' for Inactive)
REMARK    1  A    between atoms: C_6  and  N_7 
REMARK       I    between atoms: N_7  and  C_8 
REMARK       I    between atoms: C_8  and  N_9 
REMARK    2  A    between atoms: N_9  and  C_10 
ROOT
HETATM    1  N   UNL     1      42.569 -13.290   3.840  1.00  0.00    -0.306 N 
HETATM    2  C   UNL     1      42.105 -12.863   2.634  1.00  0.00     0.321 C 
HETATM    3  N   UNL     1      41.171 -13.618   1.998  1.00  0.00    -0.338 N 
HETATM    4  O   UNL     1      42.439 -11.755   2.218  1.00  0.00    -0.247 OA
HETATM    5  H   UNL     1      43.006 -12.522   4.336  1.00  0.00     0.171 HD
HETATM    6  H   UNL     1      41.168 -14.604   2.213  1.00  0.00     0.164 HD
ENDROOT
BRANCH   3   7
HETATM    7  C   UNL     1      40.502 -13.225   0.766  1.00  0.00     0.089 C 
HETATM    8  C   UNL     1      40.187 -14.442  -0.122  1.00  0.00     0.058 C 
HETATM    9  C   UNL     1      39.541 -13.965  -1.404  1.00  0.00     0.190 C 
HETATM   10  N   UNL     1      38.289 -13.205  -1.055  1.00  0.00    -0.067 N 
HETATM   11  C   UNL     1      38.996 -15.021  -2.342  1.00  0.00     0.035 C 
HETATM   12  H   UNL     1      37.718 -13.810  -0.443  1.00  0.00     0.280 HD
HETATM   13  C   UNL     1      38.569 -11.952  -0.288  1.00  0.00     0.237 C 
HETATM   14  C   UNL     1      37.524 -13.069  -2.347  1.00  0.00     0.235 C 
HETATM   15  C   UNL     1      39.270 -12.334   1.011  1.00  0.00     0.053 C 
HETATM   16  C   UNL     1      38.037 -14.218  -3.217  1.00  0.00     0.030 C 
ENDBRANCH   3   7
BRANCH   1  17
HETATM   17  C   UNL     1      42.327 -14.462   4.594  1.00  0.00     0.077 A 
HETATM   18  C   UNL     1      41.375 -14.660   5.599  1.00  0.00     0.152 A 
HETATM   19  N   UNL     1      41.246 -15.795   6.327  1.00  0.00    -0.247 NA
HETATM   20 CL   UNL     1      40.107 -13.547   5.957  1.00  0.00    -0.060 Cl
HETATM   21  C   UNL     1      42.071 -16.814   6.018  1.00  0.00     0.118 A 
HETATM   22  C   UNL     1      43.003 -16.756   4.998  1.00  0.00     0.022 A 
HETATM   23  C   UNL     1      43.120 -15.571   4.273  1.00  0.00     0.034 A 
ENDBRANCH   1  17
TORSDOF 2
ENDMDL
MODEL 7
REMARK VINA RESULT:      -6.7      3.238      4.783
REMARK  2 active torsions:
REMARK  status: ('A' for Active; 'I' for Inactive)
REMARK    1  A    between atoms: C_6  and  N_7 
REMARK       I    between atoms: N_7  and  C_8 
REMARK       I    between atoms: C_8  and  N_9 
REMARK    2  A    between atoms: N_9  and  C_10 
ROOT
HETATM    1  N   UNL     1      44.645 -10.239   9.060  1.00  0.00    -0.306 N 
HETATM    2  C   UNL     1      44.802 -11.101   8.019  1.00  0.00     0.321 C 
HETATM    3  N   UNL     1      43.777 -11.940   7.715  1.00  0.00    -0.338 N 
HETATM    4  O   UNL     1      45.799 -11.009   7.306  1.00  0.00    -0.247 OA
HETATM    5  H   UNL     1      45.321  -9.486   8.994  1.00  0.00     0.171 HD
HETATM    6  H   UNL     1      43.154 -12.181   8.473  1.00  0.00     0.164 HD
ENDROOT
BRANCH   3   7
HETATM    7  C   UNL     1      43.759 -12.826   6.561  1.00  0.00     0.089 C 
HETATM    8  C   UNL     1      43.349 -14.258   6.950  1.00  0.00     0.058 C 
HETATM    9  C   UNL     1      43.399 -15.138   5.720  1.00  0.00     0.190 C 
HETATM   10  N   UNL     1      42.467 -14.566   4.684  1.00  0.00    -0.067 N 
HETATM   11  C   UNL     1      42.864 -16.548   5.854  1.00  0.00     0.035 C 
HETATM   12  H   UNL     1      41.544 -14.441   5.131  1.00  0.00     0.280 HD
HETATM   13  C   UNL     1      42.901 -13.220   4.199  1.00  0.00     0.237 C 
HETATM   14  C   UNL     1      42.295 -15.651   3.652  1.00  0.00     0.235 C 
HETATM   15  C   UNL     1      42.928 -12.268   5.391  1.00  0.00     0.053 C 
HETATM   16  C   UNL     1      42.621 -16.944   4.400  1.00  0.00     0.030 C 
ENDBRANCH   3   7
BRANCH   1  17
HETATM   17  C   UNL     1      43.607 -10.063  10.004  1.00  0.00     0.077 A 
HETATM   18  C   UNL     1      42.356  -9.466   9.809  1.00  0.00     0.152 A 
HETATM   19  N   UNL     1      41.434  -9.272  10.782  1.00  0.00    -0.247 NA
HETATM   20 CL   UNL     1      41.727  -9.032   8.263  1.00  0.00    -0.060 Cl
HETATM   21  C   UNL     1      41.738  -9.734  12.011  1.00  0.00     0.118 A 
HETATM   22  C   UNL     1      42.913 -10.401  12.303  1.00  0.00     0.022 A 
HETATM   23  C   UNL     1      43.848 -10.576  11.284  1.00  0.00     0.034 A 
ENDBRANCH   1  17
TORSDOF 2
ENDMDL
MODEL 8
REMARK VINA RESULT:      -6.6      4.531      5.519
REMARK  2 active torsions:
REMARK  status: ('A' for Active; 'I' for Inactive)
REMARK    1  A    between atoms: C_6  and  N_7 
REMARK       I    between atoms: N_7  and  C_8 
REMARK       I    between atoms: C_8  and  N_9 
REMARK    2  A    between atoms: N_9  and  C_10 
ROOT
HETATM    1  N   UNL     1      39.667 -14.089   0.239  1.00  0.00    -0.306 N 
HETATM    2  C   UNL     1      40.069 -15.176   0.952  1.00  0.00     0.321 C 
HETATM    3  N   UNL     1      40.918 -14.986   1.996  1.00  0.00    -0.338 N 
HETATM    4  O   UNL     1      39.557 -16.270   0.722  1.00  0.00    -0.247 OA
HETATM    5  H   UNL     1      38.831 -14.309  -0.290  1.00  0.00     0.171 HD
HETATM    6  H   UNL     1      41.515 -14.173   1.947  1.00  0.00     0.164 HD
ENDROOT
BRANCH   3   7
HETATM    7  C   UNL     1      41.333 -16.035   2.915  1.00  0.00     0.089 C 
HETATM    8  C   UNL     1      42.575 -16.783   2.400  1.00  0.00     0.058 C 
HETATM    9  C   UNL     1      42.925 -17.889   3.371  1.00  0.00     0.190 C 
HETATM   10  N   UNL     1      43.179 -17.277   4.723  1.00  0.00    -0.067 N 
HETATM   11  C   UNL     1      44.220 -18.636   3.135  1.00  0.00     0.035 C 
HETATM   12  H   UNL     1      43.878 -16.527   4.599  1.00  0.00     0.280 HD
HETATM   13  C   UNL     1      41.958 -16.639   5.306  1.00  0.00     0.237 C 
HETATM   14  C   UNL     1      43.851 -18.354   5.535  1.00  0.00     0.235 C 
HETATM   15  C   UNL     1      41.500 -15.532   4.361  1.00  0.00     0.053 C 
HETATM   16  C   UNL     1      44.476 -19.283   4.494  1.00  0.00     0.030 C 
ENDBRANCH   3   7
BRANCH   1  17
HETATM   17  C   UNL     1      40.020 -12.721   0.306  1.00  0.00     0.077 A 
HETATM   18  C   UNL     1      39.688 -11.792   1.298  1.00  0.00     0.152 A 
HETATM   19  N   UNL     1      40.006 -10.477   1.261  1.00  0.00    -0.247 NA
HETATM   20 CL   UNL     1      38.961 -12.212   2.805  1.00  0.00    -0.060 Cl
HETATM   21  C   UNL     1      40.737 -10.056   0.209  1.00  0.00     0.118 A 
HETATM   22  C   UNL     1      41.180 -10.897  -0.794  1.00  0.00     0.022 A 
HETATM   23  C   UNL     1      40.827 -12.244  -0.734  1.00  0.00     0.034 A 
ENDBRANCH   1  17
TORSDOF 2
ENDMDL
MODEL 9
REMARK VINA RESULT:      -6.5      2.986      4.349
REMARK  2 active torsions:
REMARK  status: ('A' for Active; 'I' for Inactive)
REMARK    1  A    between atoms: C_6  and  N_7 
REMARK       I    between atoms: N_7  and  C_8 
REMARK       I    between atoms: C_8  and  N_9 
REMARK    2  A    between atoms: N_9  and  C_10 
ROOT
HETATM    1  N   UNL     1      42.729  -9.458   7.724  1.00  0.00    -0.306 N 
HETATM    2  C   UNL     1      42.492 -10.212   6.616  1.00  0.00     0.321 C 
HETATM    3  N   UNL     1      42.499 -11.565   6.743  1.00  0.00    -0.338 N 
HETATM    4  O   UNL     1      42.152  -9.659   5.573  1.00  0.00    -0.247 OA
HETATM    5  H   UNL     1      42.403  -8.509   7.575  1.00  0.00     0.171 HD
HETATM    6  H   UNL     1      43.059 -11.943   7.494  1.00  0.00     0.164 HD
ENDROOT
BRANCH   3   7
HETATM    7  C   UNL     1      42.146 -12.489   5.676  1.00  0.00     0.089 C 
HETATM    8  C   UNL     1      43.032 -13.748   5.697  1.00  0.00     0.058 C 
HETATM    9  C   UNL     1      42.650 -14.641   4.537  1.00  0.00     0.190 C 
HETATM   10  N   UNL     1      41.193 -14.997   4.667  1.00  0.00    -0.067 N 
HETATM   11  C   UNL     1      43.287 -16.013   4.479  1.00  0.00     0.035 C 
HETATM   12  H   UNL     1      41.048 -15.379   5.616  1.00  0.00     0.280 HD
HETATM   13  C   UNL     1      40.294 -13.809   4.535  1.00  0.00     0.237 C 
HETATM   14  C   UNL     1      40.969 -16.142   3.712  1.00  0.00     0.235 C 
HETATM   15  C   UNL     1      40.643 -12.822   5.645  1.00  0.00     0.053 C 
HETATM   16  C   UNL     1      42.354 -16.767   3.535  1.00  0.00     0.030 C 
ENDBRANCH   3   7
BRANCH   1  17
HETATM   17  C   UNL     1      43.074  -9.797   9.053  1.00  0.00     0.077 A 
HETATM   18  C   UNL     1      44.251 -10.398   9.512  1.00  0.00     0.152 A 
HETATM   19  N   UNL     1      44.484 -10.755  10.798  1.00  0.00    -0.247 NA
HETATM   20 CL   UNL     1      45.657 -10.628   8.541  1.00  0.00    -0.060 Cl
HETATM   21  C   UNL     1      43.523 -10.461  11.695  1.00  0.00     0.118 A 
HETATM   22  C   UNL     1      42.350  -9.807  11.368  1.00  0.00     0.022 A 
HETATM   23  C   UNL     1      42.134  -9.462  10.034  1.00  0.00     0.034 A 
ENDBRANCH   1  17
TORSDOF 2
ENDMDL
MODEL 10
REMARK VINA RESULT:      -6.5      2.612      3.709
REMARK  2 active torsions:
REMARK  status: ('A' for Active; 'I' for Inactive)
REMARK    1  A    between atoms: C_6  and  N_7 
REMARK       I    between atoms: N_7  and  C_8 
REMARK       I    between atoms: C_8  and  N_9 
REMARK    2  A    between atoms: N_9  and  C_10 
ROOT
HETATM    1  N   UNL     1      42.314 -12.939   3.106  1.00  0.00    -0.306 N 
HETATM    2  C   UNL     1      42.986 -14.099   2.870  1.00  0.00     0.321 C 
HETATM    3  N   UNL     1      42.850 -15.117   3.759  1.00  0.00    -0.338 N 
HETATM    4  O   UNL     1      43.584 -14.241   1.805  1.00  0.00    -0.247 OA
HETATM    5  H   UNL     1      42.249 -12.394   2.254  1.00  0.00     0.171 HD
HETATM    6  H   UNL     1      42.622 -14.857   4.708  1.00  0.00     0.164 HD
ENDROOT
BRANCH   3   7
HETATM    7  C   UNL     1      43.411 -16.446   3.573  1.00  0.00     0.089 C 
HETATM    8  C   UNL     1      43.392 -17.259   4.881  1.00  0.00     0.058 C 
HETATM    9  C   UNL     1      44.032 -18.608   4.634  1.00  0.00     0.190 C 
HETATM   10  N   UNL     1      43.266 -19.309   3.544  1.00  0.00    -0.067 N 
HETATM   11  C   UNL     1      43.958 -19.626   5.752  1.00  0.00     0.035 C 
HETATM   12  H   UNL     1      42.269 -19.309   3.815  1.00  0.00     0.280 HD
HETATM   13  C   UNL     1      43.358 -18.605   2.228  1.00  0.00     0.237 C 
HETATM   14  C   UNL     1      43.717 -20.747   3.592  1.00  0.00     0.235 C 
HETATM   15  C   UNL     1      42.775 -17.205   2.393  1.00  0.00     0.053 C 
HETATM   16  C   UNL     1      44.235 -20.936   5.019  1.00  0.00     0.030 C 
ENDBRANCH   3   7
BRANCH   1  17
HETATM   17  C   UNL     1      41.507 -12.508   4.184  1.00  0.00     0.077 A 
HETATM   18  C   UNL     1      41.892 -11.771   5.310  1.00  0.00     0.152 A 
HETATM   19  N   UNL     1      41.073 -11.451   6.339  1.00  0.00    -0.247 NA
HETATM   20 CL   UNL     1      43.432 -11.016   5.485  1.00  0.00    -0.060 Cl
HETATM   21  C   UNL     1      39.785 -11.834   6.236  1.00  0.00     0.118 A 
HETATM   22  C   UNL     1      39.277 -12.504   5.139  1.00  0.00     0.022 A 
HETATM   23  C   UNL     1      40.147 -12.831   4.099  1.00  0.00     0.034 A 
ENDBRANCH   1  17
TORSDOF 2
ENDMDL
