MODEL 1
REMARK VINA RESULT:      -8.3      0.000      0.000
REMARK  8 active torsions:
REMARK  status: ('A' for Active; 'I' for Inactive)
REMARK    1  A    between atoms: C_5  and  C_6 
REMARK       I    between atoms: C_6  and  N_7 
REMARK    2  A    between atoms: N_7  and  C_8 
REMARK    3  A    between atoms: C_8  and  N_9 
REMARK    4  A    between atoms: C_8  and  C_25 
REMARK    5  A    between atoms: C_8  and  C_29 
REMARK    6  A    between atoms: N_9  and  C_10 
REMARK    7  A    between atoms: C_20  and  C_21 
REMARK    8  A    between atoms: C_21  and  O_22 
ROOT
HETATM    1  C   UNL     1      41.832 -12.491   3.793  1.00  0.00     0.307 C 
ENDROOT
BRANCH   1   2
HETATM    2  N   UNL     1      42.222 -13.867   3.429  1.00  0.00    -0.315 N 
HETATM    3  C   UNL     1      41.806 -14.958   4.143  1.00  0.00     0.254 C 
HETATM    4  O   UNL     1      41.033 -14.877   5.084  1.00  0.00    -0.268 OA
HETATM    5  H   UNL     1      43.039 -13.958   2.844  1.00  0.00     0.165 HD
BRANCH   3   6
HETATM    6  C   UNL     1      42.377 -16.259   3.721  1.00  0.00     0.032 A 
HETATM    7  C   UNL     1      43.340 -16.911   4.501  1.00  0.00     0.017 A 
HETATM    8  C   UNL     1      43.868 -18.132   4.078  1.00  0.00     0.007 A 
HETATM    9  C   UNL     1      43.447 -18.705   2.871  1.00  0.00    -0.062 A 
HETATM   10  C   UNL     1      43.994 -20.031   2.426  1.00  0.00     0.048 C 
HETATM   11  C   UNL     1      42.477 -18.049   2.101  1.00  0.00     0.007 A 
HETATM   12  C   UNL     1      41.953 -16.823   2.516  1.00  0.00     0.017 A 
ENDBRANCH   3   6
ENDBRANCH   1   2
BRANCH   1  13
HETATM   13  N   UNL     1      41.822 -12.597   5.316  1.00  0.00    -0.342 N 
HETATM   14  H   UNL     1      41.727 -13.590   5.563  1.00  0.00     0.163 HD
BRANCH  13  15
HETATM   15  C   UNL     1      42.602 -11.857   6.161  1.00  0.00     0.089 A 
HETATM   16  S   UNL     1      44.204 -12.314   6.572  1.00  0.00    -0.074 SA
HETATM   17  C   UNL     1      44.482 -10.912   7.465  1.00  0.00     0.018 A 
HETATM   18  C   UNL     1      43.394 -10.066   7.467  1.00  0.00    -0.023 A 
HETATM   19  C   UNL     1      45.793 -10.646   8.124  1.00  0.00     0.281 C 
HETATM   20  C   UNL     1      43.440  -8.752   8.204  1.00  0.00     0.068 C 
HETATM   21  C   UNL     1      42.273 -10.620   6.725  1.00  0.00     0.080 A 
HETATM   22  C   UNL     1      44.877  -8.348   8.585  1.00  0.00     0.239 C 
HETATM   23  N   UNL     1      45.681  -9.517   9.141  1.00  0.00    -0.070 N 
HETATM   24  H   UNL     1      46.639  -9.173   9.282  1.00  0.00     0.279 HD
HETATM   25  C   UNL     1      45.205  -9.989  10.484  1.00  0.00     0.270 C 
BRANCH  21  26
HETATM   26  C   UNL     1      40.963  -9.955   6.607  1.00  0.00     0.296 C 
HETATM   27  O   UNL     1      40.835  -8.841   6.114  1.00  0.00    -0.259 OA
BRANCH  26  28
HETATM   28  O   UNL     1      39.934 -10.676   7.143  1.00  0.00    -0.322 OA
HETATM   29  C   UNL     1      38.725 -10.641   6.377  1.00  0.00     0.213 C 
ENDBRANCH  26  28
ENDBRANCH  21  26
ENDBRANCH  13  15
ENDBRANCH   1  13
BRANCH   1  30
HETATM   30  C   UNL     1      42.691 -11.329   3.201  1.00  0.00     0.441 C 
HETATM   31  F   UNL     1      42.461 -11.158   1.873  1.00  0.00    -0.166 F 
HETATM   32  F   UNL     1      42.493 -10.131   3.787  1.00  0.00    -0.166 F 
HETATM   33  F   UNL     1      44.020 -11.596   3.326  1.00  0.00    -0.166 F 
ENDBRANCH   1  30
BRANCH   1  34
HETATM   34  C   UNL     1      40.388 -12.106   3.330  1.00  0.00     0.441 C 
HETATM   35  F   UNL     1      40.122 -10.789   3.303  1.00  0.00    -0.166 F 
HETATM   36  F   UNL     1      40.209 -12.561   2.052  1.00  0.00    -0.166 F 
HETATM   37  F   UNL     1      39.435 -12.712   4.076  1.00  0.00    -0.166 F 
ENDBRANCH   1  34
TORSDOF 8
ENDMDL
MODEL 2
REMARK VINA RESULT:      -8.2      3.389      7.220
REMARK  8 active torsions:
REMARK  status: ('A' for Active; 'I' for Inactive)
REMARK    1  A    between atoms: C_5  and  C_6 
REMARK       I    between atoms: C_6  and  N_7 
REMARK    2  A    between atoms: N_7  and  C_8 
REMARK    3  A    between atoms: C_8  and  N_9 
REMARK    4  A    between atoms: C_8  and  C_25 
REMARK    5  A    between atoms: C_8  and  C_29 
REMARK    6  A    between atoms: N_9  and  C_10 
REMARK    7  A    between atoms: C_20  and  C_21 
REMARK    8  A    between atoms: C_21  and  O_22 
ROOT
HETATM    1  C   UNL     1      42.286 -14.678   4.002  1.00  0.00     0.307 C 
ENDROOT
BRANCH   1   2
HETATM    2  N   UNL     1      43.064 -13.740   4.835  1.00  0.00    -0.315 N 
HETATM    3  C   UNL     1      42.474 -12.934   5.772  1.00  0.00     0.254 C 
HETATM    4  O   UNL     1      41.283 -12.982   6.030  1.00  0.00    -0.268 OA
HETATM    5  H   UNL     1      43.975 -13.485   4.486  1.00  0.00     0.165 HD
BRANCH   3   6
HETATM    6  C   UNL     1      43.373 -11.966   6.443  1.00  0.00     0.032 A 
HETATM    7  C   UNL     1      44.749 -12.208   6.543  1.00  0.00     0.017 A 
HETATM    8  C   UNL     1      45.573 -11.284   7.187  1.00  0.00     0.007 A 
HETATM    9  C   UNL     1      45.032 -10.118   7.743  1.00  0.00    -0.062 A 
HETATM   10  C   UNL     1      45.919  -9.109   8.413  1.00  0.00     0.048 C 
HETATM   11  C   UNL     1      43.654  -9.880   7.631  1.00  0.00     0.007 A 
HETATM   12  C   UNL     1      42.825 -10.806   6.996  1.00  0.00     0.017 A 
ENDBRANCH   3   6
ENDBRANCH   1   2
BRANCH   1  13
HETATM   13  N   UNL     1      41.120 -13.784   3.589  1.00  0.00    -0.342 N 
HETATM   14  H   UNL     1      40.934 -13.130   4.359  1.00  0.00     0.163 HD
BRANCH  13  15
HETATM   15  C   UNL     1      40.923 -13.278   2.333  1.00  0.00     0.089 A 
HETATM   16  S   UNL     1      39.956 -14.077   1.161  1.00  0.00    -0.074 SA
HETATM   17  C   UNL     1      40.107 -12.827   0.040  1.00  0.00     0.018 A 
HETATM   18  C   UNL     1      40.867 -11.782   0.518  1.00  0.00    -0.023 A 
HETATM   19  C   UNL     1      39.434 -12.878  -1.290  1.00  0.00     0.281 C 
HETATM   20  C   UNL     1      41.117 -10.560  -0.329  1.00  0.00     0.068 C 
HETATM   21  C   UNL     1      41.374 -12.044   1.855  1.00  0.00     0.080 A 
HETATM   22  C   UNL     1      40.161 -10.482  -1.535  1.00  0.00     0.239 C 
HETATM   23  N   UNL     1      39.998 -11.825  -2.235  1.00  0.00    -0.070 N 
HETATM   24  H   UNL     1      39.285 -11.692  -2.963  1.00  0.00     0.279 HD
HETATM   25  C   UNL     1      41.237 -12.287  -2.946  1.00  0.00     0.270 C 
BRANCH  21  26
HETATM   26  C   UNL     1      42.260 -11.123   2.588  1.00  0.00     0.296 C 
HETATM   27  O   UNL     1      43.410 -11.419   2.889  1.00  0.00    -0.259 OA
BRANCH  26  28
HETATM   28  O   UNL     1      41.659  -9.947   2.936  1.00  0.00    -0.322 OA
HETATM   29  C   UNL     1      40.732 -10.055   4.021  1.00  0.00     0.213 C 
ENDBRANCH  26  28
ENDBRANCH  21  26
ENDBRANCH  13  15
ENDBRANCH   1  13
BRANCH   1  30
HETATM   30  C   UNL     1      43.044 -15.385   2.834  1.00  0.00     0.441 C 
HETATM   31  F   UNL     1      43.965 -16.272   3.294  1.00  0.00    -0.166 F 
HETATM   32  F   UNL     1      42.250 -16.060   1.978  1.00  0.00    -0.166 F 
HETATM   33  F   UNL     1      43.728 -14.481   2.081  1.00  0.00    -0.166 F 
ENDBRANCH   1  30
BRANCH   1  34
HETATM   34  C   UNL     1      41.702 -15.890   4.801  1.00  0.00     0.441 C 
HETATM   35  F   UNL     1      41.641 -17.050   4.127  1.00  0.00    -0.166 F 
HETATM   36  F   UNL     1      42.503 -16.116   5.887  1.00  0.00    -0.166 F 
HETATM   37  F   UNL     1      40.471 -15.627   5.297  1.00  0.00    -0.166 F 
ENDBRANCH   1  34
TORSDOF 8
ENDMDL
MODEL 3
REMARK VINA RESULT:      -7.9      4.031      7.019
REMARK  8 active torsions:
REMARK  status: ('A' for Active; 'I' for Inactive)
REMARK    1  A    between atoms: C_5  and  C_6 
REMARK       I    between atoms: C_6  and  N_7 
REMARK    2  A    between atoms: N_7  and  C_8 
REMARK    3  A    between atoms: C_8  and  N_9 
REMARK    4  A    between atoms: C_8  and  C_25 
REMARK    5  A    between atoms: C_8  and  C_29 
REMARK    6  A    between atoms: N_9  and  C_10 
REMARK    7  A    between atoms: C_20  and  C_21 
REMARK    8  A    between atoms: C_21  and  O_22 
ROOT
HETATM    1  C   UNL     1      41.370 -13.338   2.948  1.00  0.00     0.307 C 
ENDROOT
BRANCH   1   2
HETATM    2  N   UNL     1      41.820 -14.719   3.214  1.00  0.00    -0.315 N 
HETATM    3  C   UNL     1      42.945 -15.245   2.637  1.00  0.00     0.254 C 
HETATM    4  O   UNL     1      43.686 -14.593   1.920  1.00  0.00    -0.268 OA
HETATM    5  H   UNL     1      41.123 -15.352   3.575  1.00  0.00     0.165 HD
BRANCH   3   6
HETATM    6  C   UNL     1      43.198 -16.678   2.913  1.00  0.00     0.032 A 
HETATM    7  C   UNL     1      42.948 -17.655   1.941  1.00  0.00     0.017 A 
HETATM    8  C   UNL     1      43.189 -19.000   2.229  1.00  0.00     0.007 A 
HETATM    9  C   UNL     1      43.669 -19.380   3.488  1.00  0.00    -0.062 A 
HETATM   10  C   UNL     1      43.953 -20.823   3.792  1.00  0.00     0.048 C 
HETATM   11  C   UNL     1      43.922 -18.395   4.453  1.00  0.00     0.007 A 
HETATM   12  C   UNL     1      43.675 -17.050   4.172  1.00  0.00     0.017 A 
ENDBRANCH   3   6
ENDBRANCH   1   2
BRANCH   1  13
HETATM   13  N   UNL     1      41.740 -13.203   1.473  1.00  0.00    -0.342 N 
HETATM   14  H   UNL     1      41.962 -14.141   1.116  1.00  0.00     0.163 HD
BRANCH  13  15
HETATM   15  C   UNL     1      41.125 -12.369   0.581  1.00  0.00     0.089 A 
HETATM   16  S   UNL     1      41.302 -10.663   0.644  1.00  0.00    -0.074 SA
HETATM   17  C   UNL     1      40.414 -10.418  -0.769  1.00  0.00     0.018 A 
HETATM   18  C   UNL     1      39.979 -11.601  -1.326  1.00  0.00    -0.023 A 
HETATM   19  C   UNL     1      40.193  -9.056  -1.332  1.00  0.00     0.281 C 
HETATM   20  C   UNL     1      39.172 -11.602  -2.600  1.00  0.00     0.068 C 
HETATM   21  C   UNL     1      40.368 -12.754  -0.530  1.00  0.00     0.080 A 
HETATM   22  C   UNL     1      39.240 -10.248  -3.333  1.00  0.00     0.239 C 
HETATM   23  N   UNL     1      39.090  -9.066  -2.383  1.00  0.00    -0.070 N 
HETATM   24  H   UNL     1      39.233  -8.218  -2.946  1.00  0.00     0.279 HD
HETATM   25  C   UNL     1      37.718  -8.943  -1.787  1.00  0.00     0.270 C 
BRANCH  21  26
HETATM   26  C   UNL     1      39.990 -14.140  -0.861  1.00  0.00     0.296 C 
HETATM   27  O   UNL     1      39.824 -14.997  -0.001  1.00  0.00    -0.259 OA
BRANCH  26  28
HETATM   28  O   UNL     1      39.899 -14.377  -2.203  1.00  0.00    -0.322 OA
HETATM   29  C   UNL     1      38.802 -15.214  -2.582  1.00  0.00     0.213 C 
ENDBRANCH  26  28
ENDBRANCH  21  26
ENDBRANCH  13  15
ENDBRANCH   1  13
BRANCH   1  30
HETATM   30  C   UNL     1      39.891 -12.992   3.309  1.00  0.00     0.441 C 
HETATM   31  F   UNL     1      39.639 -13.174   4.632  1.00  0.00    -0.166 F 
HETATM   32  F   UNL     1      39.522 -11.729   3.014  1.00  0.00    -0.166 F 
HETATM   33  F   UNL     1      39.026 -13.803   2.641  1.00  0.00    -0.166 F 
ENDBRANCH   1  30
BRANCH   1  34
HETATM   34  C   UNL     1      42.169 -12.254   3.744  1.00  0.00     0.441 C 
HETATM   35  F   UNL     1      41.482 -11.142   4.053  1.00  0.00    -0.166 F 
HETATM   36  F   UNL     1      42.572 -12.801   4.932  1.00  0.00    -0.166 F 
HETATM   37  F   UNL     1      43.302 -11.883   3.103  1.00  0.00    -0.166 F 
ENDBRANCH   1  34
TORSDOF 8
ENDMDL
MODEL 4
REMARK VINA RESULT:      -7.7      4.441      5.997
REMARK  8 active torsions:
REMARK  status: ('A' for Active; 'I' for Inactive)
REMARK    1  A    between atoms: C_5  and  C_6 
REMARK       I    between atoms: C_6  and  N_7 
REMARK    2  A    between atoms: N_7  and  C_8 
REMARK    3  A    between atoms: C_8  and  N_9 
REMARK    4  A    between atoms: C_8  and  C_25 
REMARK    5  A    between atoms: C_8  and  C_29 
REMARK    6  A    between atoms: N_9  and  C_10 
REMARK    7  A    between atoms: C_20  and  C_21 
REMARK    8  A    between atoms: C_21  and  O_22 
ROOT
HETATM    1  C   UNL     1      40.206 -12.917  -0.767  1.00  0.00     0.307 C 
ENDROOT
BRANCH   1   2
HETATM    2  N   UNL     1      41.028 -13.763   0.121  1.00  0.00    -0.315 N 
HETATM    3  C   UNL     1      40.567 -14.945   0.636  1.00  0.00     0.254 C 
HETATM    4  O   UNL     1      39.478 -15.413   0.346  1.00  0.00    -0.268 OA
HETATM    5  H   UNL     1      41.800 -13.307   0.581  1.00  0.00     0.165 HD
BRANCH   3   6
HETATM    6  C   UNL     1      41.467 -15.619   1.602  1.00  0.00     0.032 A 
HETATM    7  C   UNL     1      42.798 -15.902   1.271  1.00  0.00     0.017 A 
HETATM    8  C   UNL     1      43.623 -16.544   2.196  1.00  0.00     0.007 A 
HETATM    9  C   UNL     1      43.125 -16.916   3.451  1.00  0.00    -0.062 A 
HETATM   10  C   UNL     1      44.017 -17.583   4.458  1.00  0.00     0.048 C 
HETATM   11  C   UNL     1      41.793 -16.622   3.776  1.00  0.00     0.007 A 
HETATM   12  C   UNL     1      40.962 -15.988   2.850  1.00  0.00     0.017 A 
ENDBRANCH   3   6
ENDBRANCH   1   2
BRANCH   1  13
HETATM   13  N   UNL     1      38.973 -12.709   0.109  1.00  0.00    -0.342 N 
HETATM   14  H   UNL     1      38.764 -13.598   0.579  1.00  0.00     0.163 HD
BRANCH  13  15
HETATM   15  C   UNL     1      38.711 -11.585   0.844  1.00  0.00     0.089 A 
HETATM   16  S   UNL     1      37.680 -10.335   0.277  1.00  0.00    -0.074 SA
HETATM   17  C   UNL     1      37.775  -9.467   1.719  1.00  0.00     0.018 A 
HETATM   18  C   UNL     1      38.564 -10.094   2.659  1.00  0.00    -0.023 A 
HETATM   19  C   UNL     1      37.032  -8.190   1.918  1.00  0.00     0.281 C 
HETATM   20  C   UNL     1      38.773  -9.484   4.021  1.00  0.00     0.068 C 
HETATM   21  C   UNL     1      39.141 -11.328   2.149  1.00  0.00     0.080 A 
HETATM   22  C   UNL     1      37.755  -8.368   4.322  1.00  0.00     0.239 C 
HETATM   23  N   UNL     1      37.550  -7.434   3.136  1.00  0.00    -0.070 N 
HETATM   24  H   UNL     1      36.799  -6.784   3.400  1.00  0.00     0.279 HD
HETATM   25  C   UNL     1      38.747  -6.583   2.826  1.00  0.00     0.270 C 
BRANCH  21  26
HETATM   26  C   UNL     1      40.068 -12.176   2.920  1.00  0.00     0.296 C 
HETATM   27  O   UNL     1      39.705 -12.833   3.887  1.00  0.00    -0.259 OA
BRANCH  26  28
HETATM   28  O   UNL     1      41.360 -12.111   2.481  1.00  0.00    -0.322 OA
HETATM   29  C   UNL     1      42.155 -11.111   3.126  1.00  0.00     0.213 C 
ENDBRANCH  26  28
ENDBRANCH  21  26
ENDBRANCH  13  15
ENDBRANCH   1  13
BRANCH   1  30
HETATM   30  C   UNL     1      40.869 -11.618  -1.322  1.00  0.00     0.441 C 
HETATM   31  F   UNL     1      41.847 -11.897  -2.224  1.00  0.00    -0.166 F 
HETATM   32  F   UNL     1      40.016 -10.767  -1.927  1.00  0.00    -0.166 F 
HETATM   33  F   UNL     1      41.463 -10.910  -0.323  1.00  0.00    -0.166 F 
ENDBRANCH   1  30
BRANCH   1  34
HETATM   34  C   UNL     1      39.747 -13.642  -2.076  1.00  0.00     0.441 C 
HETATM   35  F   UNL     1      39.609 -12.853  -3.154  1.00  0.00    -0.166 F 
HETATM   36  F   UNL     1      40.689 -14.580  -2.402  1.00  0.00    -0.166 F 
HETATM   37  F   UNL     1      38.591 -14.324  -1.902  1.00  0.00    -0.166 F 
ENDBRANCH   1  34
TORSDOF 8
ENDMDL
MODEL 5
REMARK VINA RESULT:      -7.6      3.068      4.569
REMARK  8 active torsions:
REMARK  status: ('A' for Active; 'I' for Inactive)
REMARK    1  A    between atoms: C_5  and  C_6 
REMARK       I    between atoms: C_6  and  N_7 
REMARK    2  A    between atoms: N_7  and  C_8 
REMARK    3  A    between atoms: C_8  and  N_9 
REMARK    4  A    between atoms: C_8  and  C_25 
REMARK    5  A    between atoms: C_8  and  C_29 
REMARK    6  A    between atoms: N_9  and  C_10 
REMARK    7  A    between atoms: C_20  and  C_21 
REMARK    8  A    between atoms: C_21  and  O_22 
ROOT
HETATM    1  C   UNL     1      41.878 -14.983   4.560  1.00  0.00     0.307 C 
ENDROOT
BRANCH   1   2
HETATM    2  N   UNL     1      41.221 -14.671   3.275  1.00  0.00    -0.315 N 
HETATM    3  C   UNL     1      41.931 -14.340   2.152  1.00  0.00     0.254 C 
HETATM    4  O   UNL     1      43.150 -14.346   2.115  1.00  0.00    -0.268 OA
HETATM    5  H   UNL     1      40.249 -14.406   3.326  1.00  0.00     0.165 HD
BRANCH   3   6
HETATM    6  C   UNL     1      41.123 -13.942   0.975  1.00  0.00     0.032 A 
HETATM    7  C   UNL     1      41.127 -12.621   0.511  1.00  0.00     0.017 A 
HETATM    8  C   UNL     1      40.352 -12.270  -0.595  1.00  0.00     0.007 A 
HETATM    9  C   UNL     1      39.560 -13.229  -1.239  1.00  0.00    -0.062 A 
HETATM   10  C   UNL     1      38.745 -12.861  -2.445  1.00  0.00     0.048 C 
HETATM   11  C   UNL     1      39.568 -14.551  -0.771  1.00  0.00     0.007 A 
HETATM   12  C   UNL     1      40.335 -14.904   0.340  1.00  0.00     0.017 A 
ENDBRANCH   3   6
ENDBRANCH   1   2
BRANCH   1  13
HETATM   13  N   UNL     1      42.928 -13.876   4.612  1.00  0.00    -0.342 N 
HETATM   14  H   UNL     1      43.204 -13.655   3.647  1.00  0.00     0.163 HD
BRANCH  13  15
HETATM   15  C   UNL     1      42.906 -12.810   5.470  1.00  0.00     0.089 A 
HETATM   16  S   UNL     1      43.785 -12.798   6.944  1.00  0.00    -0.074 SA
HETATM   17  C   UNL     1      43.363 -11.205   7.299  1.00  0.00     0.018 A 
HETATM   18  C   UNL     1      42.571 -10.642   6.321  1.00  0.00    -0.023 A 
HETATM   19  C   UNL     1      43.856 -10.516   8.525  1.00  0.00     0.281 C 
HETATM   20  C   UNL     1      42.090  -9.219   6.444  1.00  0.00     0.068 C 
HETATM   21  C   UNL     1      42.274 -11.582   5.253  1.00  0.00     0.080 A 
HETATM   22  C   UNL     1      42.865  -8.432   7.518  1.00  0.00     0.239 C 
HETATM   23  N   UNL     1      43.068  -9.239   8.795  1.00  0.00    -0.070 N 
HETATM   24  H   UNL     1      43.662  -8.670   9.410  1.00  0.00     0.279 HD
HETATM   25  C   UNL     1      41.799  -9.489   9.556  1.00  0.00     0.270 C 
BRANCH  21  26
HETATM   26  C   UNL     1      41.404 -11.267   4.105  1.00  0.00     0.296 C 
HETATM   27  O   UNL     1      41.716 -10.445   3.252  1.00  0.00    -0.259 OA
BRANCH  26  28
HETATM   28  O   UNL     1      40.213 -11.936   4.122  1.00  0.00    -0.322 OA
HETATM   29  C   UNL     1      39.168 -11.302   3.379  1.00  0.00     0.213 C 
ENDBRANCH  26  28
ENDBRANCH  21  26
ENDBRANCH  13  15
ENDBRANCH   1  13
BRANCH   1  30
HETATM   30  C   UNL     1      40.960 -15.104   5.816  1.00  0.00     0.441 C 
HETATM   31  F   UNL     1      41.683 -15.268   6.956  1.00  0.00    -0.166 F 
HETATM   32  F   UNL     1      40.148 -14.047   6.021  1.00  0.00    -0.166 F 
HETATM   33  F   UNL     1      40.147 -16.191   5.721  1.00  0.00    -0.166 F 
ENDBRANCH   1  30
BRANCH   1  34
HETATM   34  C   UNL     1      42.629 -16.355   4.563  1.00  0.00     0.441 C 
HETATM   35  F   UNL     1      42.570 -17.043   5.715  1.00  0.00    -0.166 F 
HETATM   36  F   UNL     1      42.066 -17.156   3.606  1.00  0.00    -0.166 F 
HETATM   37  F   UNL     1      43.931 -16.225   4.218  1.00  0.00    -0.166 F 
ENDBRANCH   1  34
TORSDOF 8
ENDMDL
MODEL 6
REMARK VINA RESULT:      -7.4      3.514      6.213
REMARK  8 active torsions:
REMARK  status: ('A' for Active; 'I' for Inactive)
REMARK    1  A    between atoms: C_5  and  C_6 
REMARK       I    between atoms: C_6  and  N_7 
REMARK    2  A    between atoms: N_7  and  C_8 
REMARK    3  A    between atoms: C_8  and  N_9 
REMARK    4  A    between atoms: C_8  and  C_25 
REMARK    5  A    between atoms: C_8  and  C_29 
REMARK    6  A    between atoms: N_9  and  C_10 
REMARK    7  A    between atoms: C_20  and  C_21 
REMARK    8  A    between atoms: C_21  and  O_22 
ROOT
HETATM    1  C   UNL     1      41.346 -13.440   4.357  1.00  0.00     0.307 C 
ENDROOT
BRANCH   1   2
HETATM    2  N   UNL     1      41.698 -14.806   3.923  1.00  0.00    -0.315 N 
HETATM    3  C   UNL     1      42.765 -15.487   4.447  1.00  0.00     0.254 C 
HETATM    4  O   UNL     1      43.453 -15.043   5.351  1.00  0.00    -0.268 OA
HETATM    5  H   UNL     1      41.334 -15.096   3.028  1.00  0.00     0.165 HD
BRANCH   3   6
HETATM    6  C   UNL     1      43.056 -16.800   3.824  1.00  0.00     0.032 A 
HETATM    7  C   UNL     1      42.435 -17.186   2.630  1.00  0.00     0.017 A 
HETATM    8  C   UNL     1      42.721 -18.432   2.068  1.00  0.00     0.007 A 
HETATM    9  C   UNL     1      43.620 -19.303   2.697  1.00  0.00    -0.062 A 
HETATM   10  C   UNL     1      43.950 -20.632   2.082  1.00  0.00     0.048 C 
HETATM   11  C   UNL     1      44.242 -18.905   3.888  1.00  0.00     0.007 A 
HETATM   12  C   UNL     1      43.952 -17.664   4.459  1.00  0.00     0.017 A 
ENDBRANCH   3   6
ENDBRANCH   1   2
BRANCH   1  13
HETATM   13  N   UNL     1      40.044 -13.229   3.589  1.00  0.00    -0.342 N 
HETATM   14  H   UNL     1      39.451 -12.596   4.139  1.00  0.00     0.163 HD
BRANCH  13  15
HETATM   15  C   UNL     1      39.945 -13.090   2.232  1.00  0.00     0.089 A 
HETATM   16  S   UNL     1      40.148 -14.411   1.154  1.00  0.00    -0.074 SA
HETATM   17  C   UNL     1      39.759 -13.491  -0.204  1.00  0.00     0.018 A 
HETATM   18  C   UNL     1      39.456 -12.186   0.115  1.00  0.00    -0.023 A 
HETATM   19  C   UNL     1      39.720 -14.086  -1.571  1.00  0.00     0.281 C 
HETATM   20  C   UNL     1      39.074 -11.199  -0.959  1.00  0.00     0.068 C 
HETATM   21  C   UNL     1      39.585 -11.929   1.540  1.00  0.00     0.080 A 
HETATM   22  C   UNL     1      38.717 -11.892  -2.287  1.00  0.00     0.239 C 
HETATM   23  N   UNL     1      39.696 -13.004  -2.643  1.00  0.00    -0.070 N 
HETATM   24  H   UNL     1      39.330 -13.458  -3.489  1.00  0.00     0.279 HD
HETATM   25  C   UNL     1      41.067 -12.507  -2.998  1.00  0.00     0.270 C 
BRANCH  21  26
HETATM   26  C   UNL     1      39.375 -10.606   2.155  1.00  0.00     0.296 C 
HETATM   27  O   UNL     1      40.035  -9.624   1.839  1.00  0.00    -0.259 OA
BRANCH  26  28
HETATM   28  O   UNL     1      38.421 -10.603   3.132  1.00  0.00    -0.322 OA
HETATM   29  C   UNL     1      38.437  -9.444   3.971  1.00  0.00     0.213 C 
ENDBRANCH  26  28
ENDBRANCH  21  26
ENDBRANCH  13  15
ENDBRANCH   1  13
BRANCH   1  30
HETATM   30  C   UNL     1      41.274 -13.180   5.895  1.00  0.00     0.441 C 
HETATM   31  F   UNL     1      40.439 -12.150   6.194  1.00  0.00    -0.166 F 
HETATM   32  F   UNL     1      40.863 -14.238   6.623  1.00  0.00    -0.166 F 
HETATM   33  F   UNL     1      42.495 -12.835   6.387  1.00  0.00    -0.166 F 
ENDBRANCH   1  30
BRANCH   1  34
HETATM   34  C   UNL     1      42.364 -12.350   3.883  1.00  0.00     0.441 C 
HETATM   35  F   UNL     1      41.927 -11.081   3.956  1.00  0.00    -0.166 F 
HETATM   36  F   UNL     1      43.474 -12.421   4.679  1.00  0.00    -0.166 F 
HETATM   37  F   UNL     1      42.798 -12.573   2.621  1.00  0.00    -0.166 F 
ENDBRANCH   1  34
TORSDOF 8
ENDMDL
MODEL 7
REMARK VINA RESULT:      -7.4      3.354      5.947
REMARK  8 active torsions:
REMARK  status: ('A' for Active; 'I' for Inactive)
REMARK    1  A    between atoms: C_5  and  C_6 
REMARK       I    between atoms: C_6  and  N_7 
REMARK    2  A    between atoms: N_7  and  C_8 
REMARK    3  A    between atoms: C_8  and  N_9 
REMARK    4  A    between atoms: C_8  and  C_25 
REMARK    5  A    between atoms: C_8  and  C_29 
REMARK    6  A    between atoms: N_9  and  C_10 
REMARK    7  A    between atoms: C_20  and  C_21 
REMARK    8  A    between atoms: C_21  and  O_22 
ROOT
HETATM    1  C   UNL     1      41.846 -14.710   2.782  1.00  0.00     0.307 C 
ENDROOT
BRANCH   1   2
HETATM    2  N   UNL     1      41.590 -13.442   2.070  1.00  0.00    -0.315 N 
HETATM    3  C   UNL     1      41.169 -13.407   0.768  1.00  0.00     0.254 C 
HETATM    4  O   UNL     1      40.911 -14.414   0.129  1.00  0.00    -0.268 OA
HETATM    5  H   UNL     1      42.026 -12.619   2.457  1.00  0.00     0.165 HD
BRANCH   3   6
HETATM    6  C   UNL     1      41.070 -12.058   0.161  1.00  0.00     0.032 A 
HETATM    7  C   UNL     1      41.111 -10.905   0.955  1.00  0.00     0.017 A 
HETATM    8  C   UNL     1      41.008  -9.647   0.359  1.00  0.00     0.007 A 
HETATM    9  C   UNL     1      40.855  -9.530  -1.028  1.00  0.00    -0.062 A 
HETATM   10  C   UNL     1      40.771  -8.177  -1.674  1.00  0.00     0.048 C 
HETATM   11  C   UNL     1      40.823 -10.690  -1.815  1.00  0.00     0.007 A 
HETATM   12  C   UNL     1      40.916 -11.950  -1.223  1.00  0.00     0.017 A 
ENDBRANCH   3   6
ENDBRANCH   1   2
BRANCH   1  13
HETATM   13  N   UNL     1      42.221 -14.184   4.165  1.00  0.00    -0.342 N 
HETATM   14  H   UNL     1      43.238 -14.278   4.274  1.00  0.00     0.163 HD
BRANCH  13  15
HETATM   15  C   UNL     1      41.668 -13.086   4.765  1.00  0.00     0.089 A 
HETATM   16  S   UNL     1      40.124 -13.125   5.512  1.00  0.00    -0.074 SA
HETATM   17  C   UNL     1      40.247 -11.542   6.079  1.00  0.00     0.018 A 
HETATM   18  C   UNL     1      41.446 -10.954   5.737  1.00  0.00    -0.023 A 
HETATM   19  C   UNL     1      39.169 -10.912   6.893  1.00  0.00     0.281 C 
HETATM   20  C   UNL     1      41.757  -9.540   6.156  1.00  0.00     0.068 C 
HETATM   21  C   UNL     1      42.281 -11.841   4.944  1.00  0.00     0.080 A 
HETATM   22  C   UNL     1      40.804  -9.034   7.255  1.00  0.00     0.239 C 
HETATM   23  N   UNL     1      39.351  -9.402   6.978  1.00  0.00    -0.070 N 
HETATM   24  H   UNL     1      38.811  -9.101   7.798  1.00  0.00     0.279 HD
HETATM   25  C   UNL     1      38.762  -8.678   5.802  1.00  0.00     0.270 C 
BRANCH  21  26
HETATM   26  C   UNL     1      43.593 -11.454   4.395  1.00  0.00     0.296 C 
HETATM   27  O   UNL     1      43.861 -11.554   3.204  1.00  0.00    -0.259 OA
BRANCH  26  28
HETATM   28  O   UNL     1      44.479 -11.031   5.344  1.00  0.00    -0.322 OA
HETATM   29  C   UNL     1      44.819 -12.021   6.320  1.00  0.00     0.213 C 
ENDBRANCH  26  28
ENDBRANCH  21  26
ENDBRANCH  13  15
ENDBRANCH   1  13
BRANCH   1  30
HETATM   30  C   UNL     1      40.711 -15.782   2.750  1.00  0.00     0.441 C 
HETATM   31  F   UNL     1      39.483 -15.212   2.625  1.00  0.00    -0.166 F 
HETATM   32  F   UNL     1      40.821 -16.687   1.757  1.00  0.00    -0.166 F 
HETATM   33  F   UNL     1      40.683 -16.494   3.909  1.00  0.00    -0.166 F 
ENDBRANCH   1  30
BRANCH   1  34
HETATM   34  C   UNL     1      43.071 -15.506   2.223  1.00  0.00     0.441 C 
HETATM   35  F   UNL     1      42.829 -16.243   1.126  1.00  0.00    -0.166 F 
HETATM   36  F   UNL     1      44.047 -14.611   1.879  1.00  0.00    -0.166 F 
HETATM   37  F   UNL     1      43.623 -16.314   3.158  1.00  0.00    -0.166 F 
ENDBRANCH   1  34
TORSDOF 8
ENDMDL
MODEL 8
REMARK VINA RESULT:      -7.3      4.514      6.417
REMARK  8 active torsions:
REMARK  status: ('A' for Active; 'I' for Inactive)
REMARK    1  A    between atoms: C_5  and  C_6 
REMARK       I    between atoms: C_6  and  N_7 
REMARK    2  A    between atoms: N_7  and  C_8 
REMARK    3  A    between atoms: C_8  and  N_9 
REMARK    4  A    between atoms: C_8  and  C_25 
REMARK    5  A    between atoms: C_8  and  C_29 
REMARK    6  A    between atoms: N_9  and  C_10 
REMARK    7  A    between atoms: C_20  and  C_21 
REMARK    8  A    between atoms: C_21  and  O_22 
ROOT
HETATM    1  C   UNL     1      43.868 -10.053   9.419  1.00  0.00     0.307 C 
ENDROOT
BRANCH   1   2
HETATM    2  N   UNL     1      43.569 -11.269   8.637  1.00  0.00    -0.315 N 
HETATM    3  C   UNL     1      43.512 -11.261   7.268  1.00  0.00     0.254 C 
HETATM    4  O   UNL     1      43.768 -10.272   6.601  1.00  0.00    -0.268 OA
HETATM    5  H   UNL     1      43.109 -12.016   9.133  1.00  0.00     0.165 HD
BRANCH   3   6
HETATM    6  C   UNL     1      43.087 -12.532   6.636  1.00  0.00     0.032 A 
HETATM    7  C   UNL     1      41.898 -12.609   5.899  1.00  0.00     0.017 A 
HETATM    8  C   UNL     1      41.517 -13.820   5.320  1.00  0.00     0.007 A 
HETATM    9  C   UNL     1      42.310 -14.964   5.479  1.00  0.00    -0.062 A 
HETATM   10  C   UNL     1      41.916 -16.261   4.836  1.00  0.00     0.048 C 
HETATM   11  C   UNL     1      43.501 -14.875   6.213  1.00  0.00     0.007 A 
HETATM   12  C   UNL     1      43.882 -13.668   6.802  1.00  0.00     0.017 A 
ENDBRANCH   3   6
ENDBRANCH   1   2
BRANCH   1  13
HETATM   13  N   UNL     1      43.031  -9.023   8.665  1.00  0.00    -0.342 N 
HETATM   14  H   UNL     1      42.636  -9.482   7.836  1.00  0.00     0.163 HD
BRANCH  13  15
HETATM   15  C   UNL     1      42.228  -8.081   9.249  1.00  0.00     0.089 A 
HETATM   16  S   UNL     1      42.825  -6.559   9.770  1.00  0.00    -0.074 SA
HETATM   17  C   UNL     1      41.296  -5.997  10.206  1.00  0.00     0.018 A 
HETATM   18  C   UNL     1      40.307  -6.924   9.961  1.00  0.00    -0.023 A 
HETATM   19  C   UNL     1      41.089  -4.625  10.750  1.00  0.00     0.281 C 
HETATM   20  C   UNL     1      38.865  -6.614  10.275  1.00  0.00     0.068 C 
HETATM   21  C   UNL     1      40.843  -8.163   9.422  1.00  0.00     0.080 A 
HETATM   22  C   UNL     1      38.631  -5.110  10.513  1.00  0.00     0.239 C 
HETATM   23  N   UNL     1      39.712  -4.485  11.387  1.00  0.00    -0.070 N 
HETATM   24  H   UNL     1      39.519  -3.477  11.416  1.00  0.00     0.279 HD
HETATM   25  C   UNL     1      39.680  -4.956  12.812  1.00  0.00     0.270 C 
BRANCH  21  26
HETATM   26  C   UNL     1      40.018  -9.347   9.118  1.00  0.00     0.296 C 
HETATM   27  O   UNL     1      39.313  -9.888   9.960  1.00  0.00    -0.259 OA
BRANCH  26  28
HETATM   28  O   UNL     1      40.162  -9.798   7.837  1.00  0.00    -0.322 OA
HETATM   29  C   UNL     1      39.463  -9.027   6.856  1.00  0.00     0.213 C 
ENDBRANCH  26  28
ENDBRANCH  21  26
ENDBRANCH  13  15
ENDBRANCH   1  13
BRANCH   1  30
HETATM   30  C   UNL     1      43.627 -10.124  10.960  1.00  0.00     0.441 C 
HETATM   31  F   UNL     1      44.341 -11.127  11.537  1.00  0.00    -0.166 F 
HETATM   32  F   UNL     1      43.935  -8.995  11.628  1.00  0.00    -0.166 F 
HETATM   33  F   UNL     1      42.319 -10.381  11.236  1.00  0.00    -0.166 F 
ENDBRANCH   1  30
BRANCH   1  34
HETATM   34  C   UNL     1      45.365  -9.607   9.337  1.00  0.00     0.441 C 
HETATM   35  F   UNL     1      45.961  -9.364  10.516  1.00  0.00    -0.166 F 
HETATM   36  F   UNL     1      46.082 -10.610   8.742  1.00  0.00    -0.166 F 
HETATM   37  F   UNL     1      45.530  -8.518   8.551  1.00  0.00    -0.166 F 
ENDBRANCH   1  34
TORSDOF 8
ENDMDL
MODEL 9
REMARK VINA RESULT:      -7.1      4.588      6.300
REMARK  8 active torsions:
REMARK  status: ('A' for Active; 'I' for Inactive)
REMARK    1  A    between atoms: C_5  and  C_6 
REMARK       I    between atoms: C_6  and  N_7 
REMARK    2  A    between atoms: N_7  and  C_8 
REMARK    3  A    between atoms: C_8  and  N_9 
REMARK    4  A    between atoms: C_8  and  C_25 
REMARK    5  A    between atoms: C_8  and  C_29 
REMARK    6  A    between atoms: N_9  and  C_10 
REMARK    7  A    between atoms: C_20  and  C_21 
REMARK    8  A    between atoms: C_21  and  O_22 
ROOT
HETATM    1  C   UNL     1      43.733 -10.047   9.131  1.00  0.00     0.307 C 
ENDROOT
BRANCH   1   2
HETATM    2  N   UNL     1      43.757 -11.275   8.312  1.00  0.00    -0.315 N 
HETATM    3  C   UNL     1      43.189 -11.334   7.067  1.00  0.00     0.254 C 
HETATM    4  O   UNL     1      42.687 -10.364   6.523  1.00  0.00    -0.268 OA
HETATM    5  H   UNL     1      43.920 -12.137   8.807  1.00  0.00     0.165 HD
BRANCH   3   6
HETATM    6  C   UNL     1      43.194 -12.667   6.421  1.00  0.00     0.032 A 
HETATM    7  C   UNL     1      42.824 -12.821   5.079  1.00  0.00     0.017 A 
HETATM    8  C   UNL     1      42.831 -14.089   4.497  1.00  0.00     0.007 A 
HETATM    9  C   UNL     1      43.196 -15.213   5.249  1.00  0.00    -0.062 A 
HETATM   10  C   UNL     1      43.229 -16.575   4.618  1.00  0.00     0.048 C 
HETATM   11  C   UNL     1      43.572 -15.048   6.590  1.00  0.00     0.007 A 
HETATM   12  C   UNL     1      43.558 -13.783   7.179  1.00  0.00     0.017 A 
ENDBRANCH   3   6
ENDBRANCH   1   2
BRANCH   1  13
HETATM   13  N   UNL     1      42.255  -9.679   9.040  1.00  0.00    -0.342 N 
HETATM   14  H   UNL     1      41.755 -10.477   8.630  1.00  0.00     0.163 HD
BRANCH  13  15
HETATM   15  C   UNL     1      41.559  -8.978   9.986  1.00  0.00     0.089 A 
HETATM   16  S   UNL     1      40.945  -9.714  11.410  1.00  0.00    -0.074 SA
HETATM   17  C   UNL     1      40.393  -8.254  12.047  1.00  0.00     0.018 A 
HETATM   18  C   UNL     1      40.665  -7.185  11.222  1.00  0.00    -0.023 A 
HETATM   19  C   UNL     1      39.730  -8.179  13.380  1.00  0.00     0.281 C 
HETATM   20  C   UNL     1      40.259  -5.787  11.612  1.00  0.00     0.068 C 
HETATM   21  C   UNL     1      41.328  -7.599   9.996  1.00  0.00     0.080 A 
HETATM   22  C   UNL     1      39.890  -5.683  13.104  1.00  0.00     0.239 C 
HETATM   23  N   UNL     1      39.020  -6.844  13.569  1.00  0.00    -0.070 N 
HETATM   24  H   UNL     1      38.900  -6.733  14.583  1.00  0.00     0.279 HD
HETATM   25  C   UNL     1      37.638  -6.833  12.983  1.00  0.00     0.270 C 
BRANCH  21  26
HETATM   26  C   UNL     1      41.687  -6.671   8.908  1.00  0.00     0.296 C 
HETATM   27  O   UNL     1      42.468  -5.741   9.070  1.00  0.00    -0.259 OA
BRANCH  26  28
HETATM   28  O   UNL     1      41.031  -6.921   7.736  1.00  0.00    -0.322 OA
HETATM   29  C   UNL     1      39.651  -6.540   7.739  1.00  0.00     0.213 C 
ENDBRANCH  26  28
ENDBRANCH  21  26
ENDBRANCH  13  15
ENDBRANCH   1  13
BRANCH   1  30
HETATM   30  C   UNL     1      44.318 -10.146  10.575  1.00  0.00     0.441 C 
HETATM   31  F   UNL     1      45.654 -10.397  10.561  1.00  0.00    -0.166 F 
HETATM   32  F   UNL     1      44.139  -9.043  11.330  1.00  0.00    -0.166 F 
HETATM   33  F   UNL     1      43.745 -11.171  11.262  1.00  0.00    -0.166 F 
ENDBRANCH   1  30
BRANCH   1  34
HETATM   34  C   UNL     1      44.559  -8.868   8.517  1.00  0.00     0.441 C 
HETATM   35  F   UNL     1      45.697  -9.222   7.897  1.00  0.00    -0.166 F 
HETATM   36  F   UNL     1      43.786  -8.243   7.578  1.00  0.00    -0.166 F 
HETATM   37  F   UNL     1      44.859  -7.923   9.439  1.00  0.00    -0.166 F 
ENDBRANCH   1  34
TORSDOF 8
ENDMDL
MODEL 10
REMARK VINA RESULT:      -7.1      6.046      7.299
REMARK  8 active torsions:
REMARK  status: ('A' for Active; 'I' for Inactive)
REMARK    1  A    between atoms: C_5  and  C_6 
REMARK       I    between atoms: C_6  and  N_7 
REMARK    2  A    between atoms: N_7  and  C_8 
REMARK    3  A    between atoms: C_8  and  N_9 
REMARK    4  A    between atoms: C_8  and  C_25 
REMARK    5  A    between atoms: C_8  and  C_29 
REMARK    6  A    between atoms: N_9  and  C_10 
REMARK    7  A    between atoms: C_20  and  C_21 
REMARK    8  A    between atoms: C_21  and  O_22 
ROOT
HETATM    1  C   UNL     1      40.099 -13.131  -1.392  1.00  0.00     0.307 C 
ENDROOT
BRANCH   1   2
HETATM    2  N   UNL     1      40.773 -14.093  -0.497  1.00  0.00    -0.315 N 
HETATM    3  C   UNL     1      40.387 -14.275   0.804  1.00  0.00     0.254 C 
HETATM    4  O   UNL     1      39.423 -13.709   1.293  1.00  0.00    -0.268 OA
HETATM    5  H   UNL     1      41.703 -14.376  -0.768  1.00  0.00     0.165 HD
BRANCH   3   6
HETATM    6  C   UNL     1      41.236 -15.189   1.604  1.00  0.00     0.032 A 
HETATM    7  C   UNL     1      40.748 -15.793   2.769  1.00  0.00     0.017 A 
HETATM    8  C   UNL     1      41.570 -16.645   3.508  1.00  0.00     0.007 A 
HETATM    9  C   UNL     1      42.886 -16.892   3.097  1.00  0.00    -0.062 A 
HETATM   10  C   UNL     1      43.765 -17.828   3.876  1.00  0.00     0.048 C 
HETATM   11  C   UNL     1      43.364 -16.289   1.925  1.00  0.00     0.007 A 
HETATM   12  C   UNL     1      42.548 -15.429   1.188  1.00  0.00     0.017 A 
ENDBRANCH   3   6
ENDBRANCH   1   2
BRANCH   1  13
HETATM   13  N   UNL     1      39.721 -12.039  -0.394  1.00  0.00    -0.342 N 
HETATM   14  H   UNL     1      39.905 -12.397   0.551  1.00  0.00     0.163 HD
BRANCH  13  15
HETATM   15  C   UNL     1      39.951 -10.702  -0.567  1.00  0.00     0.089 A 
HETATM   16  S   UNL     1      41.409  -9.947  -0.065  1.00  0.00    -0.074 SA
HETATM   17  C   UNL     1      40.977  -8.453  -0.718  1.00  0.00     0.018 A 
HETATM   18  C   UNL     1      39.745  -8.487  -1.336  1.00  0.00    -0.023 A 
HETATM   19  C   UNL     1      41.883  -7.272  -0.645  1.00  0.00     0.281 C 
HETATM   20  C   UNL     1      39.178  -7.254  -1.990  1.00  0.00     0.068 C 
HETATM   21  C   UNL     1      39.120  -9.795  -1.233  1.00  0.00     0.080 A 
HETATM   22  C   UNL     1      40.244  -6.161  -2.198  1.00  0.00     0.239 C 
HETATM   23  N   UNL     1      41.139  -5.984  -0.978  1.00  0.00    -0.070 N 
HETATM   24  H   UNL     1      41.863  -5.305  -1.241  1.00  0.00     0.279 HD
HETATM   25  C   UNL     1      40.430  -5.399   0.208  1.00  0.00     0.270 C 
BRANCH  21  26
HETATM   26  C   UNL     1      37.777 -10.103  -1.757  1.00  0.00     0.296 C 
HETATM   27  O   UNL     1      37.565 -10.291  -2.948  1.00  0.00    -0.259 OA
BRANCH  26  28
HETATM   28  O   UNL     1      36.804 -10.104  -0.798  1.00  0.00    -0.322 OA
HETATM   29  C   UNL     1      35.693  -9.249  -1.083  1.00  0.00     0.213 C 
ENDBRANCH  26  28
ENDBRANCH  21  26
ENDBRANCH  13  15
ENDBRANCH   1  13
BRANCH   1  30
HETATM   30  C   UNL     1      40.893 -12.654  -2.649  1.00  0.00     0.441 C 
HETATM   31  F   UNL     1      40.147 -11.834  -3.435  1.00  0.00    -0.166 F 
HETATM   32  F   UNL     1      42.035 -11.992  -2.373  1.00  0.00    -0.166 F 
HETATM   33  F   UNL     1      41.248 -13.711  -3.429  1.00  0.00    -0.166 F 
ENDBRANCH   1  30
BRANCH   1  34
HETATM   34  C   UNL     1      38.777 -13.682  -2.022  1.00  0.00     0.441 C 
HETATM   35  F   UNL     1      38.592 -13.391  -3.321  1.00  0.00    -0.166 F 
HETATM   36  F   UNL     1      38.793 -15.047  -1.932  1.00  0.00    -0.166 F 
HETATM   37  F   UNL     1      37.681 -13.278  -1.341  1.00  0.00    -0.166 F 
ENDBRANCH   1  34
TORSDOF 8
ENDMDL
