MODEL 1
REMARK VINA RESULT:      -7.8      0.000      0.000
REMARK  7 active torsions:
REMARK  status: ('A' for Active; 'I' for Inactive)
REMARK    1  A    between atoms: C_2  and  N_3 
REMARK    2  A    between atoms: N_3  and  C_4 
REMARK    3  A    between atoms: C_6  and  C_7 
REMARK    4  A    between atoms: C_7  and  N_8 
REMARK       I    between atoms: N_8  and  C_9 
REMARK       I    between atoms: C_9  and  N_10 
REMARK    5  A    between atoms: N_10  and  C_11 
REMARK    6  A    between atoms: C_11  and  C_12 
REMARK    7  A    between atoms: C_12  and  N_13 
ROOT
HETATM    1  N   UNL     1      41.906 -14.193   6.817  1.00  0.00    -0.339 N 
HETATM    2  C   UNL     1      43.027 -13.432   6.728  1.00  0.00     0.316 C 
HETATM    3  N   UNL     1      42.767 -12.097   6.871  1.00  0.00    -0.342 N 
HETATM    4  O   UNL     1      44.154 -13.859   6.508  1.00  0.00    -0.248 OA
HETATM    5  H   UNL     1      41.006 -13.753   6.706  1.00  0.00     0.164 HD
HETATM    6  H   UNL     1      41.847 -11.896   7.242  1.00  0.00     0.164 HD
ENDROOT
BRANCH   1   7
HETATM    7  C   UNL     1      41.940 -15.635   6.666  1.00  0.00     0.162 C 
BRANCH   7   8
HETATM    8  C   UNL     1      41.944 -16.062   5.220  1.00  0.00    -0.039 A 
HETATM    9  C   UNL     1      42.856 -17.034   4.775  1.00  0.00     0.032 A 
HETATM   10  C   UNL     1      42.819 -17.539   3.468  1.00  0.00     0.009 A 
HETATM   11  C   UNL     1      41.906 -16.980   2.572  1.00  0.00     0.023 A 
HETATM   12  C   UNL     1      40.996 -16.006   2.991  1.00  0.00     0.002 A 
HETATM   13  C   UNL     1      41.003 -15.561   4.311  1.00  0.00     0.009 A 
BRANCH  10  14
HETATM   14  N   UNL     1      43.788 -18.487   3.111  1.00  0.00    -0.289 NA
HETATM   15  H   UNL     1      44.183 -18.211   2.212  1.00  0.00     0.128 HD
BRANCH  14  16
HETATM   16  C   UNL     1      43.427 -19.915   3.095  1.00  0.00     0.052 C 
HETATM   17  C   UNL     1      44.086 -20.657   4.259  1.00  0.00     0.026 C 
HETATM   18  C   UNL     1      43.910 -20.515   1.772  1.00  0.00     0.026 C 
ENDBRANCH  14  16
ENDBRANCH  10  14
ENDBRANCH   7   8
ENDBRANCH   1   7
BRANCH   3  19
HETATM   19  C   UNL     1      43.769 -11.062   7.114  1.00  0.00     0.152 C 
BRANCH  19  20
HETATM   20  C   UNL     1      44.209 -10.756   8.563  1.00  0.00     0.255 C 
BRANCH  20  21
HETATM   21  N   UNL     1      43.067 -10.432   9.490  1.00  0.00    -0.065 N 
HETATM   22  H   UNL     1      42.429 -11.246   9.394  1.00  0.00     0.280 HD
HETATM   23  C   UNL     1      43.445 -10.329  10.948  1.00  0.00     0.274 C 
HETATM   24  C   UNL     1      42.320  -9.825  11.789  1.00  0.00    -0.019 A 
HETATM   25  C   UNL     1      41.177  -9.277  11.240  1.00  0.00    -0.008 A 
HETATM   26  C   UNL     1      42.260  -9.810  13.217  1.00  0.00     0.017 A 
HETATM   27  S   UNL     1      40.052  -8.771  12.407  1.00  0.00    -0.106 SA
HETATM   28  C   UNL     1      40.920  -9.151   9.773  1.00  0.00     0.074 C 
HETATM   29  C   UNL     1      41.083  -9.262  13.682  1.00  0.00     0.051 A 
HETATM   30  C   UNL     1      42.249  -9.244   9.006  1.00  0.00     0.240 C 
ENDBRANCH  20  21
ENDBRANCH  19  20
ENDBRANCH   3  19
TORSDOF 7
ENDMDL
MODEL 2
REMARK VINA RESULT:      -7.8      3.137      4.814
REMARK  7 active torsions:
REMARK  status: ('A' for Active; 'I' for Inactive)
REMARK    1  A    between atoms: C_2  and  N_3 
REMARK    2  A    between atoms: N_3  and  C_4 
REMARK    3  A    between atoms: C_6  and  C_7 
REMARK    4  A    between atoms: C_7  and  N_8 
REMARK       I    between atoms: N_8  and  C_9 
REMARK       I    between atoms: C_9  and  N_10 
REMARK    5  A    between atoms: N_10  and  C_11 
REMARK    6  A    between atoms: C_11  and  C_12 
REMARK    7  A    between atoms: C_12  and  N_13 
ROOT
HETATM    1  N   UNL     1      40.555 -15.642   3.017  1.00  0.00    -0.339 N 
HETATM    2  C   UNL     1      40.540 -14.284   3.014  1.00  0.00     0.316 C 
HETATM    3  N   UNL     1      39.716 -13.767   3.975  1.00  0.00    -0.342 N 
HETATM    4  O   UNL     1      41.154 -13.574   2.227  1.00  0.00    -0.248 OA
HETATM    5  H   UNL     1      39.815 -16.139   3.488  1.00  0.00     0.164 HD
HETATM    6  H   UNL     1      39.430 -14.440   4.676  1.00  0.00     0.164 HD
ENDROOT
BRANCH   1   7
HETATM    7  C   UNL     1      41.337 -16.406   2.063  1.00  0.00     0.162 C 
BRANCH   7   8
HETATM    8  C   UNL     1      42.477 -17.146   2.716  1.00  0.00    -0.039 A 
HETATM    9  C   UNL     1      43.093 -16.619   3.864  1.00  0.00     0.032 A 
HETATM   10  C   UNL     1      44.078 -17.327   4.565  1.00  0.00     0.009 A 
HETATM   11  C   UNL     1      44.514 -18.545   4.039  1.00  0.00     0.023 A 
HETATM   12  C   UNL     1      43.921 -19.083   2.893  1.00  0.00     0.002 A 
HETATM   13  C   UNL     1      42.897 -18.396   2.245  1.00  0.00     0.009 A 
BRANCH  10  14
HETATM   14  N   UNL     1      44.653 -16.706   5.684  1.00  0.00    -0.289 NA
HETATM   15  H   UNL     1      45.643 -16.950   5.705  1.00  0.00     0.128 HD
BRANCH  14  16
HETATM   16  C   UNL     1      44.046 -16.910   7.010  1.00  0.00     0.052 C 
HETATM   17  C   UNL     1      43.179 -18.170   7.026  1.00  0.00     0.026 C 
HETATM   18  C   UNL     1      43.177 -15.691   7.330  1.00  0.00     0.026 C 
ENDBRANCH  14  16
ENDBRANCH  10  14
ENDBRANCH   7   8
ENDBRANCH   1   7
BRANCH   3  19
HETATM   19  C   UNL     1      39.703 -12.374   4.418  1.00  0.00     0.152 C 
BRANCH  19  20
HETATM   20  C   UNL     1      39.530 -12.056   5.919  1.00  0.00     0.255 C 
BRANCH  20  21
HETATM   21  N   UNL     1      40.797 -11.604   6.595  1.00  0.00    -0.065 N 
HETATM   22  H   UNL     1      40.683 -11.921   7.578  1.00  0.00     0.280 HD
HETATM   23  C   UNL     1      42.060 -12.238   6.063  1.00  0.00     0.274 C 
HETATM   24  C   UNL     1      43.289 -11.617   6.638  1.00  0.00    -0.019 A 
HETATM   25  C   UNL     1      43.253 -10.438   7.356  1.00  0.00    -0.008 A 
HETATM   26  C   UNL     1      44.628 -12.105   6.522  1.00  0.00     0.017 A 
HETATM   27  S   UNL     1      44.784  -9.936   7.894  1.00  0.00    -0.106 SA
HETATM   28  C   UNL     1      42.007  -9.674   7.665  1.00  0.00     0.074 C 
HETATM   29  C   UNL     1      45.537 -11.285   7.157  1.00  0.00     0.051 A 
HETATM   30  C   UNL     1      40.892 -10.087   6.691  1.00  0.00     0.240 C 
ENDBRANCH  20  21
ENDBRANCH  19  20
ENDBRANCH   3  19
TORSDOF 7
ENDMDL
MODEL 3
REMARK VINA RESULT:      -7.7      1.947      2.470
REMARK  7 active torsions:
REMARK  status: ('A' for Active; 'I' for Inactive)
REMARK    1  A    between atoms: C_2  and  N_3 
REMARK    2  A    between atoms: N_3  and  C_4 
REMARK    3  A    between atoms: C_6  and  C_7 
REMARK    4  A    between atoms: C_7  and  N_8 
REMARK       I    between atoms: N_8  and  C_9 
REMARK       I    between atoms: C_9  and  N_10 
REMARK    5  A    between atoms: N_10  and  C_11 
REMARK    6  A    between atoms: C_11  and  C_12 
REMARK    7  A    between atoms: C_12  and  N_13 
ROOT
HETATM    1  N   UNL     1      43.998 -11.620   5.251  1.00  0.00    -0.339 N 
HETATM    2  C   UNL     1      44.605 -11.622   6.467  1.00  0.00     0.316 C 
HETATM    3  N   UNL     1      45.769 -10.905   6.472  1.00  0.00    -0.342 N 
HETATM    4  O   UNL     1      44.201 -12.221   7.455  1.00  0.00    -0.248 OA
HETATM    5  H   UNL     1      44.533 -11.357   4.438  1.00  0.00     0.164 HD
HETATM    6  H   UNL     1      45.885 -10.304   5.666  1.00  0.00     0.164 HD
ENDROOT
BRANCH   1   7
HETATM    7  C   UNL     1      42.765 -12.342   5.005  1.00  0.00     0.162 C 
BRANCH   7   8
HETATM    8  C   UNL     1      42.968 -13.537   4.110  1.00  0.00    -0.039 A 
HETATM    9  C   UNL     1      42.801 -14.836   4.620  1.00  0.00     0.032 A 
HETATM   10  C   UNL     1      42.870 -15.969   3.796  1.00  0.00     0.009 A 
HETATM   11  C   UNL     1      43.209 -15.787   2.454  1.00  0.00     0.023 A 
HETATM   12  C   UNL     1      43.389 -14.505   1.928  1.00  0.00     0.002 A 
HETATM   13  C   UNL     1      43.253 -13.385   2.747  1.00  0.00     0.009 A 
BRANCH  10  14
HETATM   14  N   UNL     1      42.716 -17.223   4.404  1.00  0.00    -0.289 NA
HETATM   15  H   UNL     1      41.973 -17.149   5.098  1.00  0.00     0.128 HD
BRANCH  14  16
HETATM   16  C   UNL     1      43.894 -17.891   4.983  1.00  0.00     0.052 C 
HETATM   17  C   UNL     1      44.433 -18.965   4.035  1.00  0.00     0.026 C 
HETATM   18  C   UNL     1      43.473 -18.544   6.302  1.00  0.00     0.026 C 
ENDBRANCH  14  16
ENDBRANCH  10  14
ENDBRANCH   7   8
ENDBRANCH   1   7
BRANCH   3  19
HETATM   19  C   UNL     1      46.492 -10.476   7.668  1.00  0.00     0.152 C 
BRANCH  19  20
HETATM   20  C   UNL     1      45.956  -9.285   8.493  1.00  0.00     0.255 C 
BRANCH  20  21
HETATM   21  N   UNL     1      44.607  -9.532   9.113  1.00  0.00    -0.065 N 
HETATM   22  H   UNL     1      44.331 -10.465   8.748  1.00  0.00     0.280 HD
HETATM   23  C   UNL     1      44.609  -9.624  10.620  1.00  0.00     0.274 C 
HETATM   24  C   UNL     1      43.229  -9.682  11.185  1.00  0.00    -0.019 A 
HETATM   25  C   UNL     1      42.109  -9.412  10.423  1.00  0.00    -0.008 A 
HETATM   26  C   UNL     1      42.869  -9.985  12.535  1.00  0.00     0.017 A 
HETATM   27  S   UNL     1      40.660  -9.536  11.300  1.00  0.00    -0.106 SA
HETATM   28  C   UNL     1      42.137  -9.069   8.969  1.00  0.00     0.074 C 
HETATM   29  C   UNL     1      41.505  -9.938  12.732  1.00  0.00     0.051 A 
HETATM   30  C   UNL     1      43.543  -8.582   8.581  1.00  0.00     0.240 C 
ENDBRANCH  20  21
ENDBRANCH  19  20
ENDBRANCH   3  19
TORSDOF 7
ENDMDL
MODEL 4
REMARK VINA RESULT:      -7.7      1.638      1.824
REMARK  7 active torsions:
REMARK  status: ('A' for Active; 'I' for Inactive)
REMARK    1  A    between atoms: C_2  and  N_3 
REMARK    2  A    between atoms: N_3  and  C_4 
REMARK    3  A    between atoms: C_6  and  C_7 
REMARK    4  A    between atoms: C_7  and  N_8 
REMARK       I    between atoms: N_8  and  C_9 
REMARK       I    between atoms: C_9  and  N_10 
REMARK    5  A    between atoms: N_10  and  C_11 
REMARK    6  A    between atoms: C_11  and  C_12 
REMARK    7  A    between atoms: C_12  and  N_13 
ROOT
HETATM    1  N   UNL     1      43.531 -14.175   6.263  1.00  0.00    -0.339 N 
HETATM    2  C   UNL     1      43.769 -12.848   6.100  1.00  0.00     0.316 C 
HETATM    3  N   UNL     1      44.871 -12.425   6.790  1.00  0.00    -0.342 N 
HETATM    4  O   UNL     1      43.072 -12.082   5.446  1.00  0.00    -0.248 OA
HETATM    5  H   UNL     1      43.967 -14.659   7.032  1.00  0.00     0.164 HD
HETATM    6  H   UNL     1      45.463 -13.177   7.119  1.00  0.00     0.164 HD
ENDROOT
BRANCH   1   7
HETATM    7  C   UNL     1      42.396 -14.835   5.647  1.00  0.00     0.162 C 
BRANCH   7   8
HETATM    8  C   UNL     1      42.747 -15.470   4.326  1.00  0.00    -0.039 A 
HETATM    9  C   UNL     1      43.379 -16.725   4.294  1.00  0.00     0.032 A 
HETATM   10  C   UNL     1      43.621 -17.400   3.089  1.00  0.00     0.009 A 
HETATM   11  C   UNL     1      43.306 -16.748   1.895  1.00  0.00     0.023 A 
HETATM   12  C   UNL     1      42.686 -15.496   1.904  1.00  0.00     0.002 A 
HETATM   13  C   UNL     1      42.393 -14.867   3.113  1.00  0.00     0.009 A 
BRANCH  10  14
HETATM   14  N   UNL     1      44.280 -18.635   3.157  1.00  0.00    -0.289 NA
HETATM   15  H   UNL     1      44.990 -18.655   2.425  1.00  0.00     0.128 HD
BRANCH  14  16
HETATM   16  C   UNL     1      43.487 -19.877   3.135  1.00  0.00     0.052 C 
HETATM   17  C   UNL     1      43.956 -20.843   4.225  1.00  0.00     0.026 C 
HETATM   18  C   UNL     1      43.666 -20.533   1.764  1.00  0.00     0.026 C 
ENDBRANCH  14  16
ENDBRANCH  10  14
ENDBRANCH   7   8
ENDBRANCH   1   7
BRANCH   3  19
HETATM   19  C   UNL     1      45.552 -11.147   6.593  1.00  0.00     0.152 C 
BRANCH  19  20
HETATM   20  C   UNL     1      46.049 -10.353   7.822  1.00  0.00     0.255 C 
BRANCH  20  21
HETATM   21  N   UNL     1      44.943  -9.721   8.625  1.00  0.00    -0.065 N 
HETATM   22  H   UNL     1      44.084  -9.941   8.084  1.00  0.00     0.280 HD
HETATM   23  C   UNL     1      44.759 -10.292  10.010  1.00  0.00     0.274 C 
HETATM   24  C   UNL     1      43.783  -9.506  10.820  1.00  0.00    -0.019 A 
HETATM   25  C   UNL     1      43.324  -8.266  10.423  1.00  0.00    -0.008 A 
HETATM   26  C   UNL     1      43.218  -9.882  12.079  1.00  0.00     0.017 A 
HETATM   27  S   UNL     1      42.229  -7.576  11.522  1.00  0.00    -0.106 SA
HETATM   28  C   UNL     1      43.715  -7.588   9.150  1.00  0.00     0.074 C 
HETATM   29  C   UNL     1      42.359  -8.922  12.570  1.00  0.00     0.051 A 
HETATM   30  C   UNL     1      45.021  -8.200   8.618  1.00  0.00     0.240 C 
ENDBRANCH  20  21
ENDBRANCH  19  20
ENDBRANCH   3  19
TORSDOF 7
ENDMDL
MODEL 5
REMARK VINA RESULT:      -7.7      3.469     10.744
REMARK  7 active torsions:
REMARK  status: ('A' for Active; 'I' for Inactive)
REMARK    1  A    between atoms: C_2  and  N_3 
REMARK    2  A    between atoms: N_3  and  C_4 
REMARK    3  A    between atoms: C_6  and  C_7 
REMARK    4  A    between atoms: C_7  and  N_8 
REMARK       I    between atoms: N_8  and  C_9 
REMARK       I    between atoms: C_9  and  N_10 
REMARK    5  A    between atoms: N_10  and  C_11 
REMARK    6  A    between atoms: C_11  and  C_12 
REMARK    7  A    between atoms: C_12  and  N_13 
ROOT
HETATM    1  N   UNL     1      43.588 -11.096   7.913  1.00  0.00    -0.339 N 
HETATM    2  C   UNL     1      43.994 -12.195   7.226  1.00  0.00     0.316 C 
HETATM    3  N   UNL     1      43.015 -13.145   7.131  1.00  0.00    -0.342 N 
HETATM    4  O   UNL     1      45.116 -12.362   6.764  1.00  0.00    -0.248 OA
HETATM    5  H   UNL     1      42.769 -11.160   8.498  1.00  0.00     0.164 HD
HETATM    6  H   UNL     1      42.092 -12.808   7.372  1.00  0.00     0.164 HD
ENDROOT
BRANCH   1   7
HETATM    7  C   UNL     1      44.471  -9.973   8.164  1.00  0.00     0.162 C 
BRANCH   7   8
HETATM    8  C   UNL     1      43.855  -8.951   9.083  1.00  0.00    -0.039 A 
HETATM    9  C   UNL     1      43.681  -9.243  10.447  1.00  0.00     0.032 A 
HETATM   10  C   UNL     1      43.217  -8.282  11.355  1.00  0.00     0.009 A 
HETATM   11  C   UNL     1      42.831  -7.036  10.857  1.00  0.00     0.023 A 
HETATM   12  C   UNL     1      42.986  -6.728   9.503  1.00  0.00     0.002 A 
HETATM   13  C   UNL     1      43.511  -7.673   8.623  1.00  0.00     0.009 A 
BRANCH  10  14
HETATM   14  N   UNL     1      43.051  -8.678  12.691  1.00  0.00    -0.289 NA
HETATM   15  H   UNL     1      43.477  -9.598  12.802  1.00  0.00     0.128 HD
BRANCH  14  16
HETATM   16  C   UNL     1      41.703  -8.662  13.284  1.00  0.00     0.052 C 
HETATM   17  C   UNL     1      41.779  -8.550  14.808  1.00  0.00     0.026 C 
HETATM   18  C   UNL     1      41.000  -9.968  12.906  1.00  0.00     0.026 C 
ENDBRANCH  14  16
ENDBRANCH  10  14
ENDBRANCH   7   8
ENDBRANCH   1   7
BRANCH   3  19
HETATM   19  C   UNL     1      43.036 -14.291   6.224  1.00  0.00     0.152 C 
BRANCH  19  20
HETATM   20  C   UNL     1      43.912 -15.516   6.567  1.00  0.00     0.255 C 
BRANCH  20  21
HETATM   21  N   UNL     1      44.005 -16.528   5.456  1.00  0.00    -0.065 N 
HETATM   22  H   UNL     1      44.944 -16.361   5.044  1.00  0.00     0.280 HD
HETATM   23  C   UNL     1      43.963 -17.969   5.906  1.00  0.00     0.274 C 
HETATM   24  C   UNL     1      43.869 -18.917   4.758  1.00  0.00    -0.019 A 
HETATM   25  C   UNL     1      43.588 -18.494   3.474  1.00  0.00    -0.008 A 
HETATM   26  C   UNL     1      44.024 -20.337   4.807  1.00  0.00     0.017 A 
HETATM   27  S   UNL     1      43.528 -19.766   2.350  1.00  0.00    -0.106 SA
HETATM   28  C   UNL     1      43.378 -17.068   3.080  1.00  0.00     0.074 C 
HETATM   29  C   UNL     1      43.861 -20.921   3.568  1.00  0.00     0.051 A 
HETATM   30  C   UNL     1      43.031 -16.234   4.323  1.00  0.00     0.240 C 
ENDBRANCH  20  21
ENDBRANCH  19  20
ENDBRANCH   3  19
TORSDOF 7
ENDMDL
MODEL 6
REMARK VINA RESULT:      -7.5      3.299     10.804
REMARK  7 active torsions:
REMARK  status: ('A' for Active; 'I' for Inactive)
REMARK    1  A    between atoms: C_2  and  N_3 
REMARK    2  A    between atoms: N_3  and  C_4 
REMARK    3  A    between atoms: C_6  and  C_7 
REMARK    4  A    between atoms: C_7  and  N_8 
REMARK       I    between atoms: N_8  and  C_9 
REMARK       I    between atoms: C_9  and  N_10 
REMARK    5  A    between atoms: N_10  and  C_11 
REMARK    6  A    between atoms: C_11  and  C_12 
REMARK    7  A    between atoms: C_12  and  N_13 
ROOT
HETATM    1  N   UNL     1      43.919 -11.054   8.783  1.00  0.00    -0.339 N 
HETATM    2  C   UNL     1      44.258 -11.617   7.594  1.00  0.00     0.316 C 
HETATM    3  N   UNL     1      43.328 -12.520   7.158  1.00  0.00    -0.342 N 
HETATM    4  O   UNL     1      45.291 -11.391   6.976  1.00  0.00    -0.248 OA
HETATM    5  H   UNL     1      43.218 -11.500   9.353  1.00  0.00     0.164 HD
HETATM    6  H   UNL     1      42.444 -12.467   7.648  1.00  0.00     0.164 HD
ENDROOT
BRANCH   1   7
HETATM    7  C   UNL     1      44.773 -10.089   9.449  1.00  0.00     0.162 C 
BRANCH   7   8
HETATM    8  C   UNL     1      43.986  -8.998  10.128  1.00  0.00    -0.039 A 
HETATM    9  C   UNL     1      43.691  -9.091  11.499  1.00  0.00     0.032 A 
HETATM   10  C   UNL     1      43.061  -8.049  12.193  1.00  0.00     0.009 A 
HETATM   11  C   UNL     1      42.637  -6.935  11.464  1.00  0.00     0.023 A 
HETATM   12  C   UNL     1      42.912  -6.826  10.099  1.00  0.00     0.002 A 
HETATM   13  C   UNL     1      43.598  -7.843   9.437  1.00  0.00     0.009 A 
BRANCH  10  14
HETATM   14  N   UNL     1      42.784  -8.247  13.553  1.00  0.00    -0.289 NA
HETATM   15  H   UNL     1      43.183  -9.145  13.828  1.00  0.00     0.128 HD
BRANCH  14  16
HETATM   16  C   UNL     1      41.395  -8.137  14.028  1.00  0.00     0.052 C 
HETATM   17  C   UNL     1      41.353  -7.854  15.531  1.00  0.00     0.026 C 
HETATM   18  C   UNL     1      40.685  -9.463  13.742  1.00  0.00     0.026 C 
ENDBRANCH  14  16
ENDBRANCH  10  14
ENDBRANCH   7   8
ENDBRANCH   1   7
BRANCH   3  19
HETATM   19  C   UNL     1      43.252 -13.068   5.806  1.00  0.00     0.152 C 
BRANCH  19  20
HETATM   20  C   UNL     1      42.055 -13.963   5.415  1.00  0.00     0.255 C 
BRANCH  20  21
HETATM   21  N   UNL     1      42.412 -15.415   5.240  1.00  0.00    -0.065 N 
HETATM   22  H   UNL     1      41.547 -15.921   5.514  1.00  0.00     0.280 HD
HETATM   23  C   UNL     1      42.738 -15.821   3.823  1.00  0.00     0.274 C 
HETATM   24  C   UNL     1      43.263 -17.215   3.741  1.00  0.00    -0.019 A 
HETATM   25  C   UNL     1      43.646 -17.926   4.861  1.00  0.00    -0.008 A 
HETATM   26  C   UNL     1      43.465 -17.985   2.553  1.00  0.00     0.017 A 
HETATM   27  S   UNL     1      44.217 -19.484   4.501  1.00  0.00    -0.106 SA
HETATM   28  C   UNL     1      43.554 -17.412   6.261  1.00  0.00     0.074 C 
HETATM   29  C   UNL     1      43.980 -19.235   2.824  1.00  0.00     0.051 A 
HETATM   30  C   UNL     1      43.461 -15.877   6.243  1.00  0.00     0.240 C 
ENDBRANCH  20  21
ENDBRANCH  19  20
ENDBRANCH   3  19
TORSDOF 7
ENDMDL
MODEL 7
REMARK VINA RESULT:      -7.5      1.409      2.870
REMARK  7 active torsions:
REMARK  status: ('A' for Active; 'I' for Inactive)
REMARK    1  A    between atoms: C_2  and  N_3 
REMARK    2  A    between atoms: N_3  and  C_4 
REMARK    3  A    between atoms: C_6  and  C_7 
REMARK    4  A    between atoms: C_7  and  N_8 
REMARK       I    between atoms: N_8  and  C_9 
REMARK       I    between atoms: C_9  and  N_10 
REMARK    5  A    between atoms: N_10  and  C_11 
REMARK    6  A    between atoms: C_11  and  C_12 
REMARK    7  A    between atoms: C_12  and  N_13 
ROOT
HETATM    1  N   UNL     1      42.013 -14.348   6.876  1.00  0.00    -0.339 N 
HETATM    2  C   UNL     1      43.115 -13.560   6.784  1.00  0.00     0.316 C 
HETATM    3  N   UNL     1      42.813 -12.227   6.847  1.00  0.00    -0.342 N 
HETATM    4  O   UNL     1      44.260 -13.964   6.625  1.00  0.00    -0.248 OA
HETATM    5  H   UNL     1      41.105 -13.941   6.712  1.00  0.00     0.164 HD
HETATM    6  H   UNL     1      41.875 -12.035   7.176  1.00  0.00     0.164 HD
ENDROOT
BRANCH   1   7
HETATM    7  C   UNL     1      42.092 -15.795   6.803  1.00  0.00     0.162 C 
BRANCH   7   8
HETATM    8  C   UNL     1      42.126 -16.297   5.383  1.00  0.00    -0.039 A 
HETATM    9  C   UNL     1      41.155 -15.871   4.461  1.00  0.00     0.032 A 
HETATM   10  C   UNL     1      41.216 -16.224   3.106  1.00  0.00     0.009 A 
HETATM   11  C   UNL     1      42.222 -17.103   2.700  1.00  0.00     0.023 A 
HETATM   12  C   UNL     1      43.192 -17.547   3.602  1.00  0.00     0.002 A 
HETATM   13  C   UNL     1      43.155 -17.134   4.932  1.00  0.00     0.009 A 
BRANCH  10  14
HETATM   14  N   UNL     1      40.185 -15.772   2.270  1.00  0.00    -0.289 NA
HETATM   15  H   UNL     1      39.872 -16.559   1.701  1.00  0.00     0.128 HD
BRANCH  14  16
HETATM   16  C   UNL     1      40.412 -14.587   1.425  1.00  0.00     0.052 C 
HETATM   17  C   UNL     1      39.654 -13.375   1.970  1.00  0.00     0.026 C 
HETATM   18  C   UNL     1      39.914 -14.904   0.013  1.00  0.00     0.026 C 
ENDBRANCH  14  16
ENDBRANCH  10  14
ENDBRANCH   7   8
ENDBRANCH   1   7
BRANCH   3  19
HETATM   19  C   UNL     1      43.777 -11.151   7.068  1.00  0.00     0.152 C 
BRANCH  19  20
HETATM   20  C   UNL     1      44.230 -10.822   8.507  1.00  0.00     0.255 C 
BRANCH  20  21
HETATM   21  N   UNL     1      43.098 -10.476   9.437  1.00  0.00    -0.065 N 
HETATM   22  H   UNL     1      42.445 -11.279   9.346  1.00  0.00     0.280 HD
HETATM   23  C   UNL     1      43.483 -10.375  10.894  1.00  0.00     0.274 C 
HETATM   24  C   UNL     1      42.369  -9.850  11.737  1.00  0.00    -0.019 A 
HETATM   25  C   UNL     1      41.235  -9.283  11.191  1.00  0.00    -0.008 A 
HETATM   26  C   UNL     1      42.315  -9.830  13.166  1.00  0.00     0.017 A 
HETATM   27  S   UNL     1      40.123  -8.755  12.361  1.00  0.00    -0.106 SA
HETATM   28  C   UNL     1      40.974  -9.157   9.725  1.00  0.00     0.074 C 
HETATM   29  C   UNL     1      41.150  -9.260  13.634  1.00  0.00     0.051 A 
HETATM   30  C   UNL     1      42.298  -9.274   8.953  1.00  0.00     0.240 C 
ENDBRANCH  20  21
ENDBRANCH  19  20
ENDBRANCH   3  19
TORSDOF 7
ENDMDL
MODEL 8
REMARK VINA RESULT:      -7.5      2.091      3.068
REMARK  7 active torsions:
REMARK  status: ('A' for Active; 'I' for Inactive)
REMARK    1  A    between atoms: C_2  and  N_3 
REMARK    2  A    between atoms: N_3  and  C_4 
REMARK    3  A    between atoms: C_6  and  C_7 
REMARK    4  A    between atoms: C_7  and  N_8 
REMARK       I    between atoms: N_8  and  C_9 
REMARK       I    between atoms: C_9  and  N_10 
REMARK    5  A    between atoms: N_10  and  C_11 
REMARK    6  A    between atoms: C_11  and  C_12 
REMARK    7  A    between atoms: C_12  and  N_13 
ROOT
HETATM    1  N   UNL     1      40.874 -11.555   6.404  1.00  0.00    -0.339 N 
HETATM    2  C   UNL     1      41.702 -10.550   6.792  1.00  0.00     0.316 C 
HETATM    3  N   UNL     1      41.398 -10.072   8.037  1.00  0.00    -0.342 N 
HETATM    4  O   UNL     1      42.603 -10.077   6.111  1.00  0.00    -0.248 OA
HETATM    5  H   UNL     1      39.998 -11.680   6.887  1.00  0.00     0.164 HD
HETATM    6  H   UNL     1      40.776 -10.671   8.565  1.00  0.00     0.164 HD
ENDROOT
BRANCH   1   7
HETATM    7  C   UNL     1      40.991 -12.192   5.107  1.00  0.00     0.162 C 
BRANCH   7   8
HETATM    8  C   UNL     1      40.806 -13.686   5.181  1.00  0.00    -0.039 A 
HETATM    9  C   UNL     1      41.155 -14.494   4.086  1.00  0.00     0.032 A 
HETATM   10  C   UNL     1      41.105 -15.893   4.154  1.00  0.00     0.009 A 
HETATM   11  C   UNL     1      40.601 -16.478   5.317  1.00  0.00     0.023 A 
HETATM   12  C   UNL     1      40.240 -15.693   6.415  1.00  0.00     0.002 A 
HETATM   13  C   UNL     1      40.357 -14.305   6.354  1.00  0.00     0.009 A 
BRANCH  10  14
HETATM   14  N   UNL     1      41.447 -16.613   3.000  1.00  0.00    -0.289 NA
HETATM   15  H   UNL     1      40.927 -17.490   3.010  1.00  0.00     0.128 HD
BRANCH  14  16
HETATM   16  C   UNL     1      42.868 -16.862   2.701  1.00  0.00     0.052 C 
HETATM   17  C   UNL     1      43.336 -16.007   1.522  1.00  0.00     0.026 C 
HETATM   18  C   UNL     1      43.029 -18.343   2.350  1.00  0.00     0.026 C 
ENDBRANCH  14  16
ENDBRANCH  10  14
ENDBRANCH   7   8
ENDBRANCH   1   7
BRANCH   3  19
HETATM   19  C   UNL     1      42.261  -9.213   8.846  1.00  0.00     0.152 C 
BRANCH  19  20
HETATM   20  C   UNL     1      43.225  -9.852   9.869  1.00  0.00     0.255 C 
BRANCH  20  21
HETATM   21  N   UNL     1      42.841  -9.604  11.304  1.00  0.00    -0.065 N 
HETATM   22  H   UNL     1      43.271 -10.397  11.819  1.00  0.00     0.280 HD
HETATM   23  C   UNL     1      43.397  -8.331  11.897  1.00  0.00     0.274 C 
HETATM   24  C   UNL     1      42.834  -8.045  13.249  1.00  0.00    -0.019 A 
HETATM   25  C   UNL     1      41.746  -8.729  13.755  1.00  0.00    -0.008 A 
HETATM   26  C   UNL     1      43.292  -7.055  14.174  1.00  0.00     0.017 A 
HETATM   27  S   UNL     1      41.295  -8.211  15.308  1.00  0.00    -0.106 SA
HETATM   28  C   UNL     1      41.036  -9.833  13.042  1.00  0.00     0.074 C 
HETATM   29  C   UNL     1      42.542  -7.039  15.331  1.00  0.00     0.051 A 
HETATM   30  C   UNL     1      41.345  -9.761  11.538  1.00  0.00     0.240 C 
ENDBRANCH  20  21
ENDBRANCH  19  20
ENDBRANCH   3  19
TORSDOF 7
ENDMDL
MODEL 9
REMARK VINA RESULT:      -7.5      3.011      4.304
REMARK  7 active torsions:
REMARK  status: ('A' for Active; 'I' for Inactive)
REMARK    1  A    between atoms: C_2  and  N_3 
REMARK    2  A    between atoms: N_3  and  C_4 
REMARK    3  A    between atoms: C_6  and  C_7 
REMARK    4  A    between atoms: C_7  and  N_8 
REMARK       I    between atoms: N_8  and  C_9 
REMARK       I    between atoms: C_9  and  N_10 
REMARK    5  A    between atoms: N_10  and  C_11 
REMARK    6  A    between atoms: C_11  and  C_12 
REMARK    7  A    between atoms: C_12  and  N_13 
ROOT
HETATM    1  N   UNL     1      39.945 -14.680   5.399  1.00  0.00    -0.339 N 
HETATM    2  C   UNL     1      39.892 -13.346   5.647  1.00  0.00     0.316 C 
HETATM    3  N   UNL     1      39.642 -12.612   4.520  1.00  0.00    -0.342 N 
HETATM    4  O   UNL     1      40.080 -12.824   6.740  1.00  0.00    -0.248 OA
HETATM    5  H   UNL     1      40.070 -14.996   4.450  1.00  0.00     0.164 HD
HETATM    6  H   UNL     1      39.311 -13.163   3.738  1.00  0.00     0.164 HD
ENDROOT
BRANCH   1   7
HETATM    7  C   UNL     1      40.228 -15.647   6.442  1.00  0.00     0.162 C 
BRANCH   7   8
HETATM    8  C   UNL     1      41.659 -16.118   6.416  1.00  0.00    -0.039 A 
HETATM    9  C   UNL     1      42.178 -16.731   5.262  1.00  0.00     0.032 A 
HETATM   10  C   UNL     1      43.531 -17.081   5.156  1.00  0.00     0.009 A 
HETATM   11  C   UNL     1      44.349 -16.896   6.273  1.00  0.00     0.023 A 
HETATM   12  C   UNL     1      43.851 -16.297   7.433  1.00  0.00     0.002 A 
HETATM   13  C   UNL     1      42.518 -15.895   7.499  1.00  0.00     0.009 A 
BRANCH  10  14
HETATM   14  N   UNL     1      43.948 -17.712   3.975  1.00  0.00    -0.289 NA
HETATM   15  H   UNL     1      44.812 -17.265   3.667  1.00  0.00     0.128 HD
BRANCH  14  16
HETATM   16  C   UNL     1      43.004 -17.833   2.852  1.00  0.00     0.052 C 
HETATM   17  C   UNL     1      43.158 -19.185   2.152  1.00  0.00     0.026 C 
HETATM   18  C   UNL     1      43.300 -16.709   1.856  1.00  0.00     0.026 C 
ENDBRANCH  14  16
ENDBRANCH  10  14
ENDBRANCH   7   8
ENDBRANCH   1   7
BRANCH   3  19
HETATM   19  C   UNL     1      39.240 -11.207   4.498  1.00  0.00     0.152 C 
BRANCH  19  20
HETATM   20  C   UNL     1      40.323 -10.107   4.537  1.00  0.00     0.255 C 
BRANCH  20  21
HETATM   21  N   UNL     1      41.325 -10.278   5.648  1.00  0.00    -0.065 N 
HETATM   22  H   UNL     1      40.908 -11.015   6.250  1.00  0.00     0.280 HD
HETATM   23  C   UNL     1      42.681 -10.774   5.208  1.00  0.00     0.274 C 
HETATM   24  C   UNL     1      43.680 -10.744   6.315  1.00  0.00    -0.019 A 
HETATM   25  C   UNL     1      43.440 -10.091   7.508  1.00  0.00    -0.008 A 
HETATM   26  C   UNL     1      44.982 -11.336   6.309  1.00  0.00     0.017 A 
HETATM   27  S   UNL     1      44.736 -10.197   8.601  1.00  0.00    -0.106 SA
HETATM   28  C   UNL     1      42.171  -9.377   7.840  1.00  0.00     0.074 C 
HETATM   29  C   UNL     1      45.661 -11.111   7.488  1.00  0.00     0.051 A 
HETATM   30  C   UNL     1      41.407  -9.051   6.546  1.00  0.00     0.240 C 
ENDBRANCH  20  21
ENDBRANCH  19  20
ENDBRANCH   3  19
TORSDOF 7
ENDMDL
MODEL 10
REMARK VINA RESULT:      -7.4      2.118      2.805
REMARK  7 active torsions:
REMARK  status: ('A' for Active; 'I' for Inactive)
REMARK    1  A    between atoms: C_2  and  N_3 
REMARK    2  A    between atoms: N_3  and  C_4 
REMARK    3  A    between atoms: C_6  and  C_7 
REMARK    4  A    between atoms: C_7  and  N_8 
REMARK       I    between atoms: N_8  and  C_9 
REMARK       I    between atoms: C_9  and  N_10 
REMARK    5  A    between atoms: N_10  and  C_11 
REMARK    6  A    between atoms: C_11  and  C_12 
REMARK    7  A    between atoms: C_12  and  N_13 
ROOT
HETATM    1  N   UNL     1      41.979 -12.756   6.442  1.00  0.00    -0.339 N 
HETATM    2  C   UNL     1      42.892 -11.752   6.496  1.00  0.00     0.316 C 
HETATM    3  N   UNL     1      44.061 -12.139   7.091  1.00  0.00    -0.342 N 
HETATM    4  O   UNL     1      42.707 -10.608   6.100  1.00  0.00    -0.248 OA
HETATM    5  H   UNL     1      42.099 -13.559   7.040  1.00  0.00     0.164 HD
HETATM    6  H   UNL     1      44.159 -13.142   7.189  1.00  0.00     0.164 HD
ENDROOT
BRANCH   1   7
HETATM    7  C   UNL     1      40.656 -12.564   5.880  1.00  0.00     0.162 C 
BRANCH   7   8
HETATM    8  C   UNL     1      40.461 -13.328   4.595  1.00  0.00    -0.039 A 
HETATM    9  C   UNL     1      41.100 -14.566   4.408  1.00  0.00     0.032 A 
HETATM   10  C   UNL     1      40.857 -15.359   3.278  1.00  0.00     0.009 A 
HETATM   11  C   UNL     1      40.030 -14.845   2.278  1.00  0.00     0.023 A 
HETATM   12  C   UNL     1      39.392 -13.612   2.439  1.00  0.00     0.002 A 
HETATM   13  C   UNL     1      39.593 -12.865   3.599  1.00  0.00     0.009 A 
BRANCH  10  14
HETATM   14  N   UNL     1      41.562 -16.566   3.169  1.00  0.00    -0.289 NA
HETATM   15  H   UNL     1      41.336 -17.138   3.982  1.00  0.00     0.128 HD
BRANCH  14  16
HETATM   16  C   UNL     1      43.019 -16.531   2.955  1.00  0.00     0.052 C 
HETATM   17  C   UNL     1      43.369 -15.713   1.710  1.00  0.00     0.026 C 
HETATM   18  C   UNL     1      43.510 -17.969   2.771  1.00  0.00     0.026 C 
ENDBRANCH  14  16
ENDBRANCH  10  14
ENDBRANCH   7   8
ENDBRANCH   1   7
BRANCH   3  19
HETATM   19  C   UNL     1      45.320 -11.399   7.041  1.00  0.00     0.152 C 
BRANCH  19  20
HETATM   20  C   UNL     1      45.821 -10.665   8.304  1.00  0.00     0.255 C 
BRANCH  20  21
HETATM   21  N   UNL     1      44.784  -9.781   8.946  1.00  0.00    -0.065 N 
HETATM   22  H   UNL     1      43.887 -10.114   8.541  1.00  0.00     0.280 HD
HETATM   23  C   UNL     1      44.676  -9.917  10.446  1.00  0.00     0.274 C 
HETATM   24  C   UNL     1      43.772  -8.891  11.042  1.00  0.00    -0.019 A 
HETATM   25  C   UNL     1      43.317  -7.802  10.324  1.00  0.00    -0.008 A 
HETATM   26  C   UNL     1      43.279  -8.861  12.384  1.00  0.00     0.017 A 
HETATM   27  S   UNL     1      42.311  -6.778  11.231  1.00  0.00    -0.106 SA
HETATM   28  C   UNL     1      43.642  -7.540   8.890  1.00  0.00     0.074 C 
HETATM   29  C   UNL     1      42.476  -7.765  12.619  1.00  0.00     0.051 A 
HETATM   30  C   UNL     1      44.896  -8.333   8.490  1.00  0.00     0.240 C 
ENDBRANCH  20  21
ENDBRANCH  19  20
ENDBRANCH   3  19
TORSDOF 7
ENDMDL
