MODEL 1
REMARK VINA RESULT:      -7.4      0.000      0.000
REMARK  6 active torsions:
REMARK  status: ('A' for Active; 'I' for Inactive)
REMARK    1  A    between atoms: N_2  and  C_4 
REMARK    2  A    between atoms: N_2  and  C_11 
REMARK    3  A    between atoms: C_4  and  C_5 
REMARK    4  A    between atoms: C_5  and  O_6 
REMARK    5  A    between atoms: C_11  and  C_12 
REMARK    6  A    between atoms: C_13  and  C_14 
ROOT
HETATM    1  C   UNL     1      42.747 -15.011   6.317  1.00  0.00     0.016 A 
HETATM    2  C   UNL     1      43.185 -16.237   5.717  1.00  0.00     0.096 A 
HETATM    3  N   UNL     1      43.573 -17.110   6.654  1.00  0.00    -0.174 NA
HETATM    4  N   UNL     1      43.317 -16.515   7.821  1.00  0.00    -0.288 N 
HETATM    5  H   UNL     1      43.506 -17.033   8.676  1.00  0.00     0.188 HD
HETATM    6  C   UNL     1      42.825 -15.248   7.678  1.00  0.00     0.120 A 
ENDROOT
BRANCH   1   7
HETATM    7  C   UNL     1      42.295 -13.783   5.610  1.00  0.00     0.277 C 
BRANCH   7   8
HETATM    8  N   UNL     1      40.877 -13.845   5.078  1.00  0.00    -0.068 N 
HETATM    9  C   UNL     1      39.884 -13.320   6.089  1.00  0.00     0.270 C 
HETATM   10  H   UNL     1      40.663 -14.836   4.940  1.00  0.00     0.279 HD
BRANCH   8  11
HETATM   11  C   UNL     1      40.780 -13.143   3.725  1.00  0.00     0.272 C 
BRANCH  11  12
HETATM   12  C   UNL     1      39.932 -13.911   2.683  1.00  0.00     0.082 C 
HETATM   13  C   UNL     1      40.514 -13.753   1.273  1.00  0.00     0.039 C 
HETATM   14  C   UNL     1      39.950 -14.946   0.514  1.00  0.00     0.003 C 
HETATM   15  C   UNL     1      39.995 -16.079   1.529  1.00  0.00     0.003 C 
HETATM   16  C   UNL     1      39.881 -15.428   2.913  1.00  0.00     0.039 C 
BRANCH  12  17
HETATM   17  O   UNL     1      38.601 -13.384   2.699  1.00  0.00    -0.388 OA
HETATM   18  H   UNL     1      38.627 -12.450   2.982  1.00  0.00     0.210 HD
ENDBRANCH  12  17
ENDBRANCH  11  12
ENDBRANCH   8  11
ENDBRANCH   7   8
ENDBRANCH   1   7
BRANCH   2  19
HETATM   19  C   UNL     1      43.263 -16.587   4.300  1.00  0.00    -0.003 A 
HETATM   20  C   UNL     1      43.188 -17.922   3.886  1.00  0.00     0.037 A 
HETATM   21  C   UNL     1      43.244 -18.235   2.527  1.00  0.00     0.035 A 
HETATM   22 CL   UNL     1      43.120 -19.879   2.036  1.00  0.00    -0.084 Cl
HETATM   23  C   UNL     1      43.391 -17.233   1.572  1.00  0.00     0.024 A 
HETATM   24  C   UNL     1      43.492 -15.903   1.979  1.00  0.00     0.003 A 
HETATM   25  C   UNL     1      43.428 -15.582   3.337  1.00  0.00     0.014 A 
ENDBRANCH   2  19
TORSDOF 6
ENDMDL
MODEL 2
REMARK VINA RESULT:      -7.2      2.215      4.211
REMARK  6 active torsions:
REMARK  status: ('A' for Active; 'I' for Inactive)
REMARK    1  A    between atoms: N_2  and  C_4 
REMARK    2  A    between atoms: N_2  and  C_11 
REMARK    3  A    between atoms: C_4  and  C_5 
REMARK    4  A    between atoms: C_5  and  O_6 
REMARK    5  A    between atoms: C_11  and  C_12 
REMARK    6  A    between atoms: C_13  and  C_14 
ROOT
HETATM    1  C   UNL     1      41.863 -14.450   2.100  1.00  0.00     0.016 A 
HETATM    2  C   UNL     1      41.620 -15.854   2.257  1.00  0.00     0.096 A 
HETATM    3  N   UNL     1      40.379 -16.166   1.864  1.00  0.00    -0.174 NA
HETATM    4  N   UNL     1      39.862 -15.031   1.388  1.00  0.00    -0.288 N 
HETATM    5  H   UNL     1      38.924 -15.057   0.997  1.00  0.00     0.188 HD
HETATM    6  C   UNL     1      40.708 -13.965   1.512  1.00  0.00     0.120 A 
ENDROOT
BRANCH   1   7
HETATM    7  C   UNL     1      43.098 -13.711   2.477  1.00  0.00     0.277 C 
BRANCH   7   8
HETATM    8  N   UNL     1      43.051 -13.053   3.841  1.00  0.00    -0.068 N 
HETATM    9  C   UNL     1      43.757 -11.718   3.836  1.00  0.00     0.270 C 
HETATM   10  H   UNL     1      43.575 -13.663   4.475  1.00  0.00     0.279 HD
BRANCH   8  11
HETATM   11  C   UNL     1      41.611 -12.966   4.346  1.00  0.00     0.272 C 
BRANCH  11  12
HETATM   12  C   UNL     1      41.398 -13.611   5.736  1.00  0.00     0.082 C 
HETATM   13  C   UNL     1      40.627 -14.932   5.619  1.00  0.00     0.039 C 
HETATM   14  C   UNL     1      40.980 -15.670   6.903  1.00  0.00     0.003 C 
HETATM   15  C   UNL     1      42.451 -15.348   7.117  1.00  0.00     0.003 C 
HETATM   16  C   UNL     1      42.699 -13.985   6.460  1.00  0.00     0.039 C 
BRANCH  12  17
HETATM   17  O   UNL     1      40.647 -12.704   6.550  1.00  0.00    -0.388 OA
HETATM   18  H   UNL     1      40.028 -13.210   7.110  1.00  0.00     0.210 HD
ENDBRANCH  12  17
ENDBRANCH  11  12
ENDBRANCH   8  11
ENDBRANCH   7   8
ENDBRANCH   1   7
BRANCH   2  19
HETATM   19  C   UNL     1      42.513 -16.886   2.779  1.00  0.00    -0.003 A 
HETATM   20  C   UNL     1      42.683 -18.098   2.099  1.00  0.00     0.037 A 
HETATM   21  C   UNL     1      43.556 -19.064   2.603  1.00  0.00     0.035 A 
HETATM   22 CL   UNL     1      43.774 -20.535   1.738  1.00  0.00    -0.084 Cl
HETATM   23  C   UNL     1      44.251 -18.845   3.789  1.00  0.00     0.024 A 
HETATM   24  C   UNL     1      44.068 -17.650   4.484  1.00  0.00     0.003 A 
HETATM   25  C   UNL     1      43.202 -16.675   3.981  1.00  0.00     0.014 A 
ENDBRANCH   2  19
TORSDOF 6
ENDMDL
MODEL 3
REMARK VINA RESULT:      -7.1      3.323      5.079
REMARK  6 active torsions:
REMARK  status: ('A' for Active; 'I' for Inactive)
REMARK    1  A    between atoms: N_2  and  C_4 
REMARK    2  A    between atoms: N_2  and  C_11 
REMARK    3  A    between atoms: C_4  and  C_5 
REMARK    4  A    between atoms: C_5  and  O_6 
REMARK    5  A    between atoms: C_11  and  C_12 
REMARK    6  A    between atoms: C_13  and  C_14 
ROOT
HETATM    1  C   UNL     1      42.684 -15.137   6.834  1.00  0.00     0.016 A 
HETATM    2  C   UNL     1      42.947 -16.337   6.095  1.00  0.00     0.096 A 
HETATM    3  N   UNL     1      43.523 -17.257   6.876  1.00  0.00    -0.174 NA
HETATM    4  N   UNL     1      43.557 -16.716   8.096  1.00  0.00    -0.288 N 
HETATM    5  H   UNL     1      43.928 -17.275   8.860  1.00  0.00     0.188 HD
HETATM    6  C   UNL     1      43.071 -15.439   8.127  1.00  0.00     0.120 A 
ENDROOT
BRANCH   1   7
HETATM    7  C   UNL     1      42.105 -13.872   6.306  1.00  0.00     0.277 C 
BRANCH   7   8
HETATM    8  N   UNL     1      43.126 -12.872   5.801  1.00  0.00    -0.068 N 
HETATM    9  C   UNL     1      43.114 -12.783   4.293  1.00  0.00     0.270 C 
HETATM   10  H   UNL     1      44.044 -13.235   6.068  1.00  0.00     0.279 HD
BRANCH   8  11
HETATM   11  C   UNL     1      42.933 -11.517   6.481  1.00  0.00     0.272 C 
BRANCH  11  12
HETATM   12  C   UNL     1      44.032 -11.175   7.514  1.00  0.00     0.082 C 
HETATM   13  C   UNL     1      45.431 -11.409   6.929  1.00  0.00     0.039 C 
HETATM   14  C   UNL     1      46.334 -10.543   7.796  1.00  0.00     0.003 C 
HETATM   15  C   UNL     1      45.513  -9.285   8.038  1.00  0.00     0.003 C 
HETATM   16  C   UNL     1      44.040  -9.706   7.958  1.00  0.00     0.039 C 
BRANCH  12  17
HETATM   17  O   UNL     1      43.860 -12.016   8.659  1.00  0.00    -0.388 OA
HETATM   18  H   UNL     1      42.927 -12.296   8.717  1.00  0.00     0.210 HD
ENDBRANCH  12  17
ENDBRANCH  11  12
ENDBRANCH   8  11
ENDBRANCH   7   8
ENDBRANCH   1   7
BRANCH   2  19
HETATM   19  C   UNL     1      42.686 -16.620   4.685  1.00  0.00    -0.003 A 
HETATM   20  C   UNL     1      41.508 -16.178   4.070  1.00  0.00     0.037 A 
HETATM   21  C   UNL     1      41.286 -16.440   2.718  1.00  0.00     0.035 A 
HETATM   22 CL   UNL     1      39.847 -15.863   1.973  1.00  0.00    -0.084 Cl
HETATM   23  C   UNL     1      42.218 -17.156   1.970  1.00  0.00     0.024 A 
HETATM   24  C   UNL     1      43.381 -17.621   2.582  1.00  0.00     0.003 A 
HETATM   25  C   UNL     1      43.614 -17.355   3.933  1.00  0.00     0.014 A 
ENDBRANCH   2  19
TORSDOF 6
ENDMDL
MODEL 4
REMARK VINA RESULT:      -6.9      2.814      4.859
REMARK  6 active torsions:
REMARK  status: ('A' for Active; 'I' for Inactive)
REMARK    1  A    between atoms: N_2  and  C_4 
REMARK    2  A    between atoms: N_2  and  C_11 
REMARK    3  A    between atoms: C_4  and  C_5 
REMARK    4  A    between atoms: C_5  and  O_6 
REMARK    5  A    between atoms: C_11  and  C_12 
REMARK    6  A    between atoms: C_13  and  C_14 
ROOT
HETATM    1  C   UNL     1      41.547 -14.490   2.350  1.00  0.00     0.016 A 
HETATM    2  C   UNL     1      41.357 -15.811   2.874  1.00  0.00     0.096 A 
HETATM    3  N   UNL     1      40.054 -16.079   3.018  1.00  0.00    -0.174 NA
HETATM    4  N   UNL     1      39.416 -15.014   2.528  1.00  0.00    -0.288 N 
HETATM    5  H   UNL     1      38.399 -15.031   2.508  1.00  0.00     0.188 HD
HETATM    6  C   UNL     1      40.265 -14.025   2.118  1.00  0.00     0.120 A 
ENDROOT
BRANCH   1   7
HETATM    7  C   UNL     1      42.845 -13.807   2.103  1.00  0.00     0.277 C 
BRANCH   7   8
HETATM    8  N   UNL     1      43.044 -12.524   2.885  1.00  0.00    -0.068 N 
HETATM    9  C   UNL     1      42.213 -11.396   2.318  1.00  0.00     0.270 C 
HETATM   10  H   UNL     1      44.025 -12.259   2.762  1.00  0.00     0.279 HD
BRANCH   8  11
HETATM   11  C   UNL     1      42.796 -12.758   4.374  1.00  0.00     0.272 C 
BRANCH  11  12
HETATM   12  C   UNL     1      43.669 -11.877   5.298  1.00  0.00     0.082 C 
HETATM   13  C   UNL     1      42.839 -10.754   5.935  1.00  0.00     0.039 C 
HETATM   14  C   UNL     1      43.644 -10.365   7.166  1.00  0.00     0.003 C 
HETATM   15  C   UNL     1      44.166 -11.691   7.697  1.00  0.00     0.003 C 
HETATM   16  C   UNL     1      44.279 -12.629   6.489  1.00  0.00     0.039 C 
BRANCH  12  17
HETATM   17  O   UNL     1      44.717 -11.294   4.517  1.00  0.00    -0.388 OA
HETATM   18  H   UNL     1      44.417 -11.199   3.594  1.00  0.00     0.210 HD
ENDBRANCH  12  17
ENDBRANCH  11  12
ENDBRANCH   8  11
ENDBRANCH   7   8
ENDBRANCH   1   7
BRANCH   2  19
HETATM   19  C   UNL     1      42.364 -16.800   3.252  1.00  0.00    -0.003 A 
HETATM   20  C   UNL     1      42.590 -17.933   2.461  1.00  0.00     0.037 A 
HETATM   21  C   UNL     1      43.570 -18.856   2.828  1.00  0.00     0.035 A 
HETATM   22 CL   UNL     1      43.854 -20.226   1.827  1.00  0.00    -0.084 Cl
HETATM   23  C   UNL     1      44.319 -18.675   3.988  1.00  0.00     0.024 A 
HETATM   24  C   UNL     1      44.082 -17.562   4.794  1.00  0.00     0.003 A 
HETATM   25  C   UNL     1      43.109 -16.630   4.428  1.00  0.00     0.014 A 
ENDBRANCH   2  19
TORSDOF 6
ENDMDL
MODEL 5
REMARK VINA RESULT:      -6.9      2.236      3.366
REMARK  6 active torsions:
REMARK  status: ('A' for Active; 'I' for Inactive)
REMARK    1  A    between atoms: N_2  and  C_4 
REMARK    2  A    between atoms: N_2  and  C_11 
REMARK    3  A    between atoms: C_4  and  C_5 
REMARK    4  A    between atoms: C_5  and  O_6 
REMARK    5  A    between atoms: C_11  and  C_12 
REMARK    6  A    between atoms: C_13  and  C_14 
ROOT
HETATM    1  C   UNL     1      42.807 -15.137   2.981  1.00  0.00     0.016 A 
HETATM    2  C   UNL     1      43.174 -16.204   3.865  1.00  0.00     0.096 A 
HETATM    3  N   UNL     1      43.377 -15.743   5.104  1.00  0.00    -0.174 NA
HETATM    4  N   UNL     1      43.070 -14.445   5.055  1.00  0.00    -0.288 N 
HETATM    5  H   UNL     1      43.121 -13.906   5.916  1.00  0.00     0.188 HD
HETATM    6  C   UNL     1      42.727 -14.024   3.801  1.00  0.00     0.120 A 
ENDROOT
BRANCH   1   7
HETATM    7  C   UNL     1      42.554 -15.236   1.518  1.00  0.00     0.277 C 
BRANCH   7   8
HETATM    8  N   UNL     1      41.107 -15.043   1.112  1.00  0.00    -0.068 N 
HETATM    9  C   UNL     1      40.162 -15.577   2.162  1.00  0.00     0.270 C 
HETATM   10  H   UNL     1      40.965 -15.610   0.271  1.00  0.00     0.279 HD
BRANCH   8  11
HETATM   11  C   UNL     1      40.840 -13.583   0.753  1.00  0.00     0.272 C 
BRANCH  11  12
HETATM   12  C   UNL     1      39.864 -13.400  -0.434  1.00  0.00     0.082 C 
HETATM   13  C   UNL     1      40.471 -12.495  -1.513  1.00  0.00     0.039 C 
HETATM   14  C   UNL     1      39.691 -12.858  -2.769  1.00  0.00     0.003 C 
HETATM   15  C   UNL     1      39.514 -14.366  -2.666  1.00  0.00     0.003 C 
HETATM   16  C   UNL     1      39.522 -14.704  -1.170  1.00  0.00     0.039 C 
BRANCH  12  17
HETATM   17  O   UNL     1      38.659 -12.801   0.053  1.00  0.00    -0.388 OA
HETATM   18  H   UNL     1      38.084 -12.574  -0.702  1.00  0.00     0.210 HD
ENDBRANCH  12  17
ENDBRANCH  11  12
ENDBRANCH   8  11
ENDBRANCH   7   8
ENDBRANCH   1   7
BRANCH   2  19
HETATM   19  C   UNL     1      43.353 -17.623   3.563  1.00  0.00    -0.003 A 
HETATM   20  C   UNL     1      43.874 -18.500   4.521  1.00  0.00     0.037 A 
HETATM   21  C   UNL     1      44.020 -19.855   4.221  1.00  0.00     0.035 A 
HETATM   22 CL   UNL     1      44.633 -20.923   5.422  1.00  0.00    -0.084 Cl
HETATM   23  C   UNL     1      43.667 -20.347   2.967  1.00  0.00     0.024 A 
HETATM   24  C   UNL     1      43.171 -19.475   2.000  1.00  0.00     0.003 A 
HETATM   25  C   UNL     1      43.015 -18.119   2.296  1.00  0.00     0.014 A 
ENDBRANCH   2  19
TORSDOF 6
ENDMDL
MODEL 6
REMARK VINA RESULT:      -6.7      2.457      4.636
REMARK  6 active torsions:
REMARK  status: ('A' for Active; 'I' for Inactive)
REMARK    1  A    between atoms: N_2  and  C_4 
REMARK    2  A    between atoms: N_2  and  C_11 
REMARK    3  A    between atoms: C_4  and  C_5 
REMARK    4  A    between atoms: C_5  and  O_6 
REMARK    5  A    between atoms: C_11  and  C_12 
REMARK    6  A    between atoms: C_13  and  C_14 
ROOT
HETATM    1  C   UNL     1      41.211 -14.628   2.848  1.00  0.00     0.016 A 
HETATM    2  C   UNL     1      42.189 -15.525   2.306  1.00  0.00     0.096 A 
HETATM    3  N   UNL     1      42.407 -15.261   1.013  1.00  0.00    -0.174 NA
HETATM    4  N   UNL     1      41.669 -14.182   0.741  1.00  0.00    -0.288 N 
HETATM    5  H   UNL     1      41.721 -13.788  -0.195  1.00  0.00     0.188 HD
HETATM    6  C   UNL     1      40.924 -13.763   1.807  1.00  0.00     0.120 A 
ENDROOT
BRANCH   1   7
HETATM    7  C   UNL     1      40.662 -14.637   4.231  1.00  0.00     0.277 C 
BRANCH   7   8
HETATM    8  N   UNL     1      40.851 -13.341   4.995  1.00  0.00    -0.068 N 
HETATM    9  C   UNL     1      39.530 -12.777   5.461  1.00  0.00     0.270 C 
HETATM   10  H   UNL     1      41.242 -12.668   4.331  1.00  0.00     0.279 HD
BRANCH   8  11
HETATM   11  C   UNL     1      41.856 -13.529   6.131  1.00  0.00     0.272 C 
BRANCH  11  12
HETATM   12  C   UNL     1      42.849 -12.354   6.285  1.00  0.00     0.082 C 
HETATM   13  C   UNL     1      44.142 -12.810   6.974  1.00  0.00     0.039 C 
HETATM   14  C   UNL     1      45.162 -11.761   6.559  1.00  0.00     0.003 C 
HETATM   15  C   UNL     1      44.815 -11.467   5.107  1.00  0.00     0.003 C 
HETATM   16  C   UNL     1      43.316 -11.748   4.953  1.00  0.00     0.039 C 
BRANCH  12  17
HETATM   17  O   UNL     1      42.233 -11.335   7.079  1.00  0.00    -0.388 OA
HETATM   18  H   UNL     1      42.892 -10.646   7.288  1.00  0.00     0.210 HD
ENDBRANCH  12  17
ENDBRANCH  11  12
ENDBRANCH   8  11
ENDBRANCH   7   8
ENDBRANCH   1   7
BRANCH   2  19
HETATM   19  C   UNL     1      42.896 -16.619   2.969  1.00  0.00    -0.003 A 
HETATM   20  C   UNL     1      42.985 -17.882   2.370  1.00  0.00     0.037 A 
HETATM   21  C   UNL     1      43.680 -18.909   3.009  1.00  0.00     0.035 A 
HETATM   22 CL   UNL     1      43.805 -20.445   2.244  1.00  0.00    -0.084 Cl
HETATM   23  C   UNL     1      44.276 -18.700   4.251  1.00  0.00     0.024 A 
HETATM   24  C   UNL     1      44.170 -17.452   4.864  1.00  0.00     0.003 A 
HETATM   25  C   UNL     1      43.482 -16.417   4.226  1.00  0.00     0.014 A 
ENDBRANCH   2  19
TORSDOF 6
ENDMDL
MODEL 7
REMARK VINA RESULT:      -6.7      1.929      2.446
REMARK  6 active torsions:
REMARK  status: ('A' for Active; 'I' for Inactive)
REMARK    1  A    between atoms: N_2  and  C_4 
REMARK    2  A    between atoms: N_2  and  C_11 
REMARK    3  A    between atoms: C_4  and  C_5 
REMARK    4  A    between atoms: C_5  and  O_6 
REMARK    5  A    between atoms: C_11  and  C_12 
REMARK    6  A    between atoms: C_13  and  C_14 
ROOT
HETATM    1  C   UNL     1      41.776 -14.483   5.021  1.00  0.00     0.016 A 
HETATM    2  C   UNL     1      41.599 -15.904   4.968  1.00  0.00     0.096 A 
HETATM    3  N   UNL     1      40.555 -16.279   5.716  1.00  0.00    -0.174 NA
HETATM    4  N   UNL     1      40.017 -15.144   6.169  1.00  0.00    -0.288 N 
HETATM    5  H   UNL     1      39.176 -15.204   6.736  1.00  0.00     0.188 HD
HETATM    6  C   UNL     1      40.716 -14.033   5.788  1.00  0.00     0.120 A 
ENDROOT
BRANCH   1   7
HETATM    7  C   UNL     1      42.857 -13.693   4.371  1.00  0.00     0.277 C 
BRANCH   7   8
HETATM    8  N   UNL     1      42.380 -12.724   3.308  1.00  0.00    -0.068 N 
HETATM    9  C   UNL     1      43.203 -11.457   3.306  1.00  0.00     0.270 C 
HETATM   10  H   UNL     1      41.427 -12.456   3.567  1.00  0.00     0.279 HD
BRANCH   8  11
HETATM   11  C   UNL     1      42.328 -13.406   1.942  1.00  0.00     0.272 C 
BRANCH  11  12
HETATM   12  C   UNL     1      40.919 -13.421   1.305  1.00  0.00     0.082 C 
HETATM   13  C   UNL     1      40.873 -12.545   0.046  1.00  0.00     0.039 C 
HETATM   14  C   UNL     1      39.678 -13.085  -0.726  1.00  0.00     0.003 C 
HETATM   15  C   UNL     1      39.759 -14.590  -0.519  1.00  0.00     0.003 C 
HETATM   16  C   UNL     1      40.462 -14.806   0.827  1.00  0.00     0.039 C 
BRANCH  12  17
HETATM   17  O   UNL     1      39.981 -12.914   2.259  1.00  0.00    -0.388 OA
HETATM   18  H   UNL     1      39.378 -13.632   2.531  1.00  0.00     0.210 HD
ENDBRANCH  12  17
ENDBRANCH  11  12
ENDBRANCH   8  11
ENDBRANCH   7   8
ENDBRANCH   1   7
BRANCH   2  19
HETATM   19  C   UNL     1      42.394 -16.900   4.253  1.00  0.00    -0.003 A 
HETATM   20  C   UNL     1      43.082 -17.902   4.947  1.00  0.00     0.037 A 
HETATM   21  C   UNL     1      43.820 -18.857   4.246  1.00  0.00     0.035 A 
HETATM   22 CL   UNL     1      44.633 -20.099   5.115  1.00  0.00    -0.084 Cl
HETATM   23  C   UNL     1      43.897 -18.816   2.856  1.00  0.00     0.024 A 
HETATM   24  C   UNL     1      43.235 -17.806   2.159  1.00  0.00     0.003 A 
HETATM   25  C   UNL     1      42.488 -16.852   2.854  1.00  0.00     0.014 A 
ENDBRANCH   2  19
TORSDOF 6
ENDMDL
MODEL 8
REMARK VINA RESULT:      -6.7      2.790      4.872
REMARK  6 active torsions:
REMARK  status: ('A' for Active; 'I' for Inactive)
REMARK    1  A    between atoms: N_2  and  C_4 
REMARK    2  A    between atoms: N_2  and  C_11 
REMARK    3  A    between atoms: C_4  and  C_5 
REMARK    4  A    between atoms: C_5  and  O_6 
REMARK    5  A    between atoms: C_11  and  C_12 
REMARK    6  A    between atoms: C_13  and  C_14 
ROOT
HETATM    1  C   UNL     1      41.714 -14.408   1.866  1.00  0.00     0.016 A 
HETATM    2  C   UNL     1      41.486 -15.781   2.208  1.00  0.00     0.096 A 
HETATM    3  N   UNL     1      40.281 -16.180   1.783  1.00  0.00    -0.174 NA
HETATM    4  N   UNL     1      39.778 -15.140   1.115  1.00  0.00    -0.288 N 
HETATM    5  H   UNL     1      38.870 -15.248   0.671  1.00  0.00     0.188 HD
HETATM    6  C   UNL     1      40.595 -14.044   1.139  1.00  0.00     0.120 A 
ENDROOT
BRANCH   1   7
HETATM    7  C   UNL     1      42.907 -13.589   2.213  1.00  0.00     0.277 C 
BRANCH   7   8
HETATM    8  N   UNL     1      42.644 -12.478   3.209  1.00  0.00    -0.068 N 
HETATM    9  C   UNL     1      42.271 -11.189   2.514  1.00  0.00     0.270 C 
HETATM   10  H   UNL     1      43.529 -12.307   3.693  1.00  0.00     0.279 HD
BRANCH   8  11
HETATM   11  C   UNL     1      41.611 -12.919   4.246  1.00  0.00     0.272 C 
BRANCH  11  12
HETATM   12  C   UNL     1      42.088 -12.757   5.708  1.00  0.00     0.082 C 
HETATM   13  C   UNL     1      43.532 -13.247   5.876  1.00  0.00     0.039 C 
HETATM   14  C   UNL     1      44.009 -12.538   7.135  1.00  0.00     0.003 C 
HETATM   15  C   UNL     1      43.396 -11.149   7.028  1.00  0.00     0.003 C 
HETATM   16  C   UNL     1      42.114 -11.303   6.202  1.00  0.00     0.039 C 
BRANCH  12  17
HETATM   17  O   UNL     1      41.232 -13.530   6.556  1.00  0.00    -0.388 OA
HETATM   18  H   UNL     1      40.844 -12.950   7.238  1.00  0.00     0.210 HD
ENDBRANCH  12  17
ENDBRANCH  11  12
ENDBRANCH   8  11
ENDBRANCH   7   8
ENDBRANCH   1   7
BRANCH   2  19
HETATM   19  C   UNL     1      42.359 -16.703   2.932  1.00  0.00    -0.003 A 
HETATM   20  C   UNL     1      42.580 -16.550   4.306  1.00  0.00     0.037 A 
HETATM   21  C   UNL     1      43.402 -17.452   4.985  1.00  0.00     0.035 A 
HETATM   22 CL   UNL     1      43.638 -17.267   6.678  1.00  0.00    -0.084 Cl
HETATM   23  C   UNL     1      44.023 -18.498   4.306  1.00  0.00     0.024 A 
HETATM   24  C   UNL     1      43.827 -18.640   2.933  1.00  0.00     0.003 A 
HETATM   25  C   UNL     1      42.999 -17.746   2.249  1.00  0.00     0.014 A 
ENDBRANCH   2  19
TORSDOF 6
ENDMDL
MODEL 9
REMARK VINA RESULT:      -6.7      2.789      4.971
REMARK  6 active torsions:
REMARK  status: ('A' for Active; 'I' for Inactive)
REMARK    1  A    between atoms: N_2  and  C_4 
REMARK    2  A    between atoms: N_2  and  C_11 
REMARK    3  A    between atoms: C_4  and  C_5 
REMARK    4  A    between atoms: C_5  and  O_6 
REMARK    5  A    between atoms: C_11  and  C_12 
REMARK    6  A    between atoms: C_13  and  C_14 
ROOT
HETATM    1  C   UNL     1      41.968 -11.515   4.675  1.00  0.00     0.016 A 
HETATM    2  C   UNL     1      42.075 -11.865   3.290  1.00  0.00     0.096 A 
HETATM    3  N   UNL     1      42.048 -10.769   2.522  1.00  0.00    -0.174 NA
HETATM    4  N   UNL     1      42.013  -9.741   3.372  1.00  0.00    -0.288 N 
HETATM    5  H   UNL     1      42.026  -8.800   2.987  1.00  0.00     0.188 HD
HETATM    6  C   UNL     1      41.956 -10.131   4.680  1.00  0.00     0.120 A 
ENDROOT
BRANCH   1   7
HETATM    7  C   UNL     1      41.906 -12.451   5.830  1.00  0.00     0.277 C 
BRANCH   7   8
HETATM    8  N   UNL     1      43.180 -13.233   6.080  1.00  0.00    -0.068 N 
HETATM    9  C   UNL     1      44.355 -12.314   6.319  1.00  0.00     0.270 C 
HETATM   10  H   UNL     1      43.378 -13.747   5.217  1.00  0.00     0.279 HD
BRANCH   8  11
HETATM   11  C   UNL     1      42.976 -14.248   7.204  1.00  0.00     0.272 C 
BRANCH  11  12
HETATM   12  C   UNL     1      43.030 -15.720   6.732  1.00  0.00     0.082 C 
HETATM   13  C   UNL     1      42.304 -15.898   5.392  1.00  0.00     0.039 C 
HETATM   14  C   UNL     1      42.901 -17.177   4.825  1.00  0.00     0.003 C 
HETATM   15  C   UNL     1      44.374 -17.090   5.197  1.00  0.00     0.003 C 
HETATM   16  C   UNL     1      44.450 -16.243   6.473  1.00  0.00     0.039 C 
BRANCH  12  17
HETATM   17  O   UNL     1      42.395 -16.540   7.718  1.00  0.00    -0.388 OA
HETATM   18  H   UNL     1      41.516 -16.170   7.928  1.00  0.00     0.210 HD
ENDBRANCH  12  17
ENDBRANCH  11  12
ENDBRANCH   8  11
ENDBRANCH   7   8
ENDBRANCH   1   7
BRANCH   2  19
HETATM   19  C   UNL     1      42.182 -13.191   2.685  1.00  0.00    -0.003 A 
HETATM   20  C   UNL     1      41.035 -13.923   2.355  1.00  0.00     0.037 A 
HETATM   21  C   UNL     1      41.157 -15.180   1.760  1.00  0.00     0.035 A 
HETATM   22 CL   UNL     1      39.737 -16.051   1.334  1.00  0.00    -0.084 Cl
HETATM   23  C   UNL     1      42.412 -15.728   1.506  1.00  0.00     0.024 A 
HETATM   24  C   UNL     1      43.558 -15.015   1.855  1.00  0.00     0.003 A 
HETATM   25  C   UNL     1      43.444 -13.753   2.443  1.00  0.00     0.014 A 
ENDBRANCH   2  19
TORSDOF 6
ENDMDL
MODEL 10
REMARK VINA RESULT:      -6.6      1.940      3.268
REMARK  6 active torsions:
REMARK  status: ('A' for Active; 'I' for Inactive)
REMARK    1  A    between atoms: N_2  and  C_4 
REMARK    2  A    between atoms: N_2  and  C_11 
REMARK    3  A    between atoms: C_4  and  C_5 
REMARK    4  A    between atoms: C_5  and  O_6 
REMARK    5  A    between atoms: C_11  and  C_12 
REMARK    6  A    between atoms: C_13  and  C_14 
ROOT
HETATM    1  C   UNL     1      41.047 -13.695   3.880  1.00  0.00     0.016 A 
HETATM    2  C   UNL     1      41.315 -14.795   4.758  1.00  0.00     0.096 A 
HETATM    3  N   UNL     1      40.510 -14.756   5.826  1.00  0.00    -0.174 NA
HETATM    4  N   UNL     1      39.690 -13.725   5.614  1.00  0.00    -0.288 N 
HETATM    5  H   UNL     1      38.963 -13.540   6.300  1.00  0.00     0.188 HD
HETATM    6  C   UNL     1      39.972 -13.046   4.462  1.00  0.00     0.120 A 
ENDROOT
BRANCH   1   7
HETATM    7  C   UNL     1      41.767 -13.361   2.622  1.00  0.00     0.277 C 
BRANCH   7   8
HETATM    8  N   UNL     1      41.191 -12.186   1.856  1.00  0.00    -0.068 N 
HETATM    9  C   UNL     1      41.924 -10.905   2.177  1.00  0.00     0.270 C 
HETATM   10  H   UNL     1      40.230 -12.068   2.187  1.00  0.00     0.279 HD
BRANCH   8  11
HETATM   11  C   UNL     1      41.146 -12.491   0.360  1.00  0.00     0.272 C 
BRANCH  11  12
HETATM   12  C   UNL     1      39.799 -13.085  -0.115  1.00  0.00     0.082 C 
HETATM   13  C   UNL     1      39.297 -12.374  -1.379  1.00  0.00     0.039 C 
HETATM   14  C   UNL     1      38.338 -13.378  -2.001  1.00  0.00     0.003 C 
HETATM   15  C   UNL     1      39.016 -14.721  -1.773  1.00  0.00     0.003 C 
HETATM   16  C   UNL     1      39.872 -14.567  -0.510  1.00  0.00     0.039 C 
BRANCH  12  17
HETATM   17  O   UNL     1      38.833 -12.919   0.927  1.00  0.00    -0.388 OA
HETATM   18  H   UNL     1      37.948 -13.149   0.586  1.00  0.00     0.210 HD
ENDBRANCH  12  17
ENDBRANCH  11  12
ENDBRANCH   8  11
ENDBRANCH   7   8
ENDBRANCH   1   7
BRANCH   2  19
HETATM   19  C   UNL     1      42.313 -15.855   4.621  1.00  0.00    -0.003 A 
HETATM   20  C   UNL     1      42.224 -16.794   3.586  1.00  0.00     0.037 A 
HETATM   21  C   UNL     1      43.197 -17.786   3.459  1.00  0.00     0.035 A 
HETATM   22 CL   UNL     1      43.088 -18.912   2.163  1.00  0.00    -0.084 Cl
HETATM   23  C   UNL     1      44.253 -17.867   4.364  1.00  0.00     0.024 A 
HETATM   24  C   UNL     1      44.333 -16.951   5.412  1.00  0.00     0.003 A 
HETATM   25  C   UNL     1      43.367 -15.950   5.540  1.00  0.00     0.014 A 
ENDBRANCH   2  19
TORSDOF 6
ENDMDL
