MODEL 1
REMARK VINA RESULT:      -8.9      0.000      0.000
REMARK  7 active torsions:
REMARK  status: ('A' for Active; 'I' for Inactive)
REMARK    1  A    between atoms: C_2  and  N_3 
REMARK    2  A    between atoms: C_11  and  C_12 
REMARK    3  A    between atoms: C_14  and  O_15 
REMARK    4  A    between atoms: C_17  and  O_18 
REMARK    5  A    between atoms: O_18  and  C_19 
REMARK    6  A    between atoms: C_19  and  C_20 
REMARK    7  A    between atoms: C_31  and  O_32 
ROOT
HETATM    1  N   UNL     1      41.900  -7.015  10.646  1.00  0.00    -0.067 N 
HETATM    2  H   UNL     1      42.098  -6.102  11.074  1.00  0.00     0.280 HD
HETATM    3  C   UNL     1      42.197  -6.843   9.154  1.00  0.00     0.281 C 
HETATM    4  C   UNL     1      41.586  -7.950   8.366  1.00  0.00     0.018 A 
HETATM    5  C   UNL     1      40.552  -8.760   8.804  1.00  0.00    -0.024 A 
HETATM    6  C   UNL     1      40.215  -9.740   7.817  1.00  0.00     0.057 A 
HETATM    7  C   UNL     1      41.002  -9.622   6.697  1.00  0.00     0.087 A 
HETATM    8  N   UNL     1      40.898 -10.467   5.657  1.00  0.00    -0.357 N 
HETATM    9  C   UNL     1      39.732 -11.334   5.593  1.00  0.00     0.243 C 
HETATM   10  N   UNL     1      38.986 -11.575   6.841  1.00  0.00    -0.235 NA
HETATM   11  C   UNL     1      39.245 -10.802   7.825  1.00  0.00     0.173 C 
HETATM   12  S   UNL     1      42.113  -8.345   6.798  1.00  0.00    -0.074 SA
HETATM   13  C   UNL     1      39.958  -8.601  10.174  1.00  0.00     0.068 C 
HETATM   14  C   UNL     1      40.410  -7.292  10.850  1.00  0.00     0.240 C 
HETATM   15  H   UNL     1      41.359 -10.285   4.770  1.00  0.00     0.162 HD
ENDROOT
BRANCH   9  16
HETATM   16  C   UNL     1      40.151 -12.670   4.998  1.00  0.00    -0.012 A 
HETATM   17  C   UNL     1      39.776 -13.020   3.685  1.00  0.00     0.050 A 
HETATM   18  C   UNL     1      40.215 -14.215   3.107  1.00  0.00     0.102 A 
HETATM   19  C   UNL     1      41.061 -15.056   3.847  1.00  0.00     0.112 A 
HETATM   20  C   UNL     1      41.422 -14.737   5.155  1.00  0.00     0.041 A 
HETATM   21  C   UNL     1      40.971 -13.545   5.725  1.00  0.00     0.014 A 
BRANCH  18  22
HETATM   22  O   UNL     1      39.902 -14.634   1.840  1.00  0.00    -0.353 OA
HETATM   23  C   UNL     1      40.361 -13.837   0.757  1.00  0.00     0.210 C 
ENDBRANCH  18  22
BRANCH  19  24
HETATM   24  O   UNL     1      41.517 -16.220   3.172  1.00  0.00    -0.272 OA
BRANCH  24  25
HETATM   25  C   UNL     1      42.783 -16.409   2.646  1.00  0.00     0.300 C 
HETATM   26  O   UNL     1      43.510 -15.601   2.093  1.00  0.00    -0.259 OA
BRANCH  25  27
HETATM   27  C   UNL     1      43.204 -17.784   2.960  1.00  0.00     0.061 A 
HETATM   28  C   UNL     1      43.889 -18.111   4.135  1.00  0.00     0.050 A 
HETATM   29 CL   UNL     1      44.280 -16.947   5.350  1.00  0.00    -0.083 Cl
HETATM   30  C   UNL     1      44.240 -19.443   4.379  1.00  0.00     0.025 A 
HETATM   31  C   UNL     1      43.900 -20.442   3.463  1.00  0.00     0.002 A 
HETATM   32  C   UNL     1      43.199 -20.117   2.303  1.00  0.00     0.001 A 
HETATM   33  C   UNL     1      42.845 -18.790   2.052  1.00  0.00     0.019 A 
ENDBRANCH  25  27
ENDBRANCH  24  25
ENDBRANCH  19  24
ENDBRANCH   9  16
BRANCH  11  34
HETATM   34  O   UNL     1      38.568 -10.990   8.972  1.00  0.00    -0.344 OA
HETATM   35  H   UNL     1      38.107 -10.152   9.157  1.00  0.00     0.219 HD
ENDBRANCH  11  34
BRANCH   1  36
HETATM   36  C   UNL     1      42.844  -8.010  11.290  1.00  0.00     0.231 C 
HETATM   37  C   UNL     1      42.740  -7.962  12.803  1.00  0.00     0.034 C 
ENDBRANCH   1  36
TORSDOF 7
ENDMDL
MODEL 2
REMARK VINA RESULT:      -8.9      2.566      3.602
REMARK  7 active torsions:
REMARK  status: ('A' for Active; 'I' for Inactive)
REMARK    1  A    between atoms: C_2  and  N_3 
REMARK    2  A    between atoms: C_11  and  C_12 
REMARK    3  A    between atoms: C_14  and  O_15 
REMARK    4  A    between atoms: C_17  and  O_18 
REMARK    5  A    between atoms: O_18  and  C_19 
REMARK    6  A    between atoms: C_19  and  C_20 
REMARK    7  A    between atoms: C_31  and  O_32 
ROOT
HETATM    1  N   UNL     1      41.658  -6.150  12.956  1.00  0.00    -0.067 N 
HETATM    2  H   UNL     1      41.714  -5.611  13.829  1.00  0.00     0.280 HD
HETATM    3  C   UNL     1      42.429  -7.445  13.222  1.00  0.00     0.281 C 
HETATM    4  C   UNL     1      42.761  -8.130  11.942  1.00  0.00     0.018 A 
HETATM    5  C   UNL     1      42.785  -7.522  10.699  1.00  0.00    -0.024 A 
HETATM    6  C   UNL     1      43.118  -8.464   9.673  1.00  0.00     0.057 A 
HETATM    7  C   UNL     1      43.326  -9.721  10.187  1.00  0.00     0.087 A 
HETATM    8  N   UNL     1      43.603 -10.778   9.406  1.00  0.00    -0.357 N 
HETATM    9  C   UNL     1      43.982 -10.526   8.024  1.00  0.00     0.243 C 
HETATM   10  N   UNL     1      43.613  -9.227   7.436  1.00  0.00    -0.235 NA
HETATM   11  C   UNL     1      43.234  -8.314   8.247  1.00  0.00     0.173 C 
HETATM   12  S   UNL     1      43.156  -9.784  11.874  1.00  0.00    -0.074 SA
HETATM   13  C   UNL     1      42.438  -6.071  10.528  1.00  0.00     0.068 C 
HETATM   14  C   UNL     1      42.372  -5.332  11.878  1.00  0.00     0.240 C 
HETATM   15  H   UNL     1      43.915 -11.664   9.792  1.00  0.00     0.162 HD
ENDROOT
BRANCH   9  16
HETATM   16  C   UNL     1      43.422 -11.642   7.155  1.00  0.00    -0.012 A 
HETATM   17  C   UNL     1      42.295 -11.419   6.338  1.00  0.00     0.050 A 
HETATM   18  C   UNL     1      41.816 -12.418   5.486  1.00  0.00     0.102 A 
HETATM   19  C   UNL     1      42.492 -13.647   5.434  1.00  0.00     0.112 A 
HETATM   20  C   UNL     1      43.593 -13.894   6.252  1.00  0.00     0.041 A 
HETATM   21  C   UNL     1      44.058 -12.891   7.105  1.00  0.00     0.014 A 
BRANCH  18  22
HETATM   22  O   UNL     1      40.731 -12.288   4.658  1.00  0.00    -0.353 OA
HETATM   23  C   UNL     1      39.443 -12.325   5.258  1.00  0.00     0.210 C 
ENDBRANCH  18  22
BRANCH  19  24
HETATM   24  O   UNL     1      41.985 -14.590   4.499  1.00  0.00    -0.272 OA
BRANCH  24  25
HETATM   25  C   UNL     1      41.512 -15.856   4.801  1.00  0.00     0.300 C 
HETATM   26  O   UNL     1      40.478 -16.172   5.365  1.00  0.00    -0.259 OA
BRANCH  25  27
HETATM   27  C   UNL     1      42.438 -16.837   4.214  1.00  0.00     0.061 A 
HETATM   28  C   UNL     1      43.351 -17.565   4.985  1.00  0.00     0.050 A 
HETATM   29 CL   UNL     1      43.460 -17.415   6.703  1.00  0.00    -0.083 Cl
HETATM   30  C   UNL     1      44.188 -18.498   4.363  1.00  0.00     0.025 A 
HETATM   31  C   UNL     1      44.107 -18.709   2.985  1.00  0.00     0.002 A 
HETATM   32  C   UNL     1      43.183 -17.997   2.221  1.00  0.00     0.001 A 
HETATM   33  C   UNL     1      42.344 -17.066   2.834  1.00  0.00     0.019 A 
ENDBRANCH  25  27
ENDBRANCH  24  25
ENDBRANCH  19  24
ENDBRANCH   9  16
BRANCH  11  34
HETATM   34  O   UNL     1      42.905  -7.113   7.739  1.00  0.00    -0.344 OA
HETATM   35  H   UNL     1      42.583  -6.579   8.488  1.00  0.00     0.219 HD
ENDBRANCH  11  34
BRANCH   1  36
HETATM   36  C   UNL     1      40.188  -6.419  12.706  1.00  0.00     0.231 C 
HETATM   37  C   UNL     1      39.537  -7.065  13.914  1.00  0.00     0.034 C 
ENDBRANCH   1  36
TORSDOF 7
ENDMDL
MODEL 3
REMARK VINA RESULT:      -8.3      1.806      2.412
REMARK  7 active torsions:
REMARK  status: ('A' for Active; 'I' for Inactive)
REMARK    1  A    between atoms: C_2  and  N_3 
REMARK    2  A    between atoms: C_11  and  C_12 
REMARK    3  A    between atoms: C_14  and  O_15 
REMARK    4  A    between atoms: C_17  and  O_18 
REMARK    5  A    between atoms: O_18  and  C_19 
REMARK    6  A    between atoms: C_19  and  C_20 
REMARK    7  A    between atoms: C_31  and  O_32 
ROOT
HETATM    1  N   UNL     1      39.916  -6.451  11.066  1.00  0.00    -0.067 N 
HETATM    2  H   UNL     1      39.940  -5.554  11.566  1.00  0.00     0.280 HD
HETATM    3  C   UNL     1      41.352  -6.698  10.596  1.00  0.00     0.281 C 
HETATM    4  C   UNL     1      41.385  -7.745   9.537  1.00  0.00     0.018 A 
HETATM    5  C   UNL     1      40.300  -8.131   8.767  1.00  0.00    -0.024 A 
HETATM    6  C   UNL     1      40.662  -9.177   7.859  1.00  0.00     0.057 A 
HETATM    7  C   UNL     1      41.985  -9.524   7.987  1.00  0.00     0.087 A 
HETATM    8  N   UNL     1      42.537 -10.518   7.271  1.00  0.00    -0.357 N 
HETATM    9  C   UNL     1      41.796 -11.032   6.129  1.00  0.00     0.243 C 
HETATM   10  N   UNL     1      40.345 -10.783   6.084  1.00  0.00    -0.235 NA
HETATM   11  C   UNL     1      39.884  -9.911   6.897  1.00  0.00     0.173 C 
HETATM   12  S   UNL     1      42.803  -8.603   9.153  1.00  0.00    -0.074 SA
HETATM   13  C   UNL     1      38.942  -7.521   8.964  1.00  0.00     0.068 C 
HETATM   14  C   UNL     1      38.998  -6.266   9.856  1.00  0.00     0.240 C 
HETATM   15  H   UNL     1      43.542 -10.666   7.244  1.00  0.00     0.162 HD
ENDROOT
BRANCH   9  16
HETATM   16  C   UNL     1      42.048 -12.528   6.020  1.00  0.00    -0.012 A 
HETATM   17  C   UNL     1      41.203 -13.343   5.239  1.00  0.00     0.050 A 
HETATM   18  C   UNL     1      41.468 -14.706   5.078  1.00  0.00     0.102 A 
HETATM   19  C   UNL     1      42.609 -15.252   5.687  1.00  0.00     0.112 A 
HETATM   20  C   UNL     1      43.442 -14.467   6.482  1.00  0.00     0.041 A 
HETATM   21  C   UNL     1      43.163 -13.108   6.642  1.00  0.00     0.014 A 
BRANCH  18  22
HETATM   22  O   UNL     1      40.704 -15.571   4.339  1.00  0.00    -0.353 OA
HETATM   23  C   UNL     1      40.306 -15.146   3.042  1.00  0.00     0.210 C 
ENDBRANCH  18  22
BRANCH  19  24
HETATM   24  O   UNL     1      42.847 -16.629   5.427  1.00  0.00    -0.272 OA
BRANCH  24  25
HETATM   25  C   UNL     1      44.084 -17.209   5.203  1.00  0.00     0.300 C 
HETATM   26  O   UNL     1      45.163 -16.926   5.695  1.00  0.00    -0.259 OA
BRANCH  25  27
HETATM   27  C   UNL     1      43.887 -18.361   4.307  1.00  0.00     0.061 A 
HETATM   28  C   UNL     1      43.542 -18.215   2.960  1.00  0.00     0.050 A 
HETATM   29 CL   UNL     1      43.345 -16.676   2.200  1.00  0.00    -0.083 Cl
HETATM   30  C   UNL     1      43.391 -19.354   2.161  1.00  0.00     0.025 A 
HETATM   31  C   UNL     1      43.595 -20.626   2.701  1.00  0.00     0.002 A 
HETATM   32  C   UNL     1      43.959 -20.768   4.039  1.00  0.00     0.001 A 
HETATM   33  C   UNL     1      44.112 -19.637   4.843  1.00  0.00     0.019 A 
ENDBRANCH  25  27
ENDBRANCH  24  25
ENDBRANCH  19  24
ENDBRANCH   9  16
BRANCH  11  34
HETATM   34  O   UNL     1      38.565  -9.653   6.868  1.00  0.00    -0.344 OA
HETATM   35  H   UNL     1      38.117 -10.495   7.069  1.00  0.00     0.219 HD
ENDBRANCH  11  34
BRANCH   1  36
HETATM   36  C   UNL     1      39.472  -7.496  12.069  1.00  0.00     0.231 C 
HETATM   37  C   UNL     1      38.102  -7.167  12.631  1.00  0.00     0.034 C 
ENDBRANCH   1  36
TORSDOF 7
ENDMDL
MODEL 4
REMARK VINA RESULT:      -8.3      3.530     10.591
REMARK  7 active torsions:
REMARK  status: ('A' for Active; 'I' for Inactive)
REMARK    1  A    between atoms: C_2  and  N_3 
REMARK    2  A    between atoms: C_11  and  C_12 
REMARK    3  A    between atoms: C_14  and  O_15 
REMARK    4  A    between atoms: C_17  and  O_18 
REMARK    5  A    between atoms: O_18  and  C_19 
REMARK    6  A    between atoms: C_19  and  C_20 
REMARK    7  A    between atoms: C_31  and  O_32 
ROOT
HETATM    1  N   UNL     1      42.470 -16.949   2.203  1.00  0.00    -0.067 N 
HETATM    2  H   UNL     1      42.124 -17.698   1.591  1.00  0.00     0.280 HD
HETATM    3  C   UNL     1      41.239 -16.418   2.941  1.00  0.00     0.281 C 
HETATM    4  C   UNL     1      41.526 -15.090   3.552  1.00  0.00     0.018 A 
HETATM    5  C   UNL     1      42.555 -14.246   3.172  1.00  0.00    -0.024 A 
HETATM    6  C   UNL     1      42.570 -13.060   3.975  1.00  0.00     0.057 A 
HETATM    7  C   UNL     1      41.563 -13.069   4.909  1.00  0.00     0.087 A 
HETATM    8  N   UNL     1      41.410 -12.081   5.807  1.00  0.00    -0.357 N 
HETATM    9  C   UNL     1      42.141 -10.841   5.591  1.00  0.00     0.243 C 
HETATM   10  N   UNL     1      43.316 -10.883   4.703  1.00  0.00    -0.235 NA
HETATM   11  C   UNL     1      43.454 -11.925   3.977  1.00  0.00     0.173 C 
HETATM   12  S   UNL     1      40.589 -14.455   4.823  1.00  0.00    -0.074 SA
HETATM   13  C   UNL     1      43.521 -14.627   2.088  1.00  0.00     0.068 C 
HETATM   14  C   UNL     1      43.042 -15.859   1.296  1.00  0.00     0.240 C 
HETATM   15  H   UNL     1      40.579 -12.005   6.385  1.00  0.00     0.162 HD
ENDROOT
BRANCH   9  16
HETATM   16  C   UNL     1      42.557 -10.281   6.942  1.00  0.00    -0.012 A 
HETATM   17  C   UNL     1      41.775  -9.300   7.584  1.00  0.00     0.050 A 
HETATM   18  C   UNL     1      42.113  -8.829   8.856  1.00  0.00     0.102 A 
HETATM   19  C   UNL     1      43.237  -9.370   9.502  1.00  0.00     0.112 A 
HETATM   20  C   UNL     1      44.035 -10.323   8.873  1.00  0.00     0.041 A 
HETATM   21  C   UNL     1      43.692 -10.779   7.599  1.00  0.00     0.014 A 
BRANCH  18  22
HETATM   22  O   UNL     1      41.412  -7.881   9.554  1.00  0.00    -0.353 OA
HETATM   23  C   UNL     1      41.178  -6.636   8.910  1.00  0.00     0.210 C 
ENDBRANCH  18  22
BRANCH  19  24
HETATM   24  O   UNL     1      43.482  -8.889  10.817  1.00  0.00    -0.272 OA
BRANCH  24  25
HETATM   25  C   UNL     1      43.159  -9.544  11.993  1.00  0.00     0.300 C 
HETATM   26  O   UNL     1      43.431 -10.683  12.334  1.00  0.00    -0.259 OA
BRANCH  25  27
HETATM   27  C   UNL     1      42.488  -8.580  12.879  1.00  0.00     0.061 A 
HETATM   28  C   UNL     1      41.101  -8.565  13.062  1.00  0.00     0.050 A 
HETATM   29 CL   UNL     1      40.040  -9.694  12.299  1.00  0.00    -0.083 Cl
HETATM   30  C   UNL     1      40.532  -7.632  13.937  1.00  0.00     0.025 A 
HETATM   31  C   UNL     1      41.342  -6.730  14.630  1.00  0.00     0.002 A 
HETATM   32  C   UNL     1      42.726  -6.760  14.462  1.00  0.00     0.001 A 
HETATM   33  C   UNL     1      43.302  -7.687  13.592  1.00  0.00     0.019 A 
ENDBRANCH  25  27
ENDBRANCH  24  25
ENDBRANCH  19  24
ENDBRANCH   9  16
BRANCH  11  34
HETATM   34  O   UNL     1      44.509 -11.984   3.146  1.00  0.00    -0.344 OA
HETATM   35  H   UNL     1      44.161 -11.825   2.250  1.00  0.00     0.219 HD
ENDBRANCH  11  34
BRANCH   1  36
HETATM   36  C   UNL     1      43.457 -17.590   3.157  1.00  0.00     0.231 C 
HETATM   37  C   UNL     1      43.857 -18.974   2.682  1.00  0.00     0.034 C 
ENDBRANCH   1  36
TORSDOF 7
ENDMDL
MODEL 5
REMARK VINA RESULT:      -8.1      3.659     10.332
REMARK  7 active torsions:
REMARK  status: ('A' for Active; 'I' for Inactive)
REMARK    1  A    between atoms: C_2  and  N_3 
REMARK    2  A    between atoms: C_11  and  C_12 
REMARK    3  A    between atoms: C_14  and  O_15 
REMARK    4  A    between atoms: C_17  and  O_18 
REMARK    5  A    between atoms: O_18  and  C_19 
REMARK    6  A    between atoms: C_19  and  C_20 
REMARK    7  A    between atoms: C_31  and  O_32 
ROOT
HETATM    1  N   UNL     1      42.404 -16.823   2.626  1.00  0.00    -0.067 N 
HETATM    2  H   UNL     1      42.099 -17.653   2.102  1.00  0.00     0.280 HD
HETATM    3  C   UNL     1      41.133 -16.240   3.249  1.00  0.00     0.281 C 
HETATM    4  C   UNL     1      41.363 -14.838   3.696  1.00  0.00     0.018 A 
HETATM    5  C   UNL     1      42.384 -14.018   3.246  1.00  0.00    -0.024 A 
HETATM    6  C   UNL     1      42.338 -12.741   3.892  1.00  0.00     0.057 A 
HETATM    7  C   UNL     1      41.298 -12.662   4.787  1.00  0.00     0.087 A 
HETATM    8  N   UNL     1      41.088 -11.574   5.546  1.00  0.00    -0.357 N 
HETATM    9  C   UNL     1      41.794 -10.350   5.199  1.00  0.00     0.243 C 
HETATM   10  N   UNL     1      43.001 -10.467   4.363  1.00  0.00    -0.235 NA
HETATM   11  C   UNL     1      43.192 -11.588   3.779  1.00  0.00     0.173 C 
HETATM   12  S   UNL     1      40.364 -14.077   4.845  1.00  0.00    -0.074 SA
HETATM   13  C   UNL     1      43.398 -14.503   2.251  1.00  0.00     0.068 C 
HETATM   14  C   UNL     1      42.981 -15.838   1.607  1.00  0.00     0.240 C 
HETATM   15  H   UNL     1      40.234 -11.451   6.082  1.00  0.00     0.162 HD
ENDROOT
BRANCH   9  16
HETATM   16  C   UNL     1      42.146  -9.611   6.481  1.00  0.00    -0.012 A 
HETATM   17  C   UNL     1      42.971 -10.213   7.452  1.00  0.00     0.050 A 
HETATM   18  C   UNL     1      43.355  -9.516   8.601  1.00  0.00     0.102 A 
HETATM   19  C   UNL     1      42.927  -8.188   8.764  1.00  0.00     0.112 A 
HETATM   20  C   UNL     1      42.091  -7.585   7.825  1.00  0.00     0.041 A 
HETATM   21  C   UNL     1      41.707  -8.295   6.686  1.00  0.00     0.014 A 
BRANCH  18  22
HETATM   22  O   UNL     1      44.154 -10.020   9.595  1.00  0.00    -0.353 OA
HETATM   23  C   UNL     1      45.478 -10.393   9.241  1.00  0.00     0.210 C 
ENDBRANCH  18  22
BRANCH  19  24
HETATM   24  O   UNL     1      43.408  -7.523   9.924  1.00  0.00    -0.272 OA
BRANCH  24  25
HETATM   25  C   UNL     1      42.666  -6.699  10.752  1.00  0.00     0.300 C 
HETATM   26  O   UNL     1      42.439  -5.506  10.641  1.00  0.00    -0.259 OA
BRANCH  25  27
HETATM   27  C   UNL     1      42.060  -7.537  11.799  1.00  0.00     0.061 A 
HETATM   28  C   UNL     1      40.718  -7.931  11.765  1.00  0.00     0.050 A 
HETATM   29 CL   UNL     1      39.647  -7.506  10.478  1.00  0.00    -0.083 Cl
HETATM   30  C   UNL     1      40.213  -8.746  12.784  1.00  0.00     0.025 A 
HETATM   31  C   UNL     1      41.044  -9.173  13.823  1.00  0.00     0.002 A 
HETATM   32  C   UNL     1      42.387  -8.796  13.844  1.00  0.00     0.001 A 
HETATM   33  C   UNL     1      42.898  -7.984  12.831  1.00  0.00     0.019 A 
ENDBRANCH  25  27
ENDBRANCH  24  25
ENDBRANCH  19  24
ENDBRANCH   9  16
BRANCH  11  34
HETATM   34  O   UNL     1      44.278 -11.719   2.998  1.00  0.00    -0.344 OA
HETATM   35  H   UNL     1      44.795 -12.457   3.370  1.00  0.00     0.219 HD
ENDBRANCH  11  34
BRANCH   1  36
HETATM   36  C   UNL     1      43.371 -17.308   3.685  1.00  0.00     0.231 C 
HETATM   37  C   UNL     1      43.999 -18.631   3.288  1.00  0.00     0.034 C 
ENDBRANCH   1  36
TORSDOF 7
ENDMDL
MODEL 6
REMARK VINA RESULT:      -8.1      1.979      2.732
REMARK  7 active torsions:
REMARK  status: ('A' for Active; 'I' for Inactive)
REMARK    1  A    between atoms: C_2  and  N_3 
REMARK    2  A    between atoms: C_11  and  C_12 
REMARK    3  A    between atoms: C_14  and  O_15 
REMARK    4  A    between atoms: C_17  and  O_18 
REMARK    5  A    between atoms: O_18  and  C_19 
REMARK    6  A    between atoms: C_19  and  C_20 
REMARK    7  A    between atoms: C_31  and  O_32 
ROOT
HETATM    1  N   UNL     1      41.248  -6.430  12.936  1.00  0.00    -0.067 N 
HETATM    2  H   UNL     1      41.383  -5.598  13.524  1.00  0.00     0.280 HD
HETATM    3  C   UNL     1      41.880  -6.087  11.584  1.00  0.00     0.281 C 
HETATM    4  C   UNL     1      41.414  -7.033  10.532  1.00  0.00     0.018 A 
HETATM    5  C   UNL     1      40.275  -7.815  10.615  1.00  0.00    -0.024 A 
HETATM    6  C   UNL     1      40.126  -8.631   9.448  1.00  0.00     0.057 A 
HETATM    7  C   UNL     1      41.149  -8.426   8.553  1.00  0.00     0.087 A 
HETATM    8  N   UNL     1      41.245  -9.117   7.405  1.00  0.00    -0.357 N 
HETATM    9  C   UNL     1      40.087  -9.881   6.967  1.00  0.00     0.243 C 
HETATM   10  N   UNL     1      39.071 -10.227   7.976  1.00  0.00    -0.235 NA
HETATM   11  C   UNL     1      39.134  -9.611   9.094  1.00  0.00     0.173 C 
HETATM   12  S   UNL     1      42.263  -7.258   9.075  1.00  0.00    -0.074 SA
HETATM   13  C   UNL     1      39.395  -7.793  11.832  1.00  0.00     0.068 C 
HETATM   14  C   UNL     1      39.740  -6.622  12.771  1.00  0.00     0.240 C 
HETATM   15  H   UNL     1      41.900  -8.855   6.675  1.00  0.00     0.162 HD
ENDROOT
BRANCH   9  16
HETATM   16  C   UNL     1      40.571 -11.154   6.291  1.00  0.00    -0.012 A 
HETATM   17  C   UNL     1      41.889 -11.249   5.799  1.00  0.00     0.050 A 
HETATM   18  C   UNL     1      42.363 -12.438   5.238  1.00  0.00     0.102 A 
HETATM   19  C   UNL     1      41.512 -13.555   5.196  1.00  0.00     0.112 A 
HETATM   20  C   UNL     1      40.199 -13.472   5.656  1.00  0.00     0.041 A 
HETATM   21  C   UNL     1      39.734 -12.276   6.206  1.00  0.00     0.014 A 
BRANCH  18  22
HETATM   22  O   UNL     1      43.626 -12.621   4.737  1.00  0.00    -0.353 OA
HETATM   23  C   UNL     1      43.949 -11.955   3.524  1.00  0.00     0.210 C 
ENDBRANCH  18  22
BRANCH  19  24
HETATM   24  O   UNL     1      42.083 -14.745   4.671  1.00  0.00    -0.272 OA
BRANCH  24  25
HETATM   25  C   UNL     1      42.233 -15.941   5.351  1.00  0.00     0.300 C 
HETATM   26  O   UNL     1      41.912 -16.215   6.496  1.00  0.00    -0.259 OA
BRANCH  25  27
HETATM   27  C   UNL     1      42.770 -16.935   4.409  1.00  0.00     0.061 A 
HETATM   28  C   UNL     1      42.248 -17.111   3.123  1.00  0.00     0.050 A 
HETATM   29 CL   UNL     1      40.948 -16.162   2.498  1.00  0.00    -0.083 Cl
HETATM   30  C   UNL     1      42.823 -18.061   2.271  1.00  0.00     0.025 A 
HETATM   31  C   UNL     1      43.916 -18.821   2.696  1.00  0.00     0.002 A 
HETATM   32  C   UNL     1      44.448 -18.629   3.970  1.00  0.00     0.001 A 
HETATM   33  C   UNL     1      43.881 -17.683   4.826  1.00  0.00     0.019 A 
ENDBRANCH  25  27
ENDBRANCH  24  25
ENDBRANCH  19  24
ENDBRANCH   9  16
BRANCH  11  34
HETATM   34  O   UNL     1      38.211  -9.897  10.028  1.00  0.00    -0.344 OA
HETATM   35  H   UNL     1      38.606  -9.656  10.886  1.00  0.00     0.219 HD
ENDBRANCH  11  34
BRANCH   1  36
HETATM   36  C   UNL     1      41.980  -7.567  13.619  1.00  0.00     0.231 C 
HETATM   37  C   UNL     1      43.260  -7.080  14.271  1.00  0.00     0.034 C 
ENDBRANCH   1  36
TORSDOF 7
ENDMDL
MODEL 7
REMARK VINA RESULT:      -8.0      5.572      9.179
REMARK  7 active torsions:
REMARK  status: ('A' for Active; 'I' for Inactive)
REMARK    1  A    between atoms: C_2  and  N_3 
REMARK    2  A    between atoms: C_11  and  C_12 
REMARK    3  A    between atoms: C_14  and  O_15 
REMARK    4  A    between atoms: C_17  and  O_18 
REMARK    5  A    between atoms: O_18  and  C_19 
REMARK    6  A    between atoms: C_19  and  C_20 
REMARK    7  A    between atoms: C_31  and  O_32 
ROOT
HETATM    1  N   UNL     1      33.746  -9.074  -3.249  1.00  0.00    -0.067 N 
HETATM    2  H   UNL     1      33.157  -8.349  -3.678  1.00  0.00     0.280 HD
HETATM    3  C   UNL     1      35.035  -8.362  -2.830  1.00  0.00     0.281 C 
HETATM    4  C   UNL     1      36.117  -9.351  -2.562  1.00  0.00     0.018 A 
HETATM    5  C   UNL     1      36.134 -10.655  -3.026  1.00  0.00    -0.024 A 
HETATM    6  C   UNL     1      37.302 -11.347  -2.570  1.00  0.00     0.057 A 
HETATM    7  C   UNL     1      38.097 -10.540  -1.793  1.00  0.00     0.087 A 
HETATM    8  N   UNL     1      39.223 -10.988  -1.214  1.00  0.00    -0.357 N 
HETATM    9  C   UNL     1      39.762 -12.264  -1.661  1.00  0.00     0.243 C 
HETATM   10  N   UNL     1      38.851 -13.187  -2.359  1.00  0.00    -0.235 NA
HETATM   11  C   UNL     1      37.738 -12.704  -2.763  1.00  0.00     0.173 C 
HETATM   12  S   UNL     1      37.485  -8.967  -1.626  1.00  0.00    -0.074 SA
HETATM   13  C   UNL     1      35.007 -11.210  -3.848  1.00  0.00     0.068 C 
HETATM   14  C   UNL     1      34.052 -10.105  -4.337  1.00  0.00     0.240 C 
HETATM   15  H   UNL     1      39.891 -10.358  -0.780  1.00  0.00     0.162 HD
ENDROOT
BRANCH   9  16
HETATM   16  C   UNL     1      40.376 -12.978  -0.467  1.00  0.00    -0.012 A 
HETATM   17  C   UNL     1      41.113 -12.261   0.497  1.00  0.00     0.050 A 
HETATM   18  C   UNL     1      41.621 -12.899   1.633  1.00  0.00     0.102 A 
HETATM   19  C   UNL     1      41.363 -14.267   1.816  1.00  0.00     0.112 A 
HETATM   20  C   UNL     1      40.657 -14.996   0.862  1.00  0.00     0.041 A 
HETATM   21  C   UNL     1      40.161 -14.351  -0.273  1.00  0.00     0.014 A 
BRANCH  18  22
HETATM   22  O   UNL     1      42.346 -12.282   2.620  1.00  0.00    -0.353 OA
HETATM   23  C   UNL     1      42.094 -10.903   2.851  1.00  0.00     0.210 C 
ENDBRANCH  18  22
BRANCH  19  24
HETATM   24  O   UNL     1      41.857 -14.831   3.023  1.00  0.00    -0.272 OA
BRANCH  24  25
HETATM   25  C   UNL     1      41.344 -15.944   3.667  1.00  0.00     0.300 C 
HETATM   26  O   UNL     1      40.189 -16.185   3.975  1.00  0.00    -0.259 OA
BRANCH  25  27
HETATM   27  C   UNL     1      42.441 -16.908   3.848  1.00  0.00     0.061 A 
HETATM   28  C   UNL     1      43.004 -17.180   5.099  1.00  0.00     0.050 A 
HETATM   29 CL   UNL     1      42.451 -16.444   6.560  1.00  0.00    -0.083 Cl
HETATM   30  C   UNL     1      44.031 -18.125   5.200  1.00  0.00     0.025 A 
HETATM   31  C   UNL     1      44.484 -18.800   4.064  1.00  0.00     0.002 A 
HETATM   32  C   UNL     1      43.907 -18.542   2.821  1.00  0.00     0.001 A 
HETATM   33  C   UNL     1      42.882 -17.601   2.711  1.00  0.00     0.019 A 
ENDBRANCH  25  27
ENDBRANCH  24  25
ENDBRANCH  19  24
ENDBRANCH   9  16
BRANCH  11  34
HETATM   34  O   UNL     1      36.893 -13.520  -3.416  1.00  0.00    -0.344 OA
HETATM   35  H   UNL     1      37.222 -13.579  -4.331  1.00  0.00     0.219 HD
ENDBRANCH  11  34
BRANCH   1  36
HETATM   36  C   UNL     1      32.985  -9.598  -2.048  1.00  0.00     0.231 C 
HETATM   37  C   UNL     1      31.618 -10.117  -2.452  1.00  0.00     0.034 C 
ENDBRANCH   1  36
TORSDOF 7
ENDMDL
MODEL 8
REMARK VINA RESULT:      -8.0      4.767      8.721
REMARK  7 active torsions:
REMARK  status: ('A' for Active; 'I' for Inactive)
REMARK    1  A    between atoms: C_2  and  N_3 
REMARK    2  A    between atoms: C_11  and  C_12 
REMARK    3  A    between atoms: C_14  and  O_15 
REMARK    4  A    between atoms: C_17  and  O_18 
REMARK    5  A    between atoms: O_18  and  C_19 
REMARK    6  A    between atoms: C_19  and  C_20 
REMARK    7  A    between atoms: C_31  and  O_32 
ROOT
HETATM    1  N   UNL     1      38.417  -8.333  -3.115  1.00  0.00    -0.067 N 
HETATM    2  H   UNL     1      38.440  -7.532  -3.758  1.00  0.00     0.280 HD
HETATM    3  C   UNL     1      39.883  -8.667  -2.823  1.00  0.00     0.281 C 
HETATM    4  C   UNL     1      40.003 -10.029  -2.233  1.00  0.00     0.018 A 
HETATM    5  C   UNL     1      39.044 -11.024  -2.328  1.00  0.00    -0.024 A 
HETATM    6  C   UNL     1      39.458 -12.204  -1.631  1.00  0.00     0.057 A 
HETATM    7  C   UNL     1      40.693 -12.043  -1.051  1.00  0.00     0.087 A 
HETATM    8  N   UNL     1      41.264 -13.002  -0.304  1.00  0.00    -0.357 N 
HETATM    9  C   UNL     1      40.696 -14.341  -0.359  1.00  0.00     0.243 C 
HETATM   10  N   UNL     1      39.311 -14.480  -0.839  1.00  0.00    -0.235 NA
HETATM   11  C   UNL     1      38.799 -13.466  -1.426  1.00  0.00     0.173 C 
HETATM   12  S   UNL     1      41.373 -10.518  -1.350  1.00  0.00    -0.074 SA
HETATM   13  C   UNL     1      37.742 -10.792  -3.040  1.00  0.00     0.068 C 
HETATM   14  C   UNL     1      37.761  -9.493  -3.866  1.00  0.00     0.240 C 
HETATM   15  H   UNL     1      42.236 -12.950  -0.014  1.00  0.00     0.162 HD
ENDROOT
BRANCH   9  16
HETATM   16  C   UNL     1      40.811 -14.974   1.020  1.00  0.00    -0.012 A 
HETATM   17  C   UNL     1      42.029 -15.536   1.452  1.00  0.00     0.050 A 
HETATM   18  C   UNL     1      42.162 -16.059   2.742  1.00  0.00     0.102 A 
HETATM   19  C   UNL     1      41.066 -15.991   3.617  1.00  0.00     0.112 A 
HETATM   20  C   UNL     1      39.847 -15.461   3.199  1.00  0.00     0.041 A 
HETATM   21  C   UNL     1      39.724 -14.950   1.905  1.00  0.00     0.014 A 
BRANCH  18  22
HETATM   22  O   UNL     1      43.306 -16.621   3.246  1.00  0.00    -0.353 OA
HETATM   23  C   UNL     1      43.664 -17.911   2.769  1.00  0.00     0.210 C 
ENDBRANCH  18  22
BRANCH  19  24
HETATM   24  O   UNL     1      41.295 -16.484   4.930  1.00  0.00    -0.272 OA
BRANCH  24  25
HETATM   25  C   UNL     1      40.988 -15.825   6.108  1.00  0.00     0.300 C 
HETATM   26  O   UNL     1      40.222 -16.161   6.996  1.00  0.00    -0.259 OA
BRANCH  25  27
HETATM   27  C   UNL     1      41.849 -14.635   6.199  1.00  0.00     0.061 A 
HETATM   28  C   UNL     1      41.360 -13.337   6.016  1.00  0.00     0.050 A 
HETATM   29 CL   UNL     1      39.697 -12.995   5.702  1.00  0.00    -0.083 Cl
HETATM   30  C   UNL     1      42.233 -12.250   6.138  1.00  0.00     0.025 A 
HETATM   31  C   UNL     1      43.579 -12.456   6.449  1.00  0.00     0.002 A 
HETATM   32  C   UNL     1      44.059 -13.749   6.651  1.00  0.00     0.001 A 
HETATM   33  C   UNL     1      43.196 -14.839   6.532  1.00  0.00     0.019 A 
ENDBRANCH  25  27
ENDBRANCH  24  25
ENDBRANCH  19  24
ENDBRANCH   9  16
BRANCH  11  34
HETATM   34  O   UNL     1      37.541 -13.570  -1.888  1.00  0.00    -0.344 OA
HETATM   35  H   UNL     1      36.962 -13.577  -1.104  1.00  0.00     0.219 HD
ENDBRANCH  11  34
BRANCH   1  36
HETATM   36  C   UNL     1      37.694  -7.868  -1.868  1.00  0.00     0.231 C 
HETATM   37  C   UNL     1      36.275  -7.436  -2.188  1.00  0.00     0.034 C 
ENDBRANCH   1  36
TORSDOF 7
ENDMDL
MODEL 9
REMARK VINA RESULT:      -8.0      2.815      4.006
REMARK  7 active torsions:
REMARK  status: ('A' for Active; 'I' for Inactive)
REMARK    1  A    between atoms: C_2  and  N_3 
REMARK    2  A    between atoms: C_11  and  C_12 
REMARK    3  A    between atoms: C_14  and  O_15 
REMARK    4  A    between atoms: C_17  and  O_18 
REMARK    5  A    between atoms: O_18  and  C_19 
REMARK    6  A    between atoms: C_19  and  C_20 
REMARK    7  A    between atoms: C_31  and  O_32 
ROOT
HETATM    1  N   UNL     1      41.328  -5.288  13.055  1.00  0.00    -0.067 N 
HETATM    2  H   UNL     1      41.351  -4.702  13.899  1.00  0.00     0.280 HD
HETATM    3  C   UNL     1      42.260  -6.467  13.348  1.00  0.00     0.281 C 
HETATM    4  C   UNL     1      42.625  -7.172  12.088  1.00  0.00     0.018 A 
HETATM    5  C   UNL     1      42.527  -6.631  10.817  1.00  0.00    -0.024 A 
HETATM    6  C   UNL     1      42.933  -7.578   9.823  1.00  0.00     0.057 A 
HETATM    7  C   UNL     1      43.311  -8.773  10.387  1.00  0.00     0.087 A 
HETATM    8  N   UNL     1      43.685  -9.829   9.644  1.00  0.00    -0.357 N 
HETATM    9  C   UNL     1      43.978  -9.606   8.236  1.00  0.00     0.243 C 
HETATM   10  N   UNL     1      43.433  -8.391   7.605  1.00  0.00    -0.235 NA
HETATM   11  C   UNL     1      42.976  -7.490   8.388  1.00  0.00     0.173 C 
HETATM   12  S   UNL     1      43.214  -8.768  12.080  1.00  0.00    -0.074 SA
HETATM   13  C   UNL     1      42.000  -5.243  10.595  1.00  0.00     0.068 C 
HETATM   14  C   UNL     1      41.896  -4.448  11.910  1.00  0.00     0.240 C 
HETATM   15  H   UNL     1      44.117 -10.650  10.058  1.00  0.00     0.162 HD
ENDROOT
BRANCH   9  16
HETATM   16  C   UNL     1      43.525 -10.824   7.446  1.00  0.00    -0.012 A 
HETATM   17  C   UNL     1      42.406 -10.749   6.592  1.00  0.00     0.050 A 
HETATM   18  C   UNL     1      42.025 -11.844   5.811  1.00  0.00     0.102 A 
HETATM   19  C   UNL     1      42.792 -13.019   5.868  1.00  0.00     0.112 A 
HETATM   20  C   UNL     1      43.887 -13.118   6.725  1.00  0.00     0.041 A 
HETATM   21  C   UNL     1      44.254 -12.021   7.507  1.00  0.00     0.014 A 
BRANCH  18  22
HETATM   22  O   UNL     1      40.955 -11.861   4.954  1.00  0.00    -0.353 OA
HETATM   23  C   UNL     1      40.842 -10.788   4.029  1.00  0.00     0.210 C 
ENDBRANCH  18  22
BRANCH  19  24
HETATM   24  O   UNL     1      42.381 -14.066   5.000  1.00  0.00    -0.272 OA
BRANCH  24  25
HETATM   25  C   UNL     1      42.975 -14.400   3.795  1.00  0.00     0.300 C 
HETATM   26  O   UNL     1      43.307 -13.669   2.877  1.00  0.00    -0.259 OA
BRANCH  25  27
HETATM   27  C   UNL     1      43.268 -15.842   3.819  1.00  0.00     0.061 A 
HETATM   28  C   UNL     1      43.239 -16.635   2.667  1.00  0.00     0.050 A 
HETATM   29 CL   UNL     1      42.895 -16.000   1.098  1.00  0.00    -0.083 Cl
HETATM   30  C   UNL     1      43.549 -17.996   2.760  1.00  0.00     0.025 A 
HETATM   31  C   UNL     1      43.893 -18.559   3.991  1.00  0.00     0.002 A 
HETATM   32  C   UNL     1      43.941 -17.763   5.135  1.00  0.00     0.001 A 
HETATM   33  C   UNL     1      43.634 -16.404   5.051  1.00  0.00     0.019 A 
ENDBRANCH  25  27
ENDBRANCH  24  25
ENDBRANCH  19  24
ENDBRANCH   9  16
BRANCH  11  34
HETATM   34  O   UNL     1      42.485  -6.365   7.840  1.00  0.00    -0.344 OA
HETATM   35  H   UNL     1      42.261  -5.774   8.582  1.00  0.00     0.219 HD
ENDBRANCH  11  34
BRANCH   1  36
HETATM   36  C   UNL     1      39.893  -5.743  12.883  1.00  0.00     0.231 C 
HETATM   37  C   UNL     1      39.432  -6.563  14.073  1.00  0.00     0.034 C 
ENDBRANCH   1  36
TORSDOF 7
ENDMDL
MODEL 10
REMARK VINA RESULT:      -7.9      4.338     10.334
REMARK  7 active torsions:
REMARK  status: ('A' for Active; 'I' for Inactive)
REMARK    1  A    between atoms: C_2  and  N_3 
REMARK    2  A    between atoms: C_11  and  C_12 
REMARK    3  A    between atoms: C_14  and  O_15 
REMARK    4  A    between atoms: C_17  and  O_18 
REMARK    5  A    between atoms: O_18  and  C_19 
REMARK    6  A    between atoms: C_19  and  C_20 
REMARK    7  A    between atoms: C_31  and  O_32 
ROOT
HETATM    1  N   UNL     1      38.907 -12.595  -2.229  1.00  0.00    -0.067 N 
HETATM    2  H   UNL     1      38.682 -12.620  -3.231  1.00  0.00     0.280 HD
HETATM    3  C   UNL     1      39.883 -11.428  -2.056  1.00  0.00     0.281 C 
HETATM    4  C   UNL     1      40.588 -11.523  -0.747  1.00  0.00     0.018 A 
HETATM    5  C   UNL     1      40.705 -12.676   0.010  1.00  0.00    -0.024 A 
HETATM    6  C   UNL     1      41.420 -12.423   1.224  1.00  0.00     0.057 A 
HETATM    7  C   UNL     1      41.802 -11.106   1.321  1.00  0.00     0.087 A 
HETATM    8  N   UNL     1      42.444 -10.624   2.399  1.00  0.00    -0.357 N 
HETATM    9  C   UNL     1      43.006 -11.578   3.344  1.00  0.00     0.243 C 
HETATM   10  N   UNL     1      42.474 -12.952   3.331  1.00  0.00    -0.235 NA
HETATM   11  C   UNL     1      41.760 -13.284   2.325  1.00  0.00     0.173 C 
HETATM   12  S   UNL     1      41.343 -10.181  -0.024  1.00  0.00    -0.074 SA
HETATM   13  C   UNL     1      40.083 -13.970  -0.430  1.00  0.00     0.068 C 
HETATM   14  C   UNL     1      39.609 -13.912  -1.895  1.00  0.00     0.240 C 
HETATM   15  H   UNL     1      42.868  -9.701   2.403  1.00  0.00     0.162 HD
ENDROOT
BRANCH   9  16
HETATM   16  C   UNL     1      42.875 -11.006   4.747  1.00  0.00    -0.012 A 
HETATM   17  C   UNL     1      43.750 -11.416   5.773  1.00  0.00     0.050 A 
HETATM   18  C   UNL     1      43.680 -10.845   7.047  1.00  0.00     0.102 A 
HETATM   19  C   UNL     1      42.738  -9.832   7.287  1.00  0.00     0.112 A 
HETATM   20  C   UNL     1      41.849  -9.431   6.291  1.00  0.00     0.041 A 
HETATM   21  C   UNL     1      41.923 -10.014   5.024  1.00  0.00     0.014 A 
BRANCH  18  22
HETATM   22  O   UNL     1      44.489 -11.180   8.102  1.00  0.00    -0.353 OA
HETATM   23  C   UNL     1      45.868 -10.853   7.997  1.00  0.00     0.210 C 
ENDBRANCH  18  22
BRANCH  19  24
HETATM   24  O   UNL     1      42.769  -9.256   8.585  1.00  0.00    -0.272 OA
BRANCH  24  25
HETATM   25  C   UNL     1      43.557  -8.189   8.980  1.00  0.00     0.300 C 
HETATM   26  O   UNL     1      44.348  -7.536   8.320  1.00  0.00    -0.259 OA
BRANCH  25  27
HETATM   27  C   UNL     1      43.209  -7.859  10.371  1.00  0.00     0.061 A 
HETATM   28  C   UNL     1      43.544  -8.689  11.447  1.00  0.00     0.050 A 
HETATM   29 CL   UNL     1      44.427 -10.162  11.259  1.00  0.00    -0.083 Cl
HETATM   30  C   UNL     1      43.200  -8.303  12.747  1.00  0.00     0.025 A 
HETATM   31  C   UNL     1      42.537  -7.094  12.972  1.00  0.00     0.002 A 
HETATM   32  C   UNL     1      42.223  -6.259  11.901  1.00  0.00     0.001 A 
HETATM   33  C   UNL     1      42.563  -6.636  10.601  1.00  0.00     0.019 A 
ENDBRANCH  25  27
ENDBRANCH  24  25
ENDBRANCH  19  24
ENDBRANCH   9  16
BRANCH  11  34
HETATM   34  O   UNL     1      41.273 -14.537   2.280  1.00  0.00    -0.344 OA
HETATM   35  H   UNL     1      40.738 -14.593   1.467  1.00  0.00     0.219 HD
ENDBRANCH  11  34
BRANCH   1  36
HETATM   36  C   UNL     1      37.605 -12.344  -1.497  1.00  0.00     0.231 C 
HETATM   37  C   UNL     1      36.858 -11.167  -2.097  1.00  0.00     0.034 C 
ENDBRANCH   1  36
TORSDOF 7
ENDMDL
