MODEL 1
REMARK VINA RESULT:      -9.1      0.000      0.000
REMARK  7 active torsions:
REMARK  status: ('A' for Active; 'I' for Inactive)
REMARK    1  A    between atoms: C_2  and  O_3 
REMARK    2  A    between atoms: O_3  and  C_4 
REMARK       I    between atoms: C_4  and  N_5 
REMARK       I    between atoms: N_8  and  C_9 
REMARK    3  A    between atoms: C_9  and  C_10 
REMARK    4  A    between atoms: C_11  and  N_12 
REMARK       I    between atoms: N_12  and  C_13 
REMARK    5  A    between atoms: C_13  and  C_14 
REMARK    6  A    between atoms: N_16  and  C_17 
REMARK    7  A    between atoms: C_18  and  O_19 
ROOT
HETATM    1  C   UNL     1      38.868 -12.125  -1.726  1.00  0.00     0.059 A 
HETATM    2  C   UNL     1      39.864 -13.054  -1.347  1.00  0.00     0.050 A 
HETATM    3  C   UNL     1      39.757 -14.363  -1.825  1.00  0.00     0.030 A 
HETATM    4  C   UNL     1      38.690 -14.742  -2.650  1.00  0.00     0.002 A 
HETATM    5  C   UNL     1      37.695 -13.828  -2.986  1.00  0.00     0.001 A 
HETATM    6  C   UNL     1      37.775 -12.522  -2.513  1.00  0.00     0.019 A 
ENDROOT
BRANCH   2   7
HETATM    7  N   UNL     1      40.856 -12.650  -0.427  1.00  0.00    -0.326 N 
HETATM    8  C   UNL     1      41.233 -13.062   0.815  1.00  0.00     0.228 C 
HETATM    9  O   UNL     1      41.977 -12.323   1.465  1.00  0.00    -0.273 OA
HETATM   10  H   UNL     1      41.384 -11.821  -0.718  1.00  0.00     0.169 HD
BRANCH   8  11
HETATM   11  C   UNL     1      40.838 -14.420   1.351  1.00  0.00     0.105 C 
HETATM   12  C   UNL     1      42.086 -15.281   1.531  1.00  0.00     0.147 C 
HETATM   13  N   UNL     1      41.784 -16.135   2.655  1.00  0.00    -0.315 N 
HETATM   14  C   UNL     1      40.704 -15.645   3.391  1.00  0.00     0.225 C 
HETATM   15  O   UNL     1      40.126 -16.148   4.343  1.00  0.00    -0.273 OA
HETATM   16  C   UNL     1      40.267 -14.346   2.760  1.00  0.00     0.119 C 
BRANCH  13  17
HETATM   17  C   UNL     1      42.684 -17.154   3.073  1.00  0.00     0.071 A 
HETATM   18  C   UNL     1      43.476 -17.042   4.235  1.00  0.00     0.095 A 
HETATM   19  C   UNL     1      44.318 -18.100   4.607  1.00  0.00     0.039 A 
HETATM   20  C   UNL     1      44.398 -19.256   3.829  1.00  0.00     0.009 A 
HETATM   21  C   UNL     1      43.661 -19.362   2.649  1.00  0.00    -0.060 A 
HETATM   22  C   UNL     1      43.745 -20.593   1.796  1.00  0.00     0.048 C 
HETATM   23  C   UNL     1      42.807 -18.311   2.284  1.00  0.00     0.039 A 
BRANCH  18  24
HETATM   24  O   UNL     1      43.517 -15.823   4.865  1.00  0.00    -0.354 OA
HETATM   25  C   UNL     1      43.398 -15.837   6.282  1.00  0.00     0.210 C 
ENDBRANCH  18  24
ENDBRANCH  13  17
ENDBRANCH   8  11
ENDBRANCH   2   7
BRANCH   1  26
HETATM   26  C   UNL     1      38.941 -10.717  -1.261  1.00  0.00     0.256 C 
HETATM   27  N   UNL     1      38.637 -10.410   0.063  1.00  0.00    -0.345 N 
HETATM   28  C   UNL     1      37.829 -11.238   0.968  1.00  0.00     0.146 C 
HETATM   29  C   UNL     1      38.757  -9.017   0.499  1.00  0.00     0.146 C 
HETATM   30  C   UNL     1      38.386 -11.194   2.394  1.00  0.00     0.148 C 
HETATM   31  N   UNL     1      38.611  -9.828   2.867  1.00  0.00    -0.325 N 
HETATM   32  C   UNL     1      38.666  -9.627   4.238  1.00  0.00     0.362 C 
HETATM   33  C   UNL     1      39.290  -8.919   1.936  1.00  0.00     0.148 C 
HETATM   34  O   UNL     1      38.370 -10.483   5.063  1.00  0.00    -0.238 OA
HETATM   35  O   UNL     1      39.272  -9.868  -2.087  1.00  0.00    -0.267 OA
BRANCH  32  36
HETATM   36  O   UNL     1      39.093  -8.377   4.561  1.00  0.00    -0.304 OA
BRANCH  36  37
HETATM   37  C   UNL     1      40.042  -8.286   5.633  1.00  0.00     0.176 C 
HETATM   38  C   UNL     1      41.409  -8.731   5.148  1.00  0.00     0.034 C 
ENDBRANCH  36  37
ENDBRANCH  32  36
ENDBRANCH   1  26
TORSDOF 7
ENDMDL
MODEL 2
REMARK VINA RESULT:      -8.8      2.620      4.368
REMARK  7 active torsions:
REMARK  status: ('A' for Active; 'I' for Inactive)
REMARK    1  A    between atoms: C_2  and  O_3 
REMARK    2  A    between atoms: O_3  and  C_4 
REMARK       I    between atoms: C_4  and  N_5 
REMARK       I    between atoms: N_8  and  C_9 
REMARK    3  A    between atoms: C_9  and  C_10 
REMARK    4  A    between atoms: C_11  and  N_12 
REMARK       I    between atoms: N_12  and  C_13 
REMARK    5  A    between atoms: C_13  and  C_14 
REMARK    6  A    between atoms: N_16  and  C_17 
REMARK    7  A    between atoms: C_18  and  O_19 
ROOT
HETATM    1  C   UNL     1      38.965 -12.211  -1.773  1.00  0.00     0.059 A 
HETATM    2  C   UNL     1      39.940 -13.136  -1.335  1.00  0.00     0.050 A 
HETATM    3  C   UNL     1      39.848 -14.453  -1.795  1.00  0.00     0.030 A 
HETATM    4  C   UNL     1      38.816 -14.842  -2.658  1.00  0.00     0.002 A 
HETATM    5  C   UNL     1      37.841 -13.931  -3.054  1.00  0.00     0.001 A 
HETATM    6  C   UNL     1      37.906 -12.618  -2.600  1.00  0.00     0.019 A 
ENDROOT
BRANCH   2   7
HETATM    7  N   UNL     1      40.892 -12.720  -0.380  1.00  0.00    -0.326 N 
HETATM    8  C   UNL     1      41.240 -13.138   0.869  1.00  0.00     0.228 C 
HETATM    9  O   UNL     1      41.946 -12.389   1.551  1.00  0.00    -0.273 OA
HETATM   10  H   UNL     1      41.408 -11.875  -0.644  1.00  0.00     0.169 HD
BRANCH   8  11
HETATM   11  C   UNL     1      40.862 -14.511   1.376  1.00  0.00     0.105 C 
HETATM   12  C   UNL     1      42.125 -15.346   1.582  1.00  0.00     0.147 C 
HETATM   13  N   UNL     1      41.811 -16.221   2.686  1.00  0.00    -0.315 N 
HETATM   14  C   UNL     1      40.699 -15.766   3.397  1.00  0.00     0.225 C 
HETATM   15  O   UNL     1      40.105 -16.294   4.326  1.00  0.00    -0.273 OA
HETATM   16  C   UNL     1      40.249 -14.469   2.770  1.00  0.00     0.119 C 
BRANCH  13  17
HETATM   17  C   UNL     1      42.722 -17.224   3.118  1.00  0.00     0.071 A 
HETATM   18  C   UNL     1      43.514 -17.088   4.276  1.00  0.00     0.095 A 
HETATM   19  C   UNL     1      44.367 -18.131   4.663  1.00  0.00     0.039 A 
HETATM   20  C   UNL     1      44.458 -19.297   3.901  1.00  0.00     0.009 A 
HETATM   21  C   UNL     1      43.722 -19.427   2.724  1.00  0.00    -0.060 A 
HETATM   22  C   UNL     1      43.818 -20.670   1.888  1.00  0.00     0.048 C 
HETATM   23  C   UNL     1      42.856 -18.391   2.345  1.00  0.00     0.039 A 
BRANCH  18  24
HETATM   24  O   UNL     1      43.542 -15.860   4.889  1.00  0.00    -0.354 OA
HETATM   25  C   UNL     1      43.238 -15.836   6.278  1.00  0.00     0.210 C 
ENDBRANCH  18  24
ENDBRANCH  13  17
ENDBRANCH   8  11
ENDBRANCH   2   7
BRANCH   1  26
HETATM   26  C   UNL     1      39.023 -10.795  -1.329  1.00  0.00     0.256 C 
HETATM   27  N   UNL     1      39.687  -9.852  -2.109  1.00  0.00    -0.345 N 
HETATM   28  C   UNL     1      40.719 -10.148  -3.112  1.00  0.00     0.146 C 
HETATM   29  C   UNL     1      39.692  -8.457  -1.663  1.00  0.00     0.146 C 
HETATM   30  C   UNL     1      40.586  -9.222  -4.324  1.00  0.00     0.148 C 
HETATM   31  N   UNL     1      40.501  -7.811  -3.946  1.00  0.00    -0.325 N 
HETATM   32  C   UNL     1      40.833  -6.869  -4.908  1.00  0.00     0.362 C 
HETATM   33  C   UNL     1      39.585  -7.485  -2.845  1.00  0.00     0.148 C 
HETATM   34  O   UNL     1      41.352  -7.149  -5.982  1.00  0.00    -0.238 OA
HETATM   35  O   UNL     1      38.471 -10.516  -0.265  1.00  0.00    -0.267 OA
BRANCH  32  36
HETATM   36  O   UNL     1      40.512  -5.604  -4.526  1.00  0.00    -0.304 OA
BRANCH  36  37
HETATM   37  C   UNL     1      41.607  -4.752  -4.162  1.00  0.00     0.176 C 
HETATM   38  C   UNL     1      41.226  -3.916  -2.954  1.00  0.00     0.034 C 
ENDBRANCH  36  37
ENDBRANCH  32  36
ENDBRANCH   1  26
TORSDOF 7
ENDMDL
MODEL 3
REMARK VINA RESULT:      -8.8      2.243      7.788
REMARK  7 active torsions:
REMARK  status: ('A' for Active; 'I' for Inactive)
REMARK    1  A    between atoms: C_2  and  O_3 
REMARK    2  A    between atoms: O_3  and  C_4 
REMARK       I    between atoms: C_4  and  N_5 
REMARK       I    between atoms: N_8  and  C_9 
REMARK    3  A    between atoms: C_9  and  C_10 
REMARK    4  A    between atoms: C_11  and  N_12 
REMARK       I    between atoms: N_12  and  C_13 
REMARK    5  A    between atoms: C_13  and  C_14 
REMARK    6  A    between atoms: N_16  and  C_17 
REMARK    7  A    between atoms: C_18  and  O_19 
ROOT
HETATM    1  C   UNL     1      42.253 -16.992   3.763  1.00  0.00     0.059 A 
HETATM    2  C   UNL     1      43.043 -17.217   4.913  1.00  0.00     0.050 A 
HETATM    3  C   UNL     1      44.135 -18.081   4.800  1.00  0.00     0.030 A 
HETATM    4  C   UNL     1      44.432 -18.709   3.583  1.00  0.00     0.002 A 
HETATM    5  C   UNL     1      43.625 -18.508   2.467  1.00  0.00     0.001 A 
HETATM    6  C   UNL     1      42.526 -17.660   2.559  1.00  0.00     0.019 A 
ENDROOT
BRANCH   2   7
HETATM    7  N   UNL     1      42.637 -16.647   6.140  1.00  0.00    -0.326 N 
HETATM    8  C   UNL     1      42.857 -15.455   6.760  1.00  0.00     0.228 C 
HETATM    9  O   UNL     1      42.567 -15.367   7.957  1.00  0.00    -0.273 OA
HETATM   10  H   UNL     1      42.101 -17.283   6.739  1.00  0.00     0.169 HD
BRANCH   8  11
HETATM   11  C   UNL     1      43.349 -14.246   5.997  1.00  0.00     0.105 C 
HETATM   12  C   UNL     1      42.270 -13.164   6.000  1.00  0.00     0.147 C 
HETATM   13  N   UNL     1      42.998 -11.919   5.980  1.00  0.00    -0.315 N 
HETATM   14  C   UNL     1      44.333 -12.102   6.345  1.00  0.00     0.225 C 
HETATM   15  O   UNL     1      45.251 -11.295   6.353  1.00  0.00    -0.273 OA
HETATM   16  C   UNL     1      44.522 -13.560   6.685  1.00  0.00     0.119 C 
BRANCH  13  17
HETATM   17  C   UNL     1      42.325 -10.670   5.884  1.00  0.00     0.071 A 
HETATM   18  C   UNL     1      42.045 -10.047   4.650  1.00  0.00     0.095 A 
HETATM   19  C   UNL     1      41.347  -8.831   4.627  1.00  0.00     0.039 A 
HETATM   20  C   UNL     1      40.944  -8.218   5.815  1.00  0.00     0.009 A 
HETATM   21  C   UNL     1      41.258  -8.793   7.046  1.00  0.00    -0.060 A 
HETATM   22  C   UNL     1      40.842  -8.139   8.330  1.00  0.00     0.048 C 
HETATM   23  C   UNL     1      41.942 -10.017   7.069  1.00  0.00     0.039 A 
BRANCH  18  24
HETATM   24  O   UNL     1      42.620 -10.577   3.523  1.00  0.00    -0.354 OA
HETATM   25  C   UNL     1      41.850 -10.518   2.329  1.00  0.00     0.210 C 
ENDBRANCH  18  24
ENDBRANCH  13  17
ENDBRANCH   8  11
ENDBRANCH   2   7
BRANCH   1  26
HETATM   26  C   UNL     1      41.089 -16.071   3.822  1.00  0.00     0.256 C 
HETATM   27  N   UNL     1      41.009 -15.000   2.936  1.00  0.00    -0.345 N 
HETATM   28  C   UNL     1      42.142 -14.396   2.222  1.00  0.00     0.146 C 
HETATM   29  C   UNL     1      39.829 -14.134   2.994  1.00  0.00     0.146 C 
HETATM   30  C   UNL     1      41.738 -13.984   0.803  1.00  0.00     0.148 C 
HETATM   31  N   UNL     1      40.515 -13.182   0.778  1.00  0.00    -0.325 N 
HETATM   32  C   UNL     1      40.296 -12.381  -0.333  1.00  0.00     0.362 C 
HETATM   33  C   UNL     1      39.397 -13.671   1.595  1.00  0.00     0.148 C 
HETATM   34  O   UNL     1      41.138 -12.178  -1.200  1.00  0.00    -0.238 OA
HETATM   35  O   UNL     1      40.232 -16.301   4.674  1.00  0.00    -0.267 OA
BRANCH  32  36
HETATM   36  O   UNL     1      39.042 -11.856  -0.354  1.00  0.00    -0.304 OA
BRANCH  36  37
HETATM   37  C   UNL     1      38.389 -11.819  -1.630  1.00  0.00     0.176 C 
HETATM   38  C   UNL     1      37.890 -13.206  -1.991  1.00  0.00     0.034 C 
ENDBRANCH  36  37
ENDBRANCH  32  36
ENDBRANCH   1  26
TORSDOF 7
ENDMDL
MODEL 4
REMARK VINA RESULT:      -8.7      5.465      8.470
REMARK  7 active torsions:
REMARK  status: ('A' for Active; 'I' for Inactive)
REMARK    1  A    between atoms: C_2  and  O_3 
REMARK    2  A    between atoms: O_3  and  C_4 
REMARK       I    between atoms: C_4  and  N_5 
REMARK       I    between atoms: N_8  and  C_9 
REMARK    3  A    between atoms: C_9  and  C_10 
REMARK    4  A    between atoms: C_11  and  N_12 
REMARK       I    between atoms: N_12  and  C_13 
REMARK    5  A    between atoms: C_13  and  C_14 
REMARK    6  A    between atoms: N_16  and  C_17 
REMARK    7  A    between atoms: C_18  and  O_19 
ROOT
HETATM    1  C   UNL     1      43.755  -9.414   8.264  1.00  0.00     0.059 A 
HETATM    2  C   UNL     1      43.773 -10.682   7.639  1.00  0.00     0.050 A 
HETATM    3  C   UNL     1      45.014 -11.235   7.313  1.00  0.00     0.030 A 
HETATM    4  C   UNL     1      46.203 -10.549   7.593  1.00  0.00     0.002 A 
HETATM    5  C   UNL     1      46.171  -9.286   8.176  1.00  0.00     0.001 A 
HETATM    6  C   UNL     1      44.947  -8.710   8.498  1.00  0.00     0.019 A 
ENDROOT
BRANCH   2   7
HETATM    7  N   UNL     1      42.545 -11.280   7.279  1.00  0.00    -0.326 N 
HETATM    8  C   UNL     1      42.122 -12.039   6.230  1.00  0.00     0.228 C 
HETATM    9  O   UNL     1      40.906 -12.187   6.082  1.00  0.00    -0.273 OA
HETATM   10  H   UNL     1      41.769 -11.053   7.909  1.00  0.00     0.169 HD
BRANCH   8  11
HETATM   11  C   UNL     1      43.101 -12.758   5.330  1.00  0.00     0.105 C 
HETATM   12  C   UNL     1      42.740 -14.240   5.261  1.00  0.00     0.147 C 
HETATM   13  N   UNL     1      43.138 -14.655   3.938  1.00  0.00    -0.315 N 
HETATM   14  C   UNL     1      43.328 -13.559   3.095  1.00  0.00     0.225 C 
HETATM   15  O   UNL     1      43.746 -13.529   1.947  1.00  0.00    -0.273 OA
HETATM   16  C   UNL     1      42.992 -12.312   3.878  1.00  0.00     0.119 C 
BRANCH  13  17
HETATM   17  C   UNL     1      43.042 -16.014   3.528  1.00  0.00     0.071 A 
HETATM   18  C   UNL     1      42.221 -16.432   2.460  1.00  0.00     0.095 A 
HETATM   19  C   UNL     1      42.199 -17.783   2.087  1.00  0.00     0.039 A 
HETATM   20  C   UNL     1      42.966 -18.725   2.775  1.00  0.00     0.009 A 
HETATM   21  C   UNL     1      43.743 -18.338   3.866  1.00  0.00    -0.060 A 
HETATM   22  C   UNL     1      44.564 -19.341   4.622  1.00  0.00     0.048 C 
HETATM   23  C   UNL     1      43.778 -16.984   4.230  1.00  0.00     0.039 A 
BRANCH  18  24
HETATM   24  O   UNL     1      41.341 -15.519   1.936  1.00  0.00    -0.354 OA
HETATM   25  C   UNL     1      39.988 -15.622   2.363  1.00  0.00     0.210 C 
ENDBRANCH  18  24
ENDBRANCH  13  17
ENDBRANCH   8  11
ENDBRANCH   2   7
BRANCH   1  26
HETATM   26  C   UNL     1      42.465  -8.785   8.646  1.00  0.00     0.256 C 
HETATM   27  N   UNL     1      42.019  -8.868   9.963  1.00  0.00    -0.345 N 
HETATM   28  C   UNL     1      42.445  -9.871  10.947  1.00  0.00     0.146 C 
HETATM   29  C   UNL     1      40.762  -8.203  10.315  1.00  0.00     0.146 C 
HETATM   30  C   UNL     1      42.568  -9.251  12.342  1.00  0.00     0.148 C 
HETATM   31  N   UNL     1      41.374  -8.498  12.729  1.00  0.00    -0.325 N 
HETATM   32  C   UNL     1      41.161  -8.285  14.083  1.00  0.00     0.362 C 
HETATM   33  C   UNL     1      40.824  -7.585  11.719  1.00  0.00     0.148 C 
HETATM   34  O   UNL     1      41.811  -8.831  14.966  1.00  0.00    -0.238 OA
HETATM   35  O   UNL     1      41.835  -8.210   7.760  1.00  0.00    -0.267 OA
BRANCH  32  36
HETATM   36  O   UNL     1      40.157  -7.398  14.316  1.00  0.00    -0.304 OA
BRANCH  36  37
HETATM   37  C   UNL     1      40.399  -6.418  15.334  1.00  0.00     0.176 C 
HETATM   38  C   UNL     1      39.079  -5.945  15.915  1.00  0.00     0.034 C 
ENDBRANCH  36  37
ENDBRANCH  32  36
ENDBRANCH   1  26
TORSDOF 7
ENDMDL
MODEL 5
REMARK VINA RESULT:      -8.5      2.190      5.845
REMARK  7 active torsions:
REMARK  status: ('A' for Active; 'I' for Inactive)
REMARK    1  A    between atoms: C_2  and  O_3 
REMARK    2  A    between atoms: O_3  and  C_4 
REMARK       I    between atoms: C_4  and  N_5 
REMARK       I    between atoms: N_8  and  C_9 
REMARK    3  A    between atoms: C_9  and  C_10 
REMARK    4  A    between atoms: C_11  and  N_12 
REMARK       I    between atoms: N_12  and  C_13 
REMARK    5  A    between atoms: C_13  and  C_14 
REMARK    6  A    between atoms: N_16  and  C_17 
REMARK    7  A    between atoms: C_18  and  O_19 
ROOT
HETATM    1  C   UNL     1      40.901 -10.053   5.239  1.00  0.00     0.059 A 
HETATM    2  C   UNL     1      41.253 -10.522   6.526  1.00  0.00     0.050 A 
HETATM    3  C   UNL     1      40.454 -10.135   7.605  1.00  0.00     0.030 A 
HETATM    4  C   UNL     1      39.342  -9.304   7.416  1.00  0.00     0.002 A 
HETATM    5  C   UNL     1      39.027  -8.820   6.150  1.00  0.00     0.001 A 
HETATM    6  C   UNL     1      39.815  -9.182   5.062  1.00  0.00     0.019 A 
ENDROOT
BRANCH   2   7
HETATM    7  N   UNL     1      42.444 -11.264   6.677  1.00  0.00    -0.326 N 
HETATM    8  C   UNL     1      42.788 -12.569   6.491  1.00  0.00     0.228 C 
HETATM    9  O   UNL     1      43.859 -12.955   6.965  1.00  0.00    -0.273 OA
HETATM   10  H   UNL     1      43.224 -10.729   7.072  1.00  0.00     0.169 HD
BRANCH   8  11
HETATM   11  C   UNL     1      41.940 -13.498   5.651  1.00  0.00     0.105 C 
HETATM   12  C   UNL     1      42.840 -14.481   4.907  1.00  0.00     0.147 C 
HETATM   13  N   UNL     1      42.054 -15.686   4.794  1.00  0.00    -0.315 N 
HETATM   14  C   UNL     1      40.981 -15.680   5.686  1.00  0.00     0.225 C 
HETATM   15  O   UNL     1      40.069 -16.486   5.805  1.00  0.00    -0.273 OA
HETATM   16  C   UNL     1      41.062 -14.410   6.497  1.00  0.00     0.119 C 
BRANCH  13  17
HETATM   17  C   UNL     1      42.530 -16.814   4.070  1.00  0.00     0.071 A 
HETATM   18  C   UNL     1      42.284 -16.996   2.693  1.00  0.00     0.095 A 
HETATM   19  C   UNL     1      42.811 -18.115   2.033  1.00  0.00     0.039 A 
HETATM   20  C   UNL     1      43.560 -19.065   2.730  1.00  0.00     0.009 A 
HETATM   21  C   UNL     1      43.769 -18.929   4.102  1.00  0.00    -0.060 A 
HETATM   22  C   UNL     1      44.562 -19.948   4.866  1.00  0.00     0.048 C 
HETATM   23  C   UNL     1      43.256 -17.801   4.759  1.00  0.00     0.039 A 
BRANCH  18  24
HETATM   24  O   UNL     1      41.389 -16.149   2.087  1.00  0.00    -0.354 OA
HETATM   25  C   UNL     1      41.939 -15.111   1.286  1.00  0.00     0.210 C 
ENDBRANCH  18  24
ENDBRANCH  13  17
ENDBRANCH   8  11
ENDBRANCH   2   7
BRANCH   1  26
HETATM   26  C   UNL     1      41.705 -10.445   4.054  1.00  0.00     0.256 C 
HETATM   27  N   UNL     1      41.083 -11.056   2.968  1.00  0.00    -0.345 N 
HETATM   28  C   UNL     1      39.797 -11.764   3.008  1.00  0.00     0.146 C 
HETATM   29  C   UNL     1      41.898 -11.394   1.798  1.00  0.00     0.146 C 
HETATM   30  C   UNL     1      38.991 -11.507   1.730  1.00  0.00     0.148 C 
HETATM   31  N   UNL     1      39.772 -11.746   0.517  1.00  0.00    -0.325 N 
HETATM   32  C   UNL     1      39.074 -11.996  -0.656  1.00  0.00     0.362 C 
HETATM   33  C   UNL     1      41.126 -11.177   0.490  1.00  0.00     0.148 C 
HETATM   34  O   UNL     1      37.867 -12.198  -0.697  1.00  0.00    -0.238 OA
HETATM   35  O   UNL     1      42.912 -10.209   4.090  1.00  0.00    -0.267 OA
BRANCH  32  36
HETATM   36  O   UNL     1      39.880 -11.985  -1.751  1.00  0.00    -0.304 OA
BRANCH  36  37
HETATM   37  C   UNL     1      39.451 -12.781  -2.864  1.00  0.00     0.176 C 
HETATM   38  C   UNL     1      39.950 -14.205  -2.699  1.00  0.00     0.034 C 
ENDBRANCH  36  37
ENDBRANCH  32  36
ENDBRANCH   1  26
TORSDOF 7
ENDMDL
MODEL 6
REMARK VINA RESULT:      -8.4      5.785      9.124
REMARK  7 active torsions:
REMARK  status: ('A' for Active; 'I' for Inactive)
REMARK    1  A    between atoms: C_2  and  O_3 
REMARK    2  A    between atoms: O_3  and  C_4 
REMARK       I    between atoms: C_4  and  N_5 
REMARK       I    between atoms: N_8  and  C_9 
REMARK    3  A    between atoms: C_9  and  C_10 
REMARK    4  A    between atoms: C_11  and  N_12 
REMARK       I    between atoms: N_12  and  C_13 
REMARK    5  A    between atoms: C_13  and  C_14 
REMARK    6  A    between atoms: N_16  and  C_17 
REMARK    7  A    between atoms: C_18  and  O_19 
ROOT
HETATM    1  C   UNL     1      44.237  -8.849   8.484  1.00  0.00     0.059 A 
HETATM    2  C   UNL     1      43.794 -10.088   7.966  1.00  0.00     0.050 A 
HETATM    3  C   UNL     1      44.757 -11.053   7.660  1.00  0.00     0.030 A 
HETATM    4  C   UNL     1      46.120 -10.796   7.855  1.00  0.00     0.002 A 
HETATM    5  C   UNL     1      46.546  -9.560   8.332  1.00  0.00     0.001 A 
HETATM    6  C   UNL     1      45.607  -8.580   8.633  1.00  0.00     0.019 A 
ENDROOT
BRANCH   2   7
HETATM    7  N   UNL     1      42.420 -10.255   7.684  1.00  0.00    -0.326 N 
HETATM    8  C   UNL     1      41.702 -10.554   6.566  1.00  0.00     0.228 C 
HETATM    9  O   UNL     1      40.483 -10.369   6.598  1.00  0.00    -0.273 OA
HETATM   10  H   UNL     1      41.803 -10.050   8.476  1.00  0.00     0.169 HD
BRANCH   8  11
HETATM   11  C   UNL     1      42.353 -11.184   5.355  1.00  0.00     0.105 C 
HETATM   12  C   UNL     1      41.767 -12.575   5.124  1.00  0.00     0.147 C 
HETATM   13  N   UNL     1      41.814 -12.761   3.694  1.00  0.00    -0.315 N 
HETATM   14  C   UNL     1      41.987 -11.547   3.027  1.00  0.00     0.225 C 
HETATM   15  O   UNL     1      42.156 -11.337   1.835  1.00  0.00    -0.273 OA
HETATM   16  C   UNL     1      42.013 -10.451   4.064  1.00  0.00     0.119 C 
BRANCH  13  17
HETATM   17  C   UNL     1      41.431 -13.993   3.095  1.00  0.00     0.071 A 
HETATM   18  C   UNL     1      40.125 -14.240   2.624  1.00  0.00     0.095 A 
HETATM   19  C   UNL     1      39.824 -15.465   2.013  1.00  0.00     0.039 A 
HETATM   20  C   UNL     1      40.800 -16.455   1.884  1.00  0.00     0.009 A 
HETATM   21  C   UNL     1      42.083 -16.249   2.391  1.00  0.00    -0.060 A 
HETATM   22  C   UNL     1      43.139 -17.308   2.270  1.00  0.00     0.048 C 
HETATM   23  C   UNL     1      42.389 -15.017   2.988  1.00  0.00     0.039 A 
BRANCH  18  24
HETATM   24  O   UNL     1      39.150 -13.326   2.939  1.00  0.00    -0.354 OA
HETATM   25  C   UNL     1      38.732 -12.458   1.894  1.00  0.00     0.210 C 
ENDBRANCH  18  24
ENDBRANCH  13  17
ENDBRANCH   8  11
ENDBRANCH   2   7
BRANCH   1  26
HETATM   26  C   UNL     1      43.256  -7.793   8.841  1.00  0.00     0.256 C 
HETATM   27  N   UNL     1      42.811  -7.680  10.156  1.00  0.00    -0.345 N 
HETATM   28  C   UNL     1      42.851  -8.745  11.166  1.00  0.00     0.146 C 
HETATM   29  C   UNL     1      41.874  -6.602  10.483  1.00  0.00     0.146 C 
HETATM   30  C   UNL     1      43.188  -8.177  12.548  1.00  0.00     0.148 C 
HETATM   31  N   UNL     1      42.341  -7.038  12.908  1.00  0.00    -0.325 N 
HETATM   32  C   UNL     1      42.219  -6.731  14.255  1.00  0.00     0.362 C 
HETATM   33  C   UNL     1      42.153  -6.013  11.873  1.00  0.00     0.148 C 
HETATM   34  O   UNL     1      42.631  -7.452  15.155  1.00  0.00    -0.238 OA
HETATM   35  O   UNL     1      42.873  -7.052   7.937  1.00  0.00    -0.267 OA
BRANCH  32  36
HETATM   36  O   UNL     1      41.598  -5.539  14.460  1.00  0.00    -0.304 OA
BRANCH  36  37
HETATM   37  C   UNL     1      41.103  -5.299  15.784  1.00  0.00     0.176 C 
HETATM   38  C   UNL     1      39.624  -5.631  15.848  1.00  0.00     0.034 C 
ENDBRANCH  36  37
ENDBRANCH  32  36
ENDBRANCH   1  26
TORSDOF 7
ENDMDL
MODEL 7
REMARK VINA RESULT:      -8.3      1.719      2.362
REMARK  7 active torsions:
REMARK  status: ('A' for Active; 'I' for Inactive)
REMARK    1  A    between atoms: C_2  and  O_3 
REMARK    2  A    between atoms: O_3  and  C_4 
REMARK       I    between atoms: C_4  and  N_5 
REMARK       I    between atoms: N_8  and  C_9 
REMARK    3  A    between atoms: C_9  and  C_10 
REMARK    4  A    between atoms: C_11  and  N_12 
REMARK       I    between atoms: N_12  and  C_13 
REMARK    5  A    between atoms: C_13  and  C_14 
REMARK    6  A    between atoms: N_16  and  C_17 
REMARK    7  A    between atoms: C_18  and  O_19 
ROOT
HETATM    1  C   UNL     1      39.613 -10.434   0.683  1.00  0.00     0.059 A 
HETATM    2  C   UNL     1      40.440 -11.569   0.515  1.00  0.00     0.050 A 
HETATM    3  C   UNL     1      39.976 -12.602  -0.303  1.00  0.00     0.030 A 
HETATM    4  C   UNL     1      38.728 -12.517  -0.932  1.00  0.00     0.002 A 
HETATM    5  C   UNL     1      37.907 -11.411  -0.730  1.00  0.00     0.001 A 
HETATM    6  C   UNL     1      38.343 -10.375   0.089  1.00  0.00     0.019 A 
ENDROOT
BRANCH   2   7
HETATM    7  N   UNL     1      41.638 -11.653   1.257  1.00  0.00    -0.326 N 
HETATM    8  C   UNL     1      42.121 -12.511   2.199  1.00  0.00     0.228 C 
HETATM    9  O   UNL     1      43.109 -12.155   2.847  1.00  0.00    -0.273 OA
HETATM   10  H   UNL     1      42.277 -10.865   1.112  1.00  0.00     0.169 HD
BRANCH   8  11
HETATM   11  C   UNL     1      41.536 -13.893   2.384  1.00  0.00     0.105 C 
HETATM   12  C   UNL     1      42.663 -14.921   2.448  1.00  0.00     0.147 C 
HETATM   13  N   UNL     1      42.168 -15.955   3.325  1.00  0.00    -0.315 N 
HETATM   14  C   UNL     1      41.082 -15.506   4.079  1.00  0.00     0.225 C 
HETATM   15  O   UNL     1      40.366 -16.128   4.850  1.00  0.00    -0.273 OA
HETATM   16  C   UNL     1      40.846 -14.057   3.731  1.00  0.00     0.119 C 
BRANCH  13  17
HETATM   17  C   UNL     1      42.911 -17.144   3.561  1.00  0.00     0.071 A 
HETATM   18  C   UNL     1      43.657 -17.356   4.739  1.00  0.00     0.095 A 
HETATM   19  C   UNL     1      44.340 -18.567   4.921  1.00  0.00     0.039 A 
HETATM   20  C   UNL     1      44.306 -19.559   3.940  1.00  0.00     0.009 A 
HETATM   21  C   UNL     1      43.617 -19.346   2.746  1.00  0.00    -0.060 A 
HETATM   22  C   UNL     1      43.582 -20.398   1.678  1.00  0.00     0.048 C 
HETATM   23  C   UNL     1      42.920 -18.141   2.570  1.00  0.00     0.039 A 
BRANCH  18  24
HETATM   24  O   UNL     1      43.824 -16.292   5.589  1.00  0.00    -0.354 OA
HETATM   25  C   UNL     1      43.445 -16.496   6.944  1.00  0.00     0.210 C 
ENDBRANCH  18  24
ENDBRANCH  13  17
ENDBRANCH   8  11
ENDBRANCH   2   7
BRANCH   1  26
HETATM   26  C   UNL     1      40.062  -9.299   1.528  1.00  0.00     0.256 C 
HETATM   27  N   UNL     1      39.695  -9.249   2.870  1.00  0.00    -0.345 N 
HETATM   28  C   UNL     1      38.553  -9.952   3.470  1.00  0.00     0.146 C 
HETATM   29  C   UNL     1      40.188  -8.136   3.686  1.00  0.00     0.146 C 
HETATM   30  C   UNL     1      38.899 -10.459   4.873  1.00  0.00     0.148 C 
HETATM   31  N   UNL     1      39.476  -9.416   5.721  1.00  0.00    -0.325 N 
HETATM   32  C   UNL     1      39.407  -9.595   7.095  1.00  0.00     0.362 C 
HETATM   33  C   UNL     1      40.526  -8.588   5.114  1.00  0.00     0.148 C 
HETATM   34  O   UNL     1      38.748 -10.478   7.632  1.00  0.00    -0.238 OA
HETATM   35  O   UNL     1      40.752  -8.434   0.989  1.00  0.00    -0.267 OA
BRANCH  32  36
HETATM   36  O   UNL     1      40.158  -8.688   7.774  1.00  0.00    -0.304 OA
BRANCH  36  37
HETATM   37  C   UNL     1      40.959  -9.202   8.848  1.00  0.00     0.176 C 
HETATM   38  C   UNL     1      42.416  -9.244   8.427  1.00  0.00     0.034 C 
ENDBRANCH  36  37
ENDBRANCH  32  36
ENDBRANCH   1  26
TORSDOF 7
ENDMDL
MODEL 8
REMARK VINA RESULT:      -8.2      2.316      8.559
REMARK  7 active torsions:
REMARK  status: ('A' for Active; 'I' for Inactive)
REMARK    1  A    between atoms: C_2  and  O_3 
REMARK    2  A    between atoms: O_3  and  C_4 
REMARK       I    between atoms: C_4  and  N_5 
REMARK       I    between atoms: N_8  and  C_9 
REMARK    3  A    between atoms: C_9  and  C_10 
REMARK    4  A    between atoms: C_11  and  N_12 
REMARK       I    between atoms: N_12  and  C_13 
REMARK    5  A    between atoms: C_13  and  C_14 
REMARK    6  A    between atoms: N_16  and  C_17 
REMARK    7  A    between atoms: C_18  and  O_19 
ROOT
HETATM    1  C   UNL     1      42.068 -12.571   6.267  1.00  0.00     0.059 A 
HETATM    2  C   UNL     1      41.649 -11.234   6.081  1.00  0.00     0.050 A 
HETATM    3  C   UNL     1      42.527 -10.214   6.455  1.00  0.00     0.030 A 
HETATM    4  C   UNL     1      43.782 -10.510   7.001  1.00  0.00     0.002 A 
HETATM    5  C   UNL     1      44.170 -11.830   7.213  1.00  0.00     0.001 A 
HETATM    6  C   UNL     1      43.307 -12.862   6.859  1.00  0.00     0.019 A 
ENDROOT
BRANCH   2   7
HETATM    7  N   UNL     1      40.333 -10.990   5.631  1.00  0.00    -0.326 N 
HETATM    8  C   UNL     1      39.756 -10.825   4.408  1.00  0.00     0.228 C 
HETATM    9  O   UNL     1      38.612 -10.365   4.369  1.00  0.00    -0.273 OA
HETATM   10  H   UNL     1      39.653 -10.842   6.383  1.00  0.00     0.169 HD
BRANCH   8  11
HETATM   11  C   UNL     1      40.447 -11.278   3.141  1.00  0.00     0.105 C 
HETATM   12  C   UNL     1      39.443 -11.994   2.239  1.00  0.00     0.147 C 
HETATM   13  N   UNL     1      39.889 -11.710   0.896  1.00  0.00    -0.315 N 
HETATM   14  C   UNL     1      40.773 -10.630   0.870  1.00  0.00     0.225 C 
HETATM   15  O   UNL     1      41.409 -10.173  -0.069  1.00  0.00    -0.273 OA
HETATM   16  C   UNL     1      40.908 -10.110   2.280  1.00  0.00     0.119 C 
BRANCH  13  17
HETATM   17  C   UNL     1      39.249 -12.290  -0.234  1.00  0.00     0.071 A 
HETATM   18  C   UNL     1      39.503 -13.610  -0.660  1.00  0.00     0.095 A 
HETATM   19  C   UNL     1      38.811 -14.130  -1.763  1.00  0.00     0.039 A 
HETATM   20  C   UNL     1      37.887 -13.348  -2.459  1.00  0.00     0.009 A 
HETATM   21  C   UNL     1      37.662 -12.024  -2.084  1.00  0.00    -0.060 A 
HETATM   22  C   UNL     1      36.681 -11.168  -2.829  1.00  0.00     0.048 C 
HETATM   23  C   UNL     1      38.341 -11.508  -0.971  1.00  0.00     0.039 A 
BRANCH  18  24
HETATM   24  O   UNL     1      40.549 -14.279  -0.077  1.00  0.00    -0.354 OA
HETATM   25  C   UNL     1      40.212 -15.365   0.776  1.00  0.00     0.210 C 
ENDBRANCH  18  24
ENDBRANCH  13  17
ENDBRANCH   8  11
ENDBRANCH   2   7
BRANCH   1  26
HETATM   26  C   UNL     1      41.181 -13.696   5.873  1.00  0.00     0.256 C 
HETATM   27  N   UNL     1      41.559 -14.544   4.836  1.00  0.00    -0.345 N 
HETATM   28  C   UNL     1      42.526 -14.221   3.778  1.00  0.00     0.146 C 
HETATM   29  C   UNL     1      40.681 -15.667   4.499  1.00  0.00     0.146 C 
HETATM   30  C   UNL     1      43.374 -15.445   3.419  1.00  0.00     0.148 C 
HETATM   31  N   UNL     1      42.562 -16.631   3.150  1.00  0.00    -0.325 N 
HETATM   32  C   UNL     1      43.135 -17.642   2.392  1.00  0.00     0.362 C 
HETATM   33  C   UNL     1      41.484 -16.915   4.106  1.00  0.00     0.148 C 
HETATM   34  O   UNL     1      44.201 -17.525   1.800  1.00  0.00    -0.238 OA
HETATM   35  O   UNL     1      40.128 -13.826   6.495  1.00  0.00    -0.267 OA
BRANCH  32  36
HETATM   36  O   UNL     1      42.384 -18.776   2.389  1.00  0.00    -0.304 OA
BRANCH  36  37
HETATM   37  C   UNL     1      43.061 -19.985   2.017  1.00  0.00     0.176 C 
HETATM   38  C   UNL     1      43.653 -20.641   3.251  1.00  0.00     0.034 C 
ENDBRANCH  36  37
ENDBRANCH  32  36
ENDBRANCH   1  26
TORSDOF 7
ENDMDL
MODEL 9
REMARK VINA RESULT:      -8.0      2.793      7.674
REMARK  7 active torsions:
REMARK  status: ('A' for Active; 'I' for Inactive)
REMARK    1  A    between atoms: C_2  and  O_3 
REMARK    2  A    between atoms: O_3  and  C_4 
REMARK       I    between atoms: C_4  and  N_5 
REMARK       I    between atoms: N_8  and  C_9 
REMARK    3  A    between atoms: C_9  and  C_10 
REMARK    4  A    between atoms: C_11  and  N_12 
REMARK       I    between atoms: N_12  and  C_13 
REMARK    5  A    between atoms: C_13  and  C_14 
REMARK    6  A    between atoms: N_16  and  C_17 
REMARK    7  A    between atoms: C_18  and  O_19 
ROOT
HETATM    1  C   UNL     1      41.438 -15.875   2.901  1.00  0.00     0.059 A 
HETATM    2  C   UNL     1      41.628 -15.828   4.301  1.00  0.00     0.050 A 
HETATM    3  C   UNL     1      42.721 -16.514   4.838  1.00  0.00     0.030 A 
HETATM    4  C   UNL     1      43.596 -17.231   4.012  1.00  0.00     0.002 A 
HETATM    5  C   UNL     1      43.377 -17.300   2.639  1.00  0.00     0.001 A 
HETATM    6  C   UNL     1      42.290 -16.635   2.083  1.00  0.00     0.019 A 
ENDROOT
BRANCH   2   7
HETATM    7  N   UNL     1      40.657 -15.185   5.098  1.00  0.00    -0.326 N 
HETATM    8  C   UNL     1      40.618 -14.021   5.806  1.00  0.00     0.228 C 
HETATM    9  O   UNL     1      39.699 -13.871   6.616  1.00  0.00    -0.273 OA
HETATM   10  H   UNL     1      39.800 -15.730   5.235  1.00  0.00     0.169 HD
BRANCH   8  11
HETATM   11  C   UNL     1      41.605 -12.905   5.547  1.00  0.00     0.105 C 
HETATM   12  C   UNL     1      41.127 -11.629   6.235  1.00  0.00     0.147 C 
HETATM   13  N   UNL     1      42.337 -10.931   6.597  1.00  0.00    -0.315 N 
HETATM   14  C   UNL     1      43.444 -11.779   6.563  1.00  0.00     0.225 C 
HETATM   15  O   UNL     1      44.627 -11.514   6.724  1.00  0.00    -0.273 OA
HETATM   16  C   UNL     1      42.957 -13.161   6.201  1.00  0.00     0.119 C 
BRANCH  13  17
HETATM   17  C   UNL     1      42.297  -9.636   7.185  1.00  0.00     0.071 A 
HETATM   18  C   UNL     1      41.876  -8.490   6.478  1.00  0.00     0.095 A 
HETATM   19  C   UNL     1      41.829  -7.250   7.129  1.00  0.00     0.039 A 
HETATM   20  C   UNL     1      42.214  -7.131   8.466  1.00  0.00     0.009 A 
HETATM   21  C   UNL     1      42.682  -8.243   9.165  1.00  0.00    -0.060 A 
HETATM   22  C   UNL     1      43.110  -8.129  10.598  1.00  0.00     0.048 C 
HETATM   23  C   UNL     1      42.714  -9.488   8.519  1.00  0.00     0.039 A 
BRANCH  18  24
HETATM   24  O   UNL     1      41.691  -8.608   5.123  1.00  0.00    -0.354 OA
HETATM   25  C   UNL     1      40.380  -8.352   4.637  1.00  0.00     0.210 C 
ENDBRANCH  18  24
ENDBRANCH  13  17
ENDBRANCH   8  11
ENDBRANCH   2   7
BRANCH   1  26
HETATM   26  C   UNL     1      40.302 -15.152   2.275  1.00  0.00     0.256 C 
HETATM   27  N   UNL     1      40.467 -13.833   1.860  1.00  0.00    -0.345 N 
HETATM   28  C   UNL     1      41.495 -12.906   2.351  1.00  0.00     0.146 C 
HETATM   29  C   UNL     1      39.339 -13.161   1.210  1.00  0.00     0.146 C 
HETATM   30  C   UNL     1      42.014 -12.014   1.218  1.00  0.00     0.148 C 
HETATM   31  N   UNL     1      40.933 -11.373   0.470  1.00  0.00    -0.325 N 
HETATM   32  C   UNL     1      41.243 -10.227  -0.248  1.00  0.00     0.362 C 
HETATM   33  C   UNL     1      39.808 -12.233   0.081  1.00  0.00     0.148 C 
HETATM   34  O   UNL     1      42.310  -9.634  -0.152  1.00  0.00    -0.238 OA
HETATM   35  O   UNL     1      39.243 -15.766   2.152  1.00  0.00    -0.267 OA
BRANCH  32  36
HETATM   36  O   UNL     1      40.232  -9.843  -1.073  1.00  0.00    -0.304 OA
BRANCH  36  37
HETATM   37  C   UNL     1      40.605  -9.488  -2.412  1.00  0.00     0.176 C 
HETATM   38  C   UNL     1      40.812 -10.744  -3.237  1.00  0.00     0.034 C 
ENDBRANCH  36  37
ENDBRANCH  32  36
ENDBRANCH   1  26
TORSDOF 7
ENDMDL
MODEL 10
REMARK VINA RESULT:      -7.9      3.318      9.443
REMARK  7 active torsions:
REMARK  status: ('A' for Active; 'I' for Inactive)
REMARK    1  A    between atoms: C_2  and  O_3 
REMARK    2  A    between atoms: O_3  and  C_4 
REMARK       I    between atoms: C_4  and  N_5 
REMARK       I    between atoms: N_8  and  C_9 
REMARK    3  A    between atoms: C_9  and  C_10 
REMARK    4  A    between atoms: C_11  and  N_12 
REMARK       I    between atoms: N_12  and  C_13 
REMARK    5  A    between atoms: C_13  and  C_14 
REMARK    6  A    between atoms: N_16  and  C_17 
REMARK    7  A    between atoms: C_18  and  O_19 
ROOT
HETATM    1  C   UNL     1      41.471 -13.048   3.013  1.00  0.00     0.059 A 
HETATM    2  C   UNL     1      40.125 -12.764   3.338  1.00  0.00     0.050 A 
HETATM    3  C   UNL     1      39.380 -11.997   2.437  1.00  0.00     0.030 A 
HETATM    4  C   UNL     1      39.955 -11.521   1.252  1.00  0.00     0.002 A 
HETATM    5  C   UNL     1      41.292 -11.777   0.960  1.00  0.00     0.001 A 
HETATM    6  C   UNL     1      42.055 -12.528   1.847  1.00  0.00     0.019 A 
ENDROOT
BRANCH   2   7
HETATM    7  N   UNL     1      39.628 -13.173   4.594  1.00  0.00    -0.326 N 
HETATM    8  C   UNL     1      39.560 -12.601   5.829  1.00  0.00     0.228 C 
HETATM    9  O   UNL     1      39.296 -13.332   6.787  1.00  0.00    -0.273 OA
HETATM   10  H   UNL     1      39.291 -14.141   4.616  1.00  0.00     0.169 HD
BRANCH   8  11
HETATM   11  C   UNL     1      39.703 -11.107   6.016  1.00  0.00     0.105 C 
HETATM   12  C   UNL     1      39.207 -10.715   7.406  1.00  0.00     0.147 C 
HETATM   13  N   UNL     1      40.018  -9.582   7.780  1.00  0.00    -0.315 N 
HETATM   14  C   UNL     1      41.161  -9.488   6.985  1.00  0.00     0.225 C 
HETATM   15  O   UNL     1      42.017  -8.616   6.960  1.00  0.00    -0.273 OA
HETATM   16  C   UNL     1      41.159 -10.660   6.034  1.00  0.00     0.119 C 
BRANCH  13  17
HETATM   17  C   UNL     1      39.785  -8.873   8.990  1.00  0.00     0.071 A 
HETATM   18  C   UNL     1      38.868  -7.804   9.085  1.00  0.00     0.095 A 
HETATM   19  C   UNL     1      38.663  -7.171  10.318  1.00  0.00     0.039 A 
HETATM   20  C   UNL     1      39.371  -7.572  11.452  1.00  0.00     0.009 A 
HETATM   21  C   UNL     1      40.319  -8.591  11.366  1.00  0.00    -0.060 A 
HETATM   22  C   UNL     1      41.096  -9.025  12.574  1.00  0.00     0.048 C 
HETATM   23  C   UNL     1      40.513  -9.236  10.136  1.00  0.00     0.039 A 
BRANCH  18  24
HETATM   24  O   UNL     1      38.337  -7.314   7.918  1.00  0.00    -0.354 OA
HETATM   25  C   UNL     1      39.001  -6.199   7.337  1.00  0.00     0.210 C 
ENDBRANCH  18  24
ENDBRANCH  13  17
ENDBRANCH   8  11
ENDBRANCH   2   7
BRANCH   1  26
HETATM   26  C   UNL     1      42.304 -13.871   3.925  1.00  0.00     0.256 C 
HETATM   27  N   UNL     1      42.355 -15.252   3.758  1.00  0.00    -0.345 N 
HETATM   28  C   UNL     1      41.350 -16.066   3.061  1.00  0.00     0.146 C 
HETATM   29  C   UNL     1      43.218 -16.031   4.650  1.00  0.00     0.146 C 
HETATM   30  C   UNL     1      42.014 -17.199   2.272  1.00  0.00     0.148 C 
HETATM   31  N   UNL     1      42.956 -17.971   3.083  1.00  0.00    -0.325 N 
HETATM   32  C   UNL     1      43.266 -19.254   2.657  1.00  0.00     0.362 C 
HETATM   33  C   UNL     1      43.889 -17.197   3.911  1.00  0.00     0.148 C 
HETATM   34  O   UNL     1      42.673 -19.831   1.754  1.00  0.00    -0.238 OA
HETATM   35  O   UNL     1      42.922 -13.280   4.810  1.00  0.00    -0.267 OA
BRANCH  32  36
HETATM   36  O   UNL     1      44.304 -19.793   3.351  1.00  0.00    -0.304 OA
BRANCH  36  37
HETATM   37  C   UNL     1      44.008 -20.955   4.137  1.00  0.00     0.176 C 
HETATM   38  C   UNL     1      43.932 -20.577   5.604  1.00  0.00     0.034 C 
ENDBRANCH  36  37
ENDBRANCH  32  36
ENDBRANCH   1  26
TORSDOF 7
ENDMDL
