MODEL 1
REMARK VINA RESULT:      -8.4      0.000      0.000
REMARK  4 active torsions:
REMARK  status: ('A' for Active; 'I' for Inactive)
REMARK    1  A    between atoms: O_2  and  C_3 
REMARK    2  A    between atoms: C_7  and  N_8 
REMARK       I    between atoms: N_8  and  C_9 
REMARK    3  A    between atoms: C_9  and  C_10 
REMARK    4  A    between atoms: C_12  and  C_13 
ROOT
HETATM    1  N   UNL     1      43.495 -13.007   5.198  1.00  0.00    -0.323 N 
HETATM    2  C   UNL     1      43.145 -14.337   5.360  1.00  0.00     0.256 C 
HETATM    3  O   UNL     1      42.860 -14.888   6.416  1.00  0.00    -0.267 OA
HETATM    4  H   UNL     1      43.823 -12.727   4.283  1.00  0.00     0.169 HD
ENDROOT
BRANCH   2   5
HETATM    5  C   UNL     1      43.156 -15.160   4.115  1.00  0.00     0.033 A 
HETATM    6  C   UNL     1      43.364 -16.542   4.237  1.00  0.00     0.029 A 
HETATM    7  C   UNL     1      43.366 -17.370   3.105  1.00  0.00    -0.023 A 
HETATM    8  C   UNL     1      43.161 -16.789   1.846  1.00  0.00     0.012 A 
HETATM    9  C   UNL     1      42.937 -15.415   1.720  1.00  0.00     0.002 A 
HETATM   10  C   UNL     1      42.924 -14.601   2.852  1.00  0.00     0.017 A 
BRANCH   7  11
HETATM   11  C   UNL     1      43.573 -18.805   3.221  1.00  0.00    -0.002 A 
HETATM   12  C   UNL     1      43.381 -19.710   2.194  1.00  0.00     0.153 A 
HETATM   13  O   UNL     1      43.673 -20.973   2.600  1.00  0.00    -0.334 OA
HETATM   14  C   UNL     1      44.061 -20.889   3.897  1.00  0.00     0.142 A 
HETATM   15  C   UNL     1      44.024 -19.583   4.325  1.00  0.00     0.038 A 
ENDBRANCH   7  11
ENDBRANCH   2   5
BRANCH   1  16
HETATM   16  C   UNL     1      43.506 -12.002   6.189  1.00  0.00     0.041 A 
HETATM   17  C   UNL     1      42.463 -11.104   6.407  1.00  0.00     0.074 A 
HETATM   18  C   UNL     1      42.572 -10.132   7.404  1.00  0.00     0.155 A 
HETATM   19  C   UNL     1      43.710 -10.016   8.205  1.00  0.00     0.145 A 
HETATM   20  F   UNL     1      41.543  -9.287   7.581  1.00  0.00    -0.203 F 
HETATM   21  C   UNL     1      44.745 -10.921   7.980  1.00  0.00     0.155 A 
HETATM   22  C   UNL     1      44.648 -11.902   6.988  1.00  0.00     0.074 A 
HETATM   23  F   UNL     1      45.875 -10.890   8.700  1.00  0.00    -0.203 F 
BRANCH  19  24
HETATM   24  O   UNL     1      43.678  -9.012   9.133  1.00  0.00    -0.350 OA
HETATM   25  C   UNL     1      43.396  -9.373  10.479  1.00  0.00     0.210 C 
ENDBRANCH  19  24
ENDBRANCH   1  16
TORSDOF 4
ENDMDL
MODEL 2
REMARK VINA RESULT:      -8.1      5.049      8.201
REMARK  4 active torsions:
REMARK  status: ('A' for Active; 'I' for Inactive)
REMARK    1  A    between atoms: O_2  and  C_3 
REMARK    2  A    between atoms: C_7  and  N_8 
REMARK       I    between atoms: N_8  and  C_9 
REMARK    3  A    between atoms: C_9  and  C_10 
REMARK    4  A    between atoms: C_12  and  C_13 
ROOT
HETATM    1  N   UNL     1      41.873 -15.647   2.489  1.00  0.00    -0.323 N 
HETATM    2  C   UNL     1      42.413 -14.514   1.902  1.00  0.00     0.256 C 
HETATM    3  O   UNL     1      43.598 -14.206   1.875  1.00  0.00    -0.267 OA
HETATM    4  H   UNL     1      40.865 -15.703   2.537  1.00  0.00     0.169 HD
ENDROOT
BRANCH   2   5
HETATM    5  C   UNL     1      41.427 -13.584   1.277  1.00  0.00     0.033 A 
HETATM    6  C   UNL     1      40.696 -14.041   0.170  1.00  0.00     0.029 A 
HETATM    7  C   UNL     1      39.742 -13.221  -0.448  1.00  0.00    -0.023 A 
HETATM    8  C   UNL     1      39.535 -11.930   0.059  1.00  0.00     0.012 A 
HETATM    9  C   UNL     1      40.248 -11.476   1.171  1.00  0.00     0.002 A 
HETATM   10  C   UNL     1      41.187 -12.303   1.787  1.00  0.00     0.017 A 
BRANCH   7  11
HETATM   11  C   UNL     1      38.973 -13.686  -1.592  1.00  0.00    -0.002 A 
HETATM   12  C   UNL     1      37.777 -13.135  -2.010  1.00  0.00     0.153 A 
HETATM   13  O   UNL     1      37.309 -13.772  -3.115  1.00  0.00    -0.334 OA
HETATM   14  C   UNL     1      38.208 -14.740  -3.421  1.00  0.00     0.142 A 
HETATM   15  C   UNL     1      39.249 -14.728  -2.523  1.00  0.00     0.038 A 
ENDBRANCH   7  11
ENDBRANCH   2   5
BRANCH   1  16
HETATM   16  C   UNL     1      42.578 -16.712   3.090  1.00  0.00     0.041 A 
HETATM   17  C   UNL     1      42.996 -16.726   4.419  1.00  0.00     0.074 A 
HETATM   18  C   UNL     1      43.703 -17.821   4.920  1.00  0.00     0.155 A 
HETATM   19  C   UNL     1      44.022 -18.925   4.125  1.00  0.00     0.145 A 
HETATM   20  F   UNL     1      44.087 -17.794   6.207  1.00  0.00    -0.203 F 
HETATM   21  C   UNL     1      43.596 -18.901   2.799  1.00  0.00     0.155 A 
HETATM   22  C   UNL     1      42.883 -17.813   2.284  1.00  0.00     0.074 A 
HETATM   23  F   UNL     1      43.852 -19.915   1.961  1.00  0.00    -0.203 F 
BRANCH  19  24
HETATM   24  O   UNL     1      44.725 -19.918   4.749  1.00  0.00    -0.350 OA
HETATM   25  C   UNL     1      43.988 -21.018   5.265  1.00  0.00     0.210 C 
ENDBRANCH  19  24
ENDBRANCH   1  16
TORSDOF 4
ENDMDL
MODEL 3
REMARK VINA RESULT:      -8.1      5.045      8.193
REMARK  4 active torsions:
REMARK  status: ('A' for Active; 'I' for Inactive)
REMARK    1  A    between atoms: O_2  and  C_3 
REMARK    2  A    between atoms: C_7  and  N_8 
REMARK       I    between atoms: N_8  and  C_9 
REMARK    3  A    between atoms: C_9  and  C_10 
REMARK    4  A    between atoms: C_12  and  C_13 
ROOT
HETATM    1  N   UNL     1      41.873 -15.690   2.384  1.00  0.00    -0.323 N 
HETATM    2  C   UNL     1      42.386 -14.498   1.899  1.00  0.00     0.256 C 
HETATM    3  O   UNL     1      43.556 -14.140   1.943  1.00  0.00    -0.267 OA
HETATM    4  H   UNL     1      40.868 -15.791   2.385  1.00  0.00     0.169 HD
ENDROOT
BRANCH   2   5
HETATM    5  C   UNL     1      41.385 -13.567   1.298  1.00  0.00     0.033 A 
HETATM    6  C   UNL     1      40.660 -14.007   0.181  1.00  0.00     0.029 A 
HETATM    7  C   UNL     1      39.693 -13.185  -0.415  1.00  0.00    -0.023 A 
HETATM    8  C   UNL     1      39.467 -11.911   0.124  1.00  0.00     0.012 A 
HETATM    9  C   UNL     1      40.175 -11.474   1.247  1.00  0.00     0.002 A 
HETATM   10  C   UNL     1      41.127 -12.303   1.842  1.00  0.00     0.017 A 
BRANCH   7  11
HETATM   11  C   UNL     1      38.930 -13.632  -1.570  1.00  0.00    -0.002 A 
HETATM   12  C   UNL     1      37.732 -13.079  -1.981  1.00  0.00     0.153 A 
HETATM   13  O   UNL     1      37.271 -13.697  -3.099  1.00  0.00    -0.334 OA
HETATM   14  C   UNL     1      38.175 -14.656  -3.421  1.00  0.00     0.142 A 
HETATM   15  C   UNL     1      39.214 -14.655  -2.520  1.00  0.00     0.038 A 
ENDBRANCH   7  11
ENDBRANCH   2   5
BRANCH   1  16
HETATM   16  C   UNL     1      42.600 -16.766   2.939  1.00  0.00     0.041 A 
HETATM   17  C   UNL     1      43.019 -17.883   2.220  1.00  0.00     0.074 A 
HETATM   18  C   UNL     1      43.721 -18.906   2.861  1.00  0.00     0.155 A 
HETATM   19  C   UNL     1      44.021 -18.858   4.225  1.00  0.00     0.145 A 
HETATM   20  F   UNL     1      44.107 -19.966   2.132  1.00  0.00    -0.203 F 
HETATM   21  C   UNL     1      43.600 -17.734   4.932  1.00  0.00     0.155 A 
HETATM   22  C   UNL     1      42.900 -16.700   4.302  1.00  0.00     0.074 A 
HETATM   23  F   UNL     1      43.844 -17.597   6.243  1.00  0.00    -0.203 F 
BRANCH  19  24
HETATM   24  O   UNL     1      44.706 -19.934   4.717  1.00  0.00    -0.350 OA
HETATM   25  C   UNL     1      43.955 -20.940   5.383  1.00  0.00     0.210 C 
ENDBRANCH  19  24
ENDBRANCH   1  16
TORSDOF 4
ENDMDL
MODEL 4
REMARK VINA RESULT:      -7.9      4.768      7.068
REMARK  4 active torsions:
REMARK  status: ('A' for Active; 'I' for Inactive)
REMARK    1  A    between atoms: O_2  and  C_3 
REMARK    2  A    between atoms: C_7  and  N_8 
REMARK       I    between atoms: N_8  and  C_9 
REMARK    3  A    between atoms: C_9  and  C_10 
REMARK    4  A    between atoms: C_12  and  C_13 
ROOT
HETATM    1  N   UNL     1      40.946 -14.806   1.791  1.00  0.00    -0.323 N 
HETATM    2  C   UNL     1      42.202 -14.487   2.279  1.00  0.00     0.256 C 
HETATM    3  O   UNL     1      42.907 -13.554   1.915  1.00  0.00    -0.267 OA
HETATM    4  H   UNL     1      40.540 -15.677   2.104  1.00  0.00     0.169 HD
ENDROOT
BRANCH   2   5
HETATM    5  C   UNL     1      42.736 -15.407   3.327  1.00  0.00     0.033 A 
HETATM    6  C   UNL     1      42.926 -16.755   2.990  1.00  0.00     0.029 A 
HETATM    7  C   UNL     1      43.442 -17.663   3.926  1.00  0.00    -0.023 A 
HETATM    8  C   UNL     1      43.760 -17.198   5.209  1.00  0.00     0.012 A 
HETATM    9  C   UNL     1      43.588 -15.853   5.546  1.00  0.00     0.002 A 
HETATM   10  C   UNL     1      43.086 -14.954   4.605  1.00  0.00     0.017 A 
BRANCH   7  11
HETATM   11  C   UNL     1      43.650 -19.061   3.585  1.00  0.00    -0.002 A 
HETATM   12  C   UNL     1      43.509 -19.589   2.316  1.00  0.00     0.153 A 
HETATM   13  O   UNL     1      43.787 -20.918   2.310  1.00  0.00    -0.334 OA
HETATM   14  C   UNL     1      44.115 -21.258   3.581  1.00  0.00     0.142 A 
HETATM   15  C   UNL     1      44.053 -20.157   4.402  1.00  0.00     0.038 A 
ENDBRANCH   7  11
ENDBRANCH   2   5
BRANCH   1  16
HETATM   16  C   UNL     1      40.188 -14.076   0.850  1.00  0.00     0.041 A 
HETATM   17  C   UNL     1      39.596 -12.842   1.108  1.00  0.00     0.074 A 
HETATM   18  C   UNL     1      38.849 -12.202   0.115  1.00  0.00     0.155 A 
HETATM   19  C   UNL     1      38.662 -12.764  -1.150  1.00  0.00     0.145 A 
HETATM   20  F   UNL     1      38.296 -11.013   0.405  1.00  0.00    -0.203 F 
HETATM   21  C   UNL     1      39.261 -13.997  -1.396  1.00  0.00     0.155 A 
HETATM   22  C   UNL     1      40.015 -14.647  -0.414  1.00  0.00     0.074 A 
HETATM   23  F   UNL     1      39.140 -14.612  -2.581  1.00  0.00    -0.203 F 
BRANCH  19  24
HETATM   24  O   UNL     1      37.901 -12.027  -2.015  1.00  0.00    -0.350 OA
HETATM   25  C   UNL     1      38.584 -11.180  -2.929  1.00  0.00     0.210 C 
ENDBRANCH  19  24
ENDBRANCH   1  16
TORSDOF 4
ENDMDL
MODEL 5
REMARK VINA RESULT:      -7.9      5.414      7.646
REMARK  4 active torsions:
REMARK  status: ('A' for Active; 'I' for Inactive)
REMARK    1  A    between atoms: O_2  and  C_3 
REMARK    2  A    between atoms: C_7  and  N_8 
REMARK       I    between atoms: N_8  and  C_9 
REMARK    3  A    between atoms: C_9  and  C_10 
REMARK    4  A    between atoms: C_12  and  C_13 
ROOT
HETATM    1  N   UNL     1      40.676 -14.128   0.856  1.00  0.00    -0.323 N 
HETATM    2  C   UNL     1      40.527 -15.399   1.386  1.00  0.00     0.256 C 
HETATM    3  O   UNL     1      39.603 -16.173   1.167  1.00  0.00    -0.267 OA
HETATM    4  H   UNL     1      41.427 -13.562   1.225  1.00  0.00     0.169 HD
ENDROOT
BRANCH   2   5
HETATM    5  C   UNL     1      41.594 -15.826   2.338  1.00  0.00     0.033 A 
HETATM    6  C   UNL     1      41.985 -17.174   2.332  1.00  0.00     0.029 A 
HETATM    7  C   UNL     1      42.995 -17.631   3.190  1.00  0.00    -0.023 A 
HETATM    8  C   UNL     1      43.606 -16.716   4.058  1.00  0.00     0.012 A 
HETATM    9  C   UNL     1      43.233 -15.369   4.056  1.00  0.00     0.002 A 
HETATM   10  C   UNL     1      42.235 -14.920   3.191  1.00  0.00     0.017 A 
BRANCH   7  11
HETATM   11  C   UNL     1      43.413 -19.024   3.188  1.00  0.00    -0.002 A 
HETATM   12  C   UNL     1      43.346 -19.862   2.092  1.00  0.00     0.153 A 
HETATM   13  O   UNL     1      43.825 -21.096   2.394  1.00  0.00    -0.334 OA
HETATM   14  C   UNL     1      44.211 -21.061   3.694  1.00  0.00     0.142 A 
HETATM   15  C   UNL     1      43.986 -19.814   4.227  1.00  0.00     0.038 A 
ENDBRANCH   7  11
ENDBRANCH   2   5
BRANCH   1  16
HETATM   16  C   UNL     1      39.853 -13.505  -0.107  1.00  0.00     0.041 A 
HETATM   17  C   UNL     1      39.728 -13.933  -1.427  1.00  0.00     0.074 A 
HETATM   18  C   UNL     1      38.898 -13.242  -2.313  1.00  0.00     0.155 A 
HETATM   19  C   UNL     1      38.178 -12.109  -1.923  1.00  0.00     0.145 A 
HETATM   20  F   UNL     1      38.805 -13.688  -3.576  1.00  0.00    -0.203 F 
HETATM   21  C   UNL     1      38.310 -11.692  -0.601  1.00  0.00     0.155 A 
HETATM   22  C   UNL     1      39.133 -12.378   0.299  1.00  0.00     0.074 A 
HETATM   23  F   UNL     1      37.656 -10.619  -0.134  1.00  0.00    -0.203 F 
BRANCH  19  24
HETATM   24  O   UNL     1      37.415 -11.531  -2.900  1.00  0.00    -0.350 OA
HETATM   25  C   UNL     1      37.733 -10.199  -3.277  1.00  0.00     0.210 C 
ENDBRANCH  19  24
ENDBRANCH   1  16
TORSDOF 4
ENDMDL
MODEL 6
REMARK VINA RESULT:      -7.7      5.439      8.403
REMARK  4 active torsions:
REMARK  status: ('A' for Active; 'I' for Inactive)
REMARK    1  A    between atoms: O_2  and  C_3 
REMARK    2  A    between atoms: C_7  and  N_8 
REMARK       I    between atoms: N_8  and  C_9 
REMARK    3  A    between atoms: C_9  and  C_10 
REMARK    4  A    between atoms: C_12  and  C_13 
ROOT
HETATM    1  N   UNL     1      41.815 -14.908   0.851  1.00  0.00    -0.323 N 
HETATM    2  C   UNL     1      40.488 -15.021   0.471  1.00  0.00     0.256 C 
HETATM    3  O   UNL     1      39.646 -15.750   0.981  1.00  0.00    -0.267 OA
HETATM    4  H   UNL     1      42.418 -14.356   0.257  1.00  0.00     0.169 HD
ENDROOT
BRANCH   2   5
HETATM    5  C   UNL     1      40.082 -14.185  -0.697  1.00  0.00     0.033 A 
HETATM    6  C   UNL     1      40.649 -12.908  -0.825  1.00  0.00     0.029 A 
HETATM    7  C   UNL     1      40.321 -12.083  -1.910  1.00  0.00    -0.023 A 
HETATM    8  C   UNL     1      39.412 -12.557  -2.865  1.00  0.00     0.012 A 
HETATM    9  C   UNL     1      38.857 -13.835  -2.752  1.00  0.00     0.002 A 
HETATM   10  C   UNL     1      39.197 -14.654  -1.676  1.00  0.00     0.017 A 
BRANCH   7  11
HETATM   11  C   UNL     1      40.908 -10.760  -2.056  1.00  0.00    -0.002 A 
HETATM   12  C   UNL     1      40.815  -9.983  -3.195  1.00  0.00     0.153 A 
HETATM   13  O   UNL     1      41.447  -8.792  -3.022  1.00  0.00    -0.334 OA
HETATM   14  C   UNL     1      41.950  -8.793  -1.763  1.00  0.00     0.142 A 
HETATM   15  C   UNL     1      41.643  -9.972  -1.125  1.00  0.00     0.038 A 
ENDBRANCH   7  11
ENDBRANCH   2   5
BRANCH   1  16
HETATM   16  C   UNL     1      42.441 -15.533   1.952  1.00  0.00     0.041 A 
HETATM   17  C   UNL     1      42.993 -16.812   1.918  1.00  0.00     0.074 A 
HETATM   18  C   UNL     1      43.579 -17.353   3.064  1.00  0.00     0.155 A 
HETATM   19  C   UNL     1      43.630 -16.652   4.272  1.00  0.00     0.145 A 
HETATM   20  F   UNL     1      44.100 -18.589   2.989  1.00  0.00    -0.203 F 
HETATM   21  C   UNL     1      43.077 -15.374   4.293  1.00  0.00     0.155 A 
HETATM   22  C   UNL     1      42.491 -14.817   3.151  1.00  0.00     0.074 A 
HETATM   23  F   UNL     1      43.082 -14.625   5.404  1.00  0.00    -0.203 F 
BRANCH  19  24
HETATM   24  O   UNL     1      44.226 -17.312   5.312  1.00  0.00    -0.350 OA
HETATM   25  C   UNL     1      43.377 -17.941   6.261  1.00  0.00     0.210 C 
ENDBRANCH  19  24
ENDBRANCH   1  16
TORSDOF 4
ENDMDL
MODEL 7
REMARK VINA RESULT:      -7.7      5.382      8.029
REMARK  4 active torsions:
REMARK  status: ('A' for Active; 'I' for Inactive)
REMARK    1  A    between atoms: O_2  and  C_3 
REMARK    2  A    between atoms: C_7  and  N_8 
REMARK       I    between atoms: N_8  and  C_9 
REMARK    3  A    between atoms: C_9  and  C_10 
REMARK    4  A    between atoms: C_12  and  C_13 
ROOT
HETATM    1  N   UNL     1      41.148 -14.716   0.512  1.00  0.00    -0.323 N 
HETATM    2  C   UNL     1      40.710 -15.243   1.716  1.00  0.00     0.256 C 
HETATM    3  O   UNL     1      39.632 -15.026   2.254  1.00  0.00    -0.267 OA
HETATM    4  H   UNL     1      42.110 -14.890   0.257  1.00  0.00     0.169 HD
ENDROOT
BRANCH   2   5
HETATM    5  C   UNL     1      41.682 -16.134   2.417  1.00  0.00     0.033 A 
HETATM    6  C   UNL     1      41.916 -15.914   3.782  1.00  0.00     0.029 A 
HETATM    7  C   UNL     1      42.803 -16.729   4.499  1.00  0.00    -0.023 A 
HETATM    8  C   UNL     1      43.458 -17.767   3.823  1.00  0.00     0.012 A 
HETATM    9  C   UNL     1      43.217 -18.002   2.467  1.00  0.00     0.002 A 
HETATM   10  C   UNL     1      42.323 -17.194   1.764  1.00  0.00     0.017 A 
BRANCH   7  11
HETATM   11  C   UNL     1      43.048 -16.514   5.916  1.00  0.00    -0.002 A 
HETATM   12  C   UNL     1      44.063 -17.114   6.637  1.00  0.00     0.153 A 
HETATM   13  O   UNL     1      44.047 -16.703   7.931  1.00  0.00    -0.334 OA
HETATM   14  C   UNL     1      43.018 -15.828   8.054  1.00  0.00     0.142 A 
HETATM   15  C   UNL     1      42.376 -15.672   6.848  1.00  0.00     0.038 A 
ENDBRANCH   7  11
ENDBRANCH   2   5
BRANCH   1  16
HETATM   16  C   UNL     1      40.413 -13.902  -0.378  1.00  0.00     0.041 A 
HETATM   17  C   UNL     1      40.564 -12.522  -0.485  1.00  0.00     0.074 A 
HETATM   18  C   UNL     1      39.779 -11.799  -1.386  1.00  0.00     0.155 A 
HETATM   19  C   UNL     1      38.822 -12.415  -2.197  1.00  0.00     0.145 A 
HETATM   20  F   UNL     1      39.957 -10.470  -1.459  1.00  0.00    -0.203 F 
HETATM   21  C   UNL     1      38.682 -13.796  -2.082  1.00  0.00     0.155 A 
HETATM   22  C   UNL     1      39.464 -14.534  -1.187  1.00  0.00     0.074 A 
HETATM   23  F   UNL     1      37.793 -14.476  -2.820  1.00  0.00    -0.203 F 
BRANCH  19  24
HETATM   24  O   UNL     1      38.123 -11.580  -3.023  1.00  0.00    -0.350 OA
HETATM   25  C   UNL     1      36.807 -11.218  -2.627  1.00  0.00     0.210 C 
ENDBRANCH  19  24
ENDBRANCH   1  16
TORSDOF 4
ENDMDL
MODEL 8
REMARK VINA RESULT:      -7.6      4.451      6.885
REMARK  4 active torsions:
REMARK  status: ('A' for Active; 'I' for Inactive)
REMARK    1  A    between atoms: O_2  and  C_3 
REMARK    2  A    between atoms: C_7  and  N_8 
REMARK       I    between atoms: N_8  and  C_9 
REMARK    3  A    between atoms: C_9  and  C_10 
REMARK    4  A    between atoms: C_12  and  C_13 
ROOT
HETATM    1  N   UNL     1      41.886 -14.701   2.152  1.00  0.00    -0.323 N 
HETATM    2  C   UNL     1      41.662 -14.384   3.482  1.00  0.00     0.256 C 
HETATM    3  O   UNL     1      40.861 -13.560   3.905  1.00  0.00    -0.267 OA
HETATM    4  H   UNL     1      42.665 -15.314   1.952  1.00  0.00     0.169 HD
ENDROOT
BRANCH   2   5
HETATM    5  C   UNL     1      42.515 -15.111   4.467  1.00  0.00     0.033 A 
HETATM    6  C   UNL     1      42.721 -16.485   4.277  1.00  0.00     0.029 A 
HETATM    7  C   UNL     1      43.528 -17.219   5.159  1.00  0.00    -0.023 A 
HETATM    8  C   UNL     1      44.123 -16.552   6.239  1.00  0.00     0.012 A 
HETATM    9  C   UNL     1      43.934 -15.180   6.424  1.00  0.00     0.002 A 
HETATM   10  C   UNL     1      43.140 -14.455   5.536  1.00  0.00     0.017 A 
BRANCH   7  11
HETATM   11  C   UNL     1      43.755 -18.642   4.968  1.00  0.00    -0.002 A 
HETATM   12  C   UNL     1      43.971 -19.245   3.743  1.00  0.00     0.153 A 
HETATM   13  O   UNL     1      44.168 -20.581   3.888  1.00  0.00    -0.334 OA
HETATM   14  C   UNL     1      44.085 -20.850   5.215  1.00  0.00     0.142 A 
HETATM   15  C   UNL     1      43.838 -19.697   5.922  1.00  0.00     0.038 A 
ENDBRANCH   7  11
ENDBRANCH   2   5
BRANCH   1  16
HETATM   16  C   UNL     1      41.182 -14.213   1.030  1.00  0.00     0.041 A 
HETATM   17  C   UNL     1      40.345 -14.988   0.231  1.00  0.00     0.074 A 
HETATM   18  C   UNL     1      39.702 -14.419  -0.870  1.00  0.00     0.155 A 
HETATM   19  C   UNL     1      39.873 -13.076  -1.216  1.00  0.00     0.145 A 
HETATM   20  F   UNL     1      38.902 -15.201  -1.613  1.00  0.00    -0.203 F 
HETATM   21  C   UNL     1      40.711 -12.311  -0.408  1.00  0.00     0.155 A 
HETATM   22  C   UNL     1      41.358 -12.866   0.700  1.00  0.00     0.074 A 
HETATM   23  F   UNL     1      40.934 -11.013  -0.658  1.00  0.00    -0.203 F 
BRANCH  19  24
HETATM   24  O   UNL     1      39.188 -12.660  -2.324  1.00  0.00    -0.350 OA
HETATM   25  C   UNL     1      38.265 -11.592  -2.161  1.00  0.00     0.210 C 
ENDBRANCH  19  24
ENDBRANCH   1  16
TORSDOF 4
ENDMDL
MODEL 9
REMARK VINA RESULT:      -7.4      4.493      7.041
REMARK  4 active torsions:
REMARK  status: ('A' for Active; 'I' for Inactive)
REMARK    1  A    between atoms: O_2  and  C_3 
REMARK    2  A    between atoms: C_7  and  N_8 
REMARK       I    between atoms: N_8  and  C_9 
REMARK    3  A    between atoms: C_9  and  C_10 
REMARK    4  A    between atoms: C_12  and  C_13 
ROOT
HETATM    1  N   UNL     1      43.671  -9.871  10.671  1.00  0.00    -0.323 N 
HETATM    2  C   UNL     1      43.392  -9.519   9.360  1.00  0.00     0.256 C 
HETATM    3  O   UNL     1      42.504  -8.764   8.985  1.00  0.00    -0.267 OA
HETATM    4  H   UNL     1      44.357 -10.599  10.814  1.00  0.00     0.169 HD
ENDROOT
BRANCH   2   5
HETATM    5  C   UNL     1      44.254 -10.163   8.326  1.00  0.00     0.033 A 
HETATM    6  C   UNL     1      43.628 -10.768   7.226  1.00  0.00     0.029 A 
HETATM    7  C   UNL     1      44.385 -11.372   6.212  1.00  0.00    -0.023 A 
HETATM    8  C   UNL     1      45.782 -11.365   6.321  1.00  0.00     0.012 A 
HETATM    9  C   UNL     1      46.412 -10.749   7.405  1.00  0.00     0.002 A 
HETATM   10  C   UNL     1      45.652 -10.140   8.404  1.00  0.00     0.017 A 
BRANCH   7  11
HETATM   11  C   UNL     1      43.746 -11.996   5.064  1.00  0.00    -0.002 A 
HETATM   12  C   UNL     1      42.956 -13.128   5.125  1.00  0.00     0.153 A 
HETATM   13  O   UNL     1      42.488 -13.460   3.894  1.00  0.00    -0.334 OA
HETATM   14  C   UNL     1      42.972 -12.536   3.026  1.00  0.00     0.142 A 
HETATM   15  C   UNL     1      43.744 -11.613   3.692  1.00  0.00     0.038 A 
ENDBRANCH   7  11
ENDBRANCH   2   5
BRANCH   1  16
HETATM   16  C   UNL     1      43.057  -9.366  11.837  1.00  0.00     0.041 A 
HETATM   17  C   UNL     1      43.549  -8.297  12.583  1.00  0.00     0.074 A 
HETATM   18  C   UNL     1      42.878  -7.878  13.734  1.00  0.00     0.155 A 
HETATM   19  C   UNL     1      41.712  -8.504  14.182  1.00  0.00     0.145 A 
HETATM   20  F   UNL     1      43.385  -6.843  14.424  1.00  0.00    -0.203 F 
HETATM   21  C   UNL     1      41.229  -9.570  13.427  1.00  0.00     0.155 A 
HETATM   22  C   UNL     1      41.887  -9.997  12.269  1.00  0.00     0.074 A 
HETATM   23  F   UNL     1      40.116 -10.230  13.775  1.00  0.00    -0.203 F 
BRANCH  19  24
HETATM   24  O   UNL     1      41.171  -7.992  15.328  1.00  0.00    -0.350 OA
HETATM   25  C   UNL     1      40.243  -6.924  15.194  1.00  0.00     0.210 C 
ENDBRANCH  19  24
ENDBRANCH   1  16
TORSDOF 4
ENDMDL
MODEL 10
REMARK VINA RESULT:      -7.4      3.847      8.842
REMARK  4 active torsions:
REMARK  status: ('A' for Active; 'I' for Inactive)
REMARK    1  A    between atoms: O_2  and  C_3 
REMARK    2  A    between atoms: C_7  and  N_8 
REMARK       I    between atoms: N_8  and  C_9 
REMARK    3  A    between atoms: C_9  and  C_10 
REMARK    4  A    between atoms: C_12  and  C_13 
ROOT
HETATM    1  N   UNL     1      43.258 -12.277   5.082  1.00  0.00    -0.323 N 
HETATM    2  C   UNL     1      43.851 -12.757   6.239  1.00  0.00     0.256 C 
HETATM    3  O   UNL     1      43.816 -13.911   6.646  1.00  0.00    -0.267 OA
HETATM    4  H   UNL     1      43.269 -11.276   4.942  1.00  0.00     0.169 HD
ENDROOT
BRANCH   2   5
HETATM    5  C   UNL     1      44.566 -11.739   7.063  1.00  0.00     0.033 A 
HETATM    6  C   UNL     1      43.972 -11.323   8.264  1.00  0.00     0.029 A 
HETATM    7  C   UNL     1      44.604 -10.383   9.090  1.00  0.00    -0.023 A 
HETATM    8  C   UNL     1      45.843  -9.862   8.691  1.00  0.00     0.012 A 
HETATM    9  C   UNL     1      46.447 -10.285   7.504  1.00  0.00     0.002 A 
HETATM   10  C   UNL     1      45.817 -11.229   6.693  1.00  0.00     0.017 A 
BRANCH   7  11
HETATM   11  C   UNL     1      44.001  -9.950  10.340  1.00  0.00    -0.002 A 
HETATM   12  C   UNL     1      43.634 -10.797  11.369  1.00  0.00     0.153 A 
HETATM   13  O   UNL     1      43.115 -10.098  12.411  1.00  0.00    -0.334 OA
HETATM   14  C   UNL     1      43.148  -8.787  12.061  1.00  0.00     0.142 A 
HETATM   15  C   UNL     1      43.687  -8.641  10.805  1.00  0.00     0.038 A 
ENDBRANCH   7  11
ENDBRANCH   2   5
BRANCH   1  16
HETATM   16  C   UNL     1      42.579 -13.028   4.099  1.00  0.00     0.041 A 
HETATM   17  C   UNL     1      43.206 -13.862   3.177  1.00  0.00     0.074 A 
HETATM   18  C   UNL     1      42.450 -14.555   2.229  1.00  0.00     0.155 A 
HETATM   19  C   UNL     1      41.059 -14.437   2.161  1.00  0.00     0.145 A 
HETATM   20  F   UNL     1      43.094 -15.349   1.359  1.00  0.00    -0.203 F 
HETATM   21  C   UNL     1      40.443 -13.603   3.090  1.00  0.00     0.155 A 
HETATM   22  C   UNL     1      41.187 -12.906   4.048  1.00  0.00     0.074 A 
HETATM   23  F   UNL     1      39.113 -13.429   3.105  1.00  0.00    -0.203 F 
BRANCH  19  24
HETATM   24  O   UNL     1      40.453 -15.168   1.176  1.00  0.00    -0.350 OA
HETATM   25  C   UNL     1      40.089 -14.485  -0.016  1.00  0.00     0.210 C 
ENDBRANCH  19  24
ENDBRANCH   1  16
TORSDOF 4
ENDMDL
