MODEL 1
REMARK VINA RESULT:      -8.6      0.000      0.000
REMARK  8 active torsions:
REMARK  status: ('A' for Active; 'I' for Inactive)
REMARK    1  A    between atoms: C_2  and  O_3 
REMARK    2  A    between atoms: O_3  and  C_4 
REMARK    3  A    between atoms: C_4  and  C_5 
REMARK    4  A    between atoms: C_6  and  O_7 
REMARK    5  A    between atoms: C_6  and  C_8 
REMARK    6  A    between atoms: C_16  and  C_17 
REMARK    7  A    between atoms: C_18  and  C_19 
REMARK    8  A    between atoms: N_26  and  C_27 
ROOT
HETATM    1  C   UNL     1      41.122 -12.448   1.648  1.00  0.00     0.177 C 
HETATM    2  C   UNL     1      39.644 -12.826   1.773  1.00  0.00     0.250 C 
HETATM    3  N   UNL     1      39.168 -13.597   0.641  1.00  0.00    -0.303 N 
HETATM    4  C   UNL     1      39.938 -14.351  -0.171  1.00  0.00     0.319 C 
HETATM    5  O   UNL     1      39.436 -15.073  -1.023  1.00  0.00    -0.247 OA
HETATM    6  N   UNL     1      41.277 -14.256  -0.021  1.00  0.00    -0.333 N 
HETATM    7  C   UNL     1      41.959 -13.594   1.077  1.00  0.00     0.142 C 
HETATM    8  H   UNL     1      38.173 -13.732   0.503  1.00  0.00     0.167 HD
HETATM    9  H   UNL     1      41.805 -14.894  -0.606  1.00  0.00     0.165 HD
ENDROOT
BRANCH   7  10
HETATM   10  C   UNL     1      42.363 -14.643   2.084  1.00  0.00     0.015 A 
HETATM   11  C   UNL     1      42.645 -14.520   3.486  1.00  0.00     0.097 A 
HETATM   12  N   UNL     1      42.982 -15.712   4.006  1.00  0.00    -0.167 NA
HETATM   13  N   UNL     1      42.951 -16.596   2.989  1.00  0.00    -0.244 N 
HETATM   14  C   UNL     1      42.596 -15.983   1.819  1.00  0.00     0.130 A 
BRANCH  11  15
HETATM   15  C   UNL     1      42.651 -13.342   4.371  1.00  0.00    -0.005 A 
HETATM   16  C   UNL     1      41.708 -13.148   5.386  1.00  0.00     0.014 A 
HETATM   17  C   UNL     1      41.761 -12.018   6.212  1.00  0.00     0.001 A 
HETATM   18  C   UNL     1      42.768 -11.072   6.044  1.00  0.00     0.000 A 
HETATM   19  C   UNL     1      43.725 -11.252   5.050  1.00  0.00     0.001 A 
HETATM   20  C   UNL     1      43.664 -12.376   4.223  1.00  0.00     0.014 A 
ENDBRANCH  11  15
BRANCH  13  21
HETATM   21  C   UNL     1      43.278 -17.967   3.192  1.00  0.00     0.058 A 
HETATM   22  C   UNL     1      43.838 -18.369   4.414  1.00  0.00     0.031 A 
HETATM   23  C   UNL     1      44.165 -19.710   4.631  1.00  0.00     0.002 A 
HETATM   24  C   UNL     1      43.940 -20.655   3.632  1.00  0.00     0.000 A 
HETATM   25  C   UNL     1      43.388 -20.262   2.413  1.00  0.00     0.002 A 
HETATM   26  C   UNL     1      43.054 -18.924   2.190  1.00  0.00     0.031 A 
ENDBRANCH  13  21
ENDBRANCH   7  10
BRANCH   1  27
HETATM   27  C   UNL     1      41.372 -11.218   0.806  1.00  0.00     0.270 C 
HETATM   28  O   UNL     1      41.841 -10.186   1.270  1.00  0.00    -0.265 OA
BRANCH  27  29
HETATM   29  O   UNL     1      41.081 -11.417  -0.503  1.00  0.00    -0.321 OA
BRANCH  29  30
HETATM   30  C   UNL     1      41.423 -10.360  -1.415  1.00  0.00     0.174 C 
HETATM   31  C   UNL     1      40.462 -10.331  -2.589  1.00  0.00     0.034 C 
ENDBRANCH  29  30
ENDBRANCH  27  29
ENDBRANCH   1  27
BRANCH   2  32
HETATM   32  O   UNL     1      39.515 -13.732   2.887  1.00  0.00    -0.363 OA
HETATM   33  H   UNL     1      40.148 -14.457   2.735  1.00  0.00     0.213 HD
ENDBRANCH   2  32
BRANCH   2  34
HETATM   34  C   UNL     1      38.753 -11.571   2.075  1.00  0.00     0.439 C 
HETATM   35  F   UNL     1      39.176 -10.909   3.174  1.00  0.00    -0.166 F 
HETATM   36  F   UNL     1      38.701 -10.692   1.056  1.00  0.00    -0.166 F 
HETATM   37  F   UNL     1      37.476 -11.975   2.313  1.00  0.00    -0.166 F 
ENDBRANCH   2  34
TORSDOF 8
ENDMDL
MODEL 2
REMARK VINA RESULT:      -8.5      2.361      5.785
REMARK  8 active torsions:
REMARK  status: ('A' for Active; 'I' for Inactive)
REMARK    1  A    between atoms: C_2  and  O_3 
REMARK    2  A    between atoms: O_3  and  C_4 
REMARK    3  A    between atoms: C_4  and  C_5 
REMARK    4  A    between atoms: C_6  and  O_7 
REMARK    5  A    between atoms: C_6  and  C_8 
REMARK    6  A    between atoms: C_16  and  C_17 
REMARK    7  A    between atoms: C_18  and  C_19 
REMARK    8  A    between atoms: N_26  and  C_27 
ROOT
HETATM    1  C   UNL     1      40.899 -12.204   1.395  1.00  0.00     0.177 C 
HETATM    2  C   UNL     1      41.141 -10.729   1.062  1.00  0.00     0.250 C 
HETATM    3  N   UNL     1      40.189  -9.849   1.712  1.00  0.00    -0.303 N 
HETATM    4  C   UNL     1      39.508 -10.130   2.842  1.00  0.00     0.319 C 
HETATM    5  O   UNL     1      38.822  -9.278   3.393  1.00  0.00    -0.247 OA
HETATM    6  N   UNL     1      39.593 -11.390   3.321  1.00  0.00    -0.333 N 
HETATM    7  C   UNL     1      40.525 -12.406   2.864  1.00  0.00     0.142 C 
HETATM    8  H   UNL     1      40.111  -8.883   1.417  1.00  0.00     0.167 HD
HETATM    9  H   UNL     1      39.121 -11.529   4.208  1.00  0.00     0.165 HD
ENDROOT
BRANCH   7  10
HETATM   10  C   UNL     1      41.697 -12.434   3.815  1.00  0.00     0.015 A 
HETATM   11  C   UNL     1      42.696 -13.444   4.022  1.00  0.00     0.097 A 
HETATM   12  N   UNL     1      43.557 -13.066   4.983  1.00  0.00    -0.167 NA
HETATM   13  N   UNL     1      43.137 -11.862   5.421  1.00  0.00    -0.244 N 
HETATM   14  C   UNL     1      42.015 -11.462   4.749  1.00  0.00     0.130 A 
BRANCH  11  15
HETATM   15  C   UNL     1      42.881 -14.764   3.396  1.00  0.00    -0.005 A 
HETATM   16  C   UNL     1      43.105 -14.931   2.025  1.00  0.00     0.014 A 
HETATM   17  C   UNL     1      43.288 -16.207   1.476  1.00  0.00     0.001 A 
HETATM   18  C   UNL     1      43.264 -17.334   2.293  1.00  0.00     0.000 A 
HETATM   19  C   UNL     1      43.057 -17.189   3.661  1.00  0.00     0.001 A 
HETATM   20  C   UNL     1      42.867 -15.916   4.204  1.00  0.00     0.014 A 
ENDBRANCH  11  15
BRANCH  13  21
HETATM   21  C   UNL     1      43.822 -11.176   6.464  1.00  0.00     0.058 A 
HETATM   22  C   UNL     1      45.207 -11.348   6.610  1.00  0.00     0.031 A 
HETATM   23  C   UNL     1      45.896 -10.683   7.627  1.00  0.00     0.002 A 
HETATM   24  C   UNL     1      45.209  -9.848   8.506  1.00  0.00     0.000 A 
HETATM   25  C   UNL     1      43.832  -9.675   8.370  1.00  0.00     0.002 A 
HETATM   26  C   UNL     1      43.137 -10.334   7.352  1.00  0.00     0.031 A 
ENDBRANCH  13  21
ENDBRANCH   7  10
BRANCH   1  27
HETATM   27  C   UNL     1      39.834 -12.858   0.545  1.00  0.00     0.270 C 
HETATM   28  O   UNL     1      38.708 -12.392   0.425  1.00  0.00    -0.265 OA
BRANCH  27  29
HETATM   29  O   UNL     1      40.290 -13.960  -0.101  1.00  0.00    -0.321 OA
BRANCH  29  30
HETATM   30  C   UNL     1      39.474 -14.476  -1.166  1.00  0.00     0.174 C 
HETATM   31  C   UNL     1      39.975 -13.986  -2.511  1.00  0.00     0.034 C 
ENDBRANCH  29  30
ENDBRANCH  27  29
ENDBRANCH   1  27
BRANCH   2  32
HETATM   32  O   UNL     1      42.408 -10.352   1.638  1.00  0.00    -0.363 OA
HETATM   33  H   UNL     1      42.224  -9.657   2.294  1.00  0.00     0.213 HD
ENDBRANCH   2  32
BRANCH   2  34
HETATM   34  C   UNL     1      41.231 -10.495  -0.485  1.00  0.00     0.439 C 
HETATM   35  F   UNL     1      41.701 -11.585  -1.129  1.00  0.00    -0.166 F 
HETATM   36  F   UNL     1      40.055 -10.157  -1.046  1.00  0.00    -0.166 F 
HETATM   37  F   UNL     1      42.095  -9.475  -0.734  1.00  0.00    -0.166 F 
ENDBRANCH   2  34
TORSDOF 8
ENDMDL
MODEL 3
REMARK VINA RESULT:      -8.2      2.915      4.947
REMARK  8 active torsions:
REMARK  status: ('A' for Active; 'I' for Inactive)
REMARK    1  A    between atoms: C_2  and  O_3 
REMARK    2  A    between atoms: O_3  and  C_4 
REMARK    3  A    between atoms: C_4  and  C_5 
REMARK    4  A    between atoms: C_6  and  O_7 
REMARK    5  A    between atoms: C_6  and  C_8 
REMARK    6  A    between atoms: C_16  and  C_17 
REMARK    7  A    between atoms: C_18  and  C_19 
REMARK    8  A    between atoms: N_26  and  C_27 
ROOT
HETATM    1  C   UNL     1      41.800 -12.620   4.377  1.00  0.00     0.177 C 
HETATM    2  C   UNL     1      42.454 -13.038   5.697  1.00  0.00     0.250 C 
HETATM    3  N   UNL     1      41.505 -13.610   6.632  1.00  0.00    -0.303 N 
HETATM    4  C   UNL     1      40.338 -14.199   6.300  1.00  0.00     0.319 C 
HETATM    5  O   UNL     1      39.658 -14.770   7.144  1.00  0.00    -0.247 OA
HETATM    6  N   UNL     1      39.940 -14.109   5.013  1.00  0.00    -0.333 N 
HETATM    7  C   UNL     1      40.757 -13.636   3.909  1.00  0.00     0.142 C 
HETATM    8  H   UNL     1      41.765 -13.735   7.603  1.00  0.00     0.167 HD
HETATM    9  H   UNL     1      39.095 -14.627   4.803  1.00  0.00     0.165 HD
ENDROOT
BRANCH   7  10
HETATM   10  C   UNL     1      41.324 -14.837   3.191  1.00  0.00     0.015 A 
HETATM   11  C   UNL     1      41.345 -15.153   1.791  1.00  0.00     0.097 A 
HETATM   12  N   UNL     1      41.943 -16.339   1.584  1.00  0.00    -0.167 NA
HETATM   13  N   UNL     1      42.286 -16.812   2.799  1.00  0.00    -0.244 N 
HETATM   14  C   UNL     1      41.915 -15.939   3.785  1.00  0.00     0.130 A 
BRANCH  11  15
HETATM   15  C   UNL     1      40.810 -14.425   0.627  1.00  0.00    -0.005 A 
HETATM   16  C   UNL     1      41.239 -13.142   0.269  1.00  0.00     0.014 A 
HETATM   17  C   UNL     1      40.710 -12.494  -0.854  1.00  0.00     0.001 A 
HETATM   18  C   UNL     1      39.754 -13.127  -1.646  1.00  0.00     0.000 A 
HETATM   19  C   UNL     1      39.325 -14.408  -1.317  1.00  0.00     0.001 A 
HETATM   20  C   UNL     1      39.849 -15.049  -0.190  1.00  0.00     0.014 A 
ENDBRANCH  11  15
BRANCH  13  21
HETATM   21  C   UNL     1      42.931 -18.073   2.945  1.00  0.00     0.058 A 
HETATM   22  C   UNL     1      42.772 -19.049   1.949  1.00  0.00     0.031 A 
HETATM   23  C   UNL     1      43.396 -20.292   2.076  1.00  0.00     0.002 A 
HETATM   24  C   UNL     1      44.178 -20.570   3.196  1.00  0.00     0.000 A 
HETATM   25  C   UNL     1      44.338 -19.608   4.191  1.00  0.00     0.002 A 
HETATM   26  C   UNL     1      43.719 -18.360   4.070  1.00  0.00     0.031 A 
ENDBRANCH  13  21
ENDBRANCH   7  10
BRANCH   1  27
HETATM   27  C   UNL     1      41.144 -11.259   4.421  1.00  0.00     0.270 C 
HETATM   28  O   UNL     1      40.123 -11.040   5.060  1.00  0.00    -0.265 OA
BRANCH  27  29
HETATM   29  O   UNL     1      41.844 -10.323   3.734  1.00  0.00    -0.321 OA
BRANCH  29  30
HETATM   30  C   UNL     1      41.953 -10.503   2.312  1.00  0.00     0.174 C 
HETATM   31  C   UNL     1      40.963  -9.616   1.581  1.00  0.00     0.034 C 
ENDBRANCH  29  30
ENDBRANCH  27  29
ENDBRANCH   1  27
BRANCH   2  32
HETATM   32  O   UNL     1      43.358 -14.125   5.414  1.00  0.00    -0.363 OA
HETATM   33  H   UNL     1      43.935 -13.831   4.686  1.00  0.00     0.213 HD
ENDBRANCH   2  32
BRANCH   2  34
HETATM   34  C   UNL     1      43.295 -11.869   6.318  1.00  0.00     0.439 C 
HETATM   35  F   UNL     1      44.076 -11.269   5.394  1.00  0.00    -0.166 F 
HETATM   36  F   UNL     1      42.543 -10.919   6.904  1.00  0.00    -0.166 F 
HETATM   37  F   UNL     1      44.117 -12.370   7.278  1.00  0.00    -0.166 F 
ENDBRANCH   2  34
TORSDOF 8
ENDMDL
MODEL 4
REMARK VINA RESULT:      -8.2      1.043      1.740
REMARK  8 active torsions:
REMARK  status: ('A' for Active; 'I' for Inactive)
REMARK    1  A    between atoms: C_2  and  O_3 
REMARK    2  A    between atoms: O_3  and  C_4 
REMARK    3  A    between atoms: C_4  and  C_5 
REMARK    4  A    between atoms: C_6  and  O_7 
REMARK    5  A    between atoms: C_6  and  C_8 
REMARK    6  A    between atoms: C_16  and  C_17 
REMARK    7  A    between atoms: C_18  and  C_19 
REMARK    8  A    between atoms: N_26  and  C_27 
ROOT
HETATM    1  C   UNL     1      40.449 -11.796   1.646  1.00  0.00     0.177 C 
HETATM    2  C   UNL     1      39.066 -12.394   1.370  1.00  0.00     0.250 C 
HETATM    3  N   UNL     1      39.002 -13.079   0.093  1.00  0.00    -0.303 N 
HETATM    4  C   UNL     1      40.054 -13.608  -0.565  1.00  0.00     0.319 C 
HETATM    5  O   UNL     1      39.891 -14.283  -1.574  1.00  0.00    -0.247 OA
HETATM    6  N   UNL     1      41.286 -13.342  -0.082  1.00  0.00    -0.333 N 
HETATM    7  C   UNL     1      41.575 -12.730   1.203  1.00  0.00     0.142 C 
HETATM    8  H   UNL     1      38.103 -13.337  -0.297  1.00  0.00     0.167 HD
HETATM    9  H   UNL     1      42.035 -13.820  -0.571  1.00  0.00     0.165 HD
ENDROOT
BRANCH   7  10
HETATM   10  C   UNL     1      41.908 -13.828   2.184  1.00  0.00     0.015 A 
HETATM   11  C   UNL     1      41.883 -13.824   3.620  1.00  0.00     0.097 A 
HETATM   12  N   UNL     1      42.267 -15.019   4.101  1.00  0.00    -0.167 NA
HETATM   13  N   UNL     1      42.562 -15.786   3.033  1.00  0.00    -0.244 N 
HETATM   14  C   UNL     1      42.370 -15.095   1.868  1.00  0.00     0.130 A 
BRANCH  11  15
HETATM   15  C   UNL     1      41.551 -12.757   4.578  1.00  0.00    -0.005 A 
HETATM   16  C   UNL     1      42.384 -11.657   4.812  1.00  0.00     0.014 A 
HETATM   17  C   UNL     1      42.020 -10.659   5.725  1.00  0.00     0.001 A 
HETATM   18  C   UNL     1      40.809 -10.739   6.408  1.00  0.00     0.000 A 
HETATM   19  C   UNL     1      39.958 -11.815   6.179  1.00  0.00     0.001 A 
HETATM   20  C   UNL     1      40.328 -12.814   5.274  1.00  0.00     0.014 A 
ENDBRANCH  11  15
BRANCH  13  21
HETATM   21  C   UNL     1      43.025 -17.123   3.189  1.00  0.00     0.058 A 
HETATM   22  C   UNL     1      42.804 -18.054   2.162  1.00  0.00     0.031 A 
HETATM   23  C   UNL     1      43.251 -19.370   2.298  1.00  0.00     0.002 A 
HETATM   24  C   UNL     1      43.917 -19.767   3.457  1.00  0.00     0.000 A 
HETATM   25  C   UNL     1      44.136 -18.849   4.483  1.00  0.00     0.002 A 
HETATM   26  C   UNL     1      43.695 -17.529   4.353  1.00  0.00     0.031 A 
ENDBRANCH  13  21
ENDBRANCH   7  10
BRANCH   1  27
HETATM   27  C   UNL     1      40.675 -10.448   1.001  1.00  0.00     0.270 C 
HETATM   28  O   UNL     1      40.788  -9.417   1.652  1.00  0.00    -0.265 OA
BRANCH  27  29
HETATM   29  O   UNL     1      40.797 -10.531  -0.347  1.00  0.00    -0.321 OA
BRANCH  29  30
HETATM   30  C   UNL     1      41.762  -9.667  -0.968  1.00  0.00     0.174 C 
HETATM   31  C   UNL     1      41.178  -9.011  -2.205  1.00  0.00     0.034 C 
ENDBRANCH  29  30
ENDBRANCH  27  29
ENDBRANCH   1  27
BRANCH   2  32
HETATM   32  O   UNL     1      38.840 -13.441   2.335  1.00  0.00    -0.363 OA
HETATM   33  H   UNL     1      38.311 -13.052   3.054  1.00  0.00     0.213 HD
ENDBRANCH   2  32
BRANCH   2  34
HETATM   34  C   UNL     1      37.931 -11.327   1.549  1.00  0.00     0.439 C 
HETATM   35  F   UNL     1      37.957 -10.400   0.568  1.00  0.00    -0.166 F 
HETATM   36  F   UNL     1      36.695 -11.861   1.583  1.00  0.00    -0.166 F 
HETATM   37  F   UNL     1      38.112 -10.675   2.727  1.00  0.00    -0.166 F 
ENDBRANCH   2  34
TORSDOF 8
ENDMDL
MODEL 5
REMARK VINA RESULT:      -8.1      3.200      6.901
REMARK  8 active torsions:
REMARK  status: ('A' for Active; 'I' for Inactive)
REMARK    1  A    between atoms: C_2  and  O_3 
REMARK    2  A    between atoms: O_3  and  C_4 
REMARK    3  A    between atoms: C_4  and  C_5 
REMARK    4  A    between atoms: C_6  and  O_7 
REMARK    5  A    between atoms: C_6  and  C_8 
REMARK    6  A    between atoms: C_16  and  C_17 
REMARK    7  A    between atoms: C_18  and  C_19 
REMARK    8  A    between atoms: N_26  and  C_27 
ROOT
HETATM    1  C   UNL     1      41.644 -14.595   3.669  1.00  0.00     0.177 C 
HETATM    2  C   UNL     1      42.318 -15.545   2.676  1.00  0.00     0.250 C 
HETATM    3  N   UNL     1      41.376 -16.136   1.744  1.00  0.00    -0.303 N 
HETATM    4  C   UNL     1      40.187 -15.606   1.392  1.00  0.00     0.319 C 
HETATM    5  O   UNL     1      39.513 -16.107   0.501  1.00  0.00    -0.247 OA
HETATM    6  N   UNL     1      39.763 -14.522   2.077  1.00  0.00    -0.333 N 
HETATM    7  C   UNL     1      40.565 -13.741   3.002  1.00  0.00     0.142 C 
HETATM    8  H   UNL     1      41.656 -16.928   1.177  1.00  0.00     0.167 HD
HETATM    9  H   UNL     1      38.900 -14.123   1.727  1.00  0.00     0.165 HD
ENDROOT
BRANCH   7  10
HETATM   10  C   UNL     1      41.085 -12.528   2.268  1.00  0.00     0.015 A 
HETATM   11  C   UNL     1      41.947 -11.473   2.719  1.00  0.00     0.097 A 
HETATM   12  N   UNL     1      42.150 -10.576   1.738  1.00  0.00    -0.167 NA
HETATM   13  N   UNL     1      41.431 -11.000   0.679  1.00  0.00    -0.244 N 
HETATM   14  C   UNL     1      40.770 -12.161   0.970  1.00  0.00     0.130 A 
BRANCH  11  15
HETATM   15  C   UNL     1      42.574 -11.231   4.030  1.00  0.00    -0.005 A 
HETATM   16  C   UNL     1      41.910 -10.599   5.087  1.00  0.00     0.014 A 
HETATM   17  C   UNL     1      42.543 -10.401   6.320  1.00  0.00     0.001 A 
HETATM   18  C   UNL     1      43.847 -10.846   6.520  1.00  0.00     0.000 A 
HETATM   19  C   UNL     1      44.522 -11.490   5.488  1.00  0.00     0.001 A 
HETATM   20  C   UNL     1      43.890 -11.678   4.256  1.00  0.00     0.014 A 
ENDBRANCH  11  15
BRANCH  13  21
HETATM   21  C   UNL     1      41.407 -10.262  -0.538  1.00  0.00     0.058 A 
HETATM   22  C   UNL     1      40.781 -10.814  -1.667  1.00  0.00     0.031 A 
HETATM   23  C   UNL     1      40.748 -10.105  -2.870  1.00  0.00     0.002 A 
HETATM   24  C   UNL     1      41.340  -8.846  -2.956  1.00  0.00     0.000 A 
HETATM   25  C   UNL     1      41.967  -8.293  -1.841  1.00  0.00     0.002 A 
HETATM   26  C   UNL     1      42.001  -8.994  -0.633  1.00  0.00     0.031 A 
ENDBRANCH  13  21
ENDBRANCH   7  10
BRANCH   1  27
HETATM   27  C   UNL     1      41.025 -15.289   4.860  1.00  0.00     0.270 C 
HETATM   28  O   UNL     1      40.173 -16.162   4.744  1.00  0.00    -0.265 OA
BRANCH  27  29
HETATM   29  O   UNL     1      41.562 -14.881   6.036  1.00  0.00    -0.321 OA
BRANCH  29  30
HETATM   30  C   UNL     1      41.799 -15.892   7.030  1.00  0.00     0.174 C 
HETATM   31  C   UNL     1      43.091 -15.617   7.777  1.00  0.00     0.034 C 
ENDBRANCH  29  30
ENDBRANCH  27  29
ENDBRANCH   1  27
BRANCH   2  32
HETATM   32  O   UNL     1      43.187 -14.758   1.835  1.00  0.00    -0.363 OA
HETATM   33  H   UNL     1      42.871 -14.868   0.921  1.00  0.00     0.213 HD
ENDBRANCH   2  32
BRANCH   2  34
HETATM   34  C   UNL     1      43.203 -16.612   3.409  1.00  0.00     0.439 C 
HETATM   35  F   UNL     1      43.969 -16.052   4.369  1.00  0.00    -0.166 F 
HETATM   36  F   UNL     1      42.489 -17.604   3.975  1.00  0.00    -0.166 F 
HETATM   37  F   UNL     1      44.041 -17.193   2.510  1.00  0.00    -0.166 F 
ENDBRANCH   2  34
TORSDOF 8
ENDMDL
MODEL 6
REMARK VINA RESULT:      -8.1      2.712      3.708
REMARK  8 active torsions:
REMARK  status: ('A' for Active; 'I' for Inactive)
REMARK    1  A    between atoms: C_2  and  O_3 
REMARK    2  A    between atoms: O_3  and  C_4 
REMARK    3  A    between atoms: C_4  and  C_5 
REMARK    4  A    between atoms: C_6  and  O_7 
REMARK    5  A    between atoms: C_6  and  C_8 
REMARK    6  A    between atoms: C_16  and  C_17 
REMARK    7  A    between atoms: C_18  and  C_19 
REMARK    8  A    between atoms: N_26  and  C_27 
ROOT
HETATM    1  C   UNL     1      41.363 -11.360   5.181  1.00  0.00     0.177 C 
HETATM    2  C   UNL     1      39.966 -11.859   5.558  1.00  0.00     0.250 C 
HETATM    3  N   UNL     1      39.280 -12.488   4.446  1.00  0.00    -0.303 N 
HETATM    4  C   UNL     1      39.879 -13.056   3.378  1.00  0.00     0.319 C 
HETATM    5  O   UNL     1      39.228 -13.679   2.549  1.00  0.00    -0.247 OA
HETATM    6  N   UNL     1      41.212 -12.886   3.250  1.00  0.00    -0.333 N 
HETATM    7  C   UNL     1      42.095 -12.345   4.268  1.00  0.00     0.142 C 
HETATM    8  H   UNL     1      38.286 -12.674   4.505  1.00  0.00     0.167 HD
HETATM    9  H   UNL     1      41.621 -13.391   2.472  1.00  0.00     0.165 HD
ENDROOT
BRANCH   7  10
HETATM   10  C   UNL     1      42.754 -13.499   4.985  1.00  0.00     0.015 A 
HETATM   11  C   UNL     1      43.682 -13.499   6.080  1.00  0.00     0.097 A 
HETATM   12  N   UNL     1      44.029 -14.757   6.404  1.00  0.00    -0.167 NA
HETATM   13  N   UNL     1      43.380 -15.567   5.544  1.00  0.00    -0.244 N 
HETATM   14  C   UNL     1      42.617 -14.841   4.671  1.00  0.00     0.130 A 
BRANCH  11  15
HETATM   15  C   UNL     1      44.294 -12.389   6.829  1.00  0.00    -0.005 A 
HETATM   16  C   UNL     1      45.506 -11.796   6.456  1.00  0.00     0.014 A 
HETATM   17  C   UNL     1      46.044 -10.733   7.192  1.00  0.00     0.001 A 
HETATM   18  C   UNL     1      45.370 -10.237   8.306  1.00  0.00     0.000 A 
HETATM   19  C   UNL     1      44.157 -10.802   8.685  1.00  0.00     0.001 A 
HETATM   20  C   UNL     1      43.627 -11.868   7.953  1.00  0.00     0.014 A 
ENDBRANCH  11  15
BRANCH  13  21
HETATM   21  C   UNL     1      43.540 -16.980   5.597  1.00  0.00     0.058 A 
HETATM   22  C   UNL     1      44.009 -17.665   4.466  1.00  0.00     0.031 A 
HETATM   23  C   UNL     1      44.171 -19.052   4.500  1.00  0.00     0.002 A 
HETATM   24  C   UNL     1      43.865 -19.764   5.658  1.00  0.00     0.000 A 
HETATM   25  C   UNL     1      43.395 -19.091   6.785  1.00  0.00     0.002 A 
HETATM   26  C   UNL     1      43.233 -17.703   6.760  1.00  0.00     0.031 A 
ENDBRANCH  13  21
ENDBRANCH   7  10
BRANCH   1  27
HETATM   27  C   UNL     1      41.371 -10.005   4.512  1.00  0.00     0.270 C 
HETATM   28  O   UNL     1      41.659  -8.976   5.112  1.00  0.00    -0.265 OA
BRANCH  27  29
HETATM   29  O   UNL     1      41.090 -10.077   3.188  1.00  0.00    -0.321 OA
BRANCH  29  30
HETATM   30  C   UNL     1      40.250  -9.046   2.642  1.00  0.00     0.174 C 
HETATM   31  C   UNL     1      38.950  -9.631   2.125  1.00  0.00     0.034 C 
ENDBRANCH  29  30
ENDBRANCH  27  29
ENDBRANCH   1  27
BRANCH   2  32
HETATM   32  O   UNL     1      40.124 -12.927   6.514  1.00  0.00    -0.363 OA
HETATM   33  H   UNL     1      41.081 -13.033   6.663  1.00  0.00     0.213 HD
ENDBRANCH   2  32
BRANCH   2  34
HETATM   34  C   UNL     1      39.116 -10.731   6.240  1.00  0.00     0.439 C 
HETATM   35  F   UNL     1      39.805 -10.110   7.221  1.00  0.00    -0.166 F 
HETATM   36  F   UNL     1      38.682  -9.792   5.379  1.00  0.00    -0.166 F 
HETATM   37  F   UNL     1      38.012 -11.284   6.809  1.00  0.00    -0.166 F 
ENDBRANCH   2  34
TORSDOF 8
ENDMDL
MODEL 7
REMARK VINA RESULT:      -7.9      2.458      4.693
REMARK  8 active torsions:
REMARK  status: ('A' for Active; 'I' for Inactive)
REMARK    1  A    between atoms: C_2  and  O_3 
REMARK    2  A    between atoms: O_3  and  C_4 
REMARK    3  A    between atoms: C_4  and  C_5 
REMARK    4  A    between atoms: C_6  and  O_7 
REMARK    5  A    between atoms: C_6  and  C_8 
REMARK    6  A    between atoms: C_16  and  C_17 
REMARK    7  A    between atoms: C_18  and  C_19 
REMARK    8  A    between atoms: N_26  and  C_27 
ROOT
HETATM    1  C   UNL     1      39.966 -11.544   2.634  1.00  0.00     0.177 C 
HETATM    2  C   UNL     1      40.905 -11.070   3.746  1.00  0.00     0.250 C 
HETATM    3  N   UNL     1      40.450 -11.466   5.065  1.00  0.00    -0.303 N 
HETATM    4  C   UNL     1      39.644 -12.514   5.332  1.00  0.00     0.319 C 
HETATM    5  O   UNL     1      39.415 -12.854   6.487  1.00  0.00    -0.247 OA
HETATM    6  N   UNL     1      39.084 -13.152   4.282  1.00  0.00    -0.333 N 
HETATM    7  C   UNL     1      39.445 -12.959   2.888  1.00  0.00     0.142 C 
HETATM    8  H   UNL     1      40.864 -11.046   5.889  1.00  0.00     0.167 HD
HETATM    9  H   UNL     1      38.546 -13.972   4.535  1.00  0.00     0.165 HD
ENDROOT
BRANCH   7  10
HETATM   10  C   UNL     1      40.395 -14.063   2.489  1.00  0.00     0.015 A 
HETATM   11  C   UNL     1      40.786 -14.520   1.186  1.00  0.00     0.097 A 
HETATM   12  N   UNL     1      41.651 -15.544   1.285  1.00  0.00    -0.167 NA
HETATM   13  N   UNL     1      41.815 -15.780   2.602  1.00  0.00    -0.244 N 
HETATM   14  C   UNL     1      41.063 -14.916   3.351  1.00  0.00     0.130 A 
BRANCH  11  15
HETATM   15  C   UNL     1      40.374 -14.078  -0.158  1.00  0.00    -0.005 A 
HETATM   16  C   UNL     1      40.792 -12.868  -0.722  1.00  0.00     0.014 A 
HETATM   17  C   UNL     1      40.385 -12.496  -2.010  1.00  0.00     0.001 A 
HETATM   18  C   UNL     1      39.564 -13.336  -2.758  1.00  0.00     0.000 A 
HETATM   19  C   UNL     1      39.149 -14.550  -2.222  1.00  0.00     0.001 A 
HETATM   20  C   UNL     1      39.551 -14.915  -0.934  1.00  0.00     0.014 A 
ENDBRANCH  11  15
BRANCH  13  21
HETATM   21  C   UNL     1      42.665 -16.825   3.065  1.00  0.00     0.058 A 
HETATM   22  C   UNL     1      42.864 -17.959   2.262  1.00  0.00     0.031 A 
HETATM   23  C   UNL     1      43.694 -18.994   2.700  1.00  0.00     0.002 A 
HETATM   24  C   UNL     1      44.325 -18.907   3.939  1.00  0.00     0.000 A 
HETATM   25  C   UNL     1      44.129 -17.786   4.744  1.00  0.00     0.002 A 
HETATM   26  C   UNL     1      43.303 -16.744   4.311  1.00  0.00     0.031 A 
ENDBRANCH  13  21
ENDBRANCH   7  10
BRANCH   1  27
HETATM   27  C   UNL     1      38.776 -10.639   2.407  1.00  0.00     0.270 C 
HETATM   28  O   UNL     1      37.975 -10.370   3.293  1.00  0.00    -0.265 OA
BRANCH  27  29
HETATM   29  O   UNL     1      38.746 -10.126   1.152  1.00  0.00    -0.321 OA
BRANCH  29  30
HETATM   30  C   UNL     1      38.124  -8.841   0.989  1.00  0.00     0.174 C 
HETATM   31  C   UNL     1      39.075  -7.865   0.321  1.00  0.00     0.034 C 
ENDBRANCH  29  30
ENDBRANCH  27  29
ENDBRANCH   1  27
BRANCH   2  32
HETATM   32  O   UNL     1      42.158 -11.768   3.589  1.00  0.00    -0.363 OA
HETATM   33  H   UNL     1      42.863 -11.101   3.662  1.00  0.00     0.213 HD
ENDBRANCH   2  32
BRANCH   2  34
HETATM   34  C   UNL     1      41.199  -9.534   3.636  1.00  0.00     0.439 C 
HETATM   35  F   UNL     1      40.155  -8.793   4.067  1.00  0.00    -0.166 F 
HETATM   36  F   UNL     1      42.293  -9.147   4.320  1.00  0.00    -0.166 F 
HETATM   37  F   UNL     1      41.414  -9.211   2.333  1.00  0.00    -0.166 F 
ENDBRANCH   2  34
TORSDOF 8
ENDMDL
MODEL 8
REMARK VINA RESULT:      -7.7      3.295      5.070
REMARK  8 active torsions:
REMARK  status: ('A' for Active; 'I' for Inactive)
REMARK    1  A    between atoms: C_2  and  O_3 
REMARK    2  A    between atoms: O_3  and  C_4 
REMARK    3  A    between atoms: C_4  and  C_5 
REMARK    4  A    between atoms: C_6  and  O_7 
REMARK    5  A    between atoms: C_6  and  C_8 
REMARK    6  A    between atoms: C_16  and  C_17 
REMARK    7  A    between atoms: C_18  and  C_19 
REMARK    8  A    between atoms: N_26  and  C_27 
ROOT
HETATM    1  C   UNL     1      41.463  -9.903   5.717  1.00  0.00     0.177 C 
HETATM    2  C   UNL     1      40.092 -10.511   5.410  1.00  0.00     0.250 C 
HETATM    3  N   UNL     1      39.945 -10.875   4.014  1.00  0.00    -0.303 N 
HETATM    4  C   UNL     1      40.957 -11.159   3.169  1.00  0.00     0.319 C 
HETATM    5  O   UNL     1      40.737 -11.583   2.041  1.00  0.00    -0.247 OA
HETATM    6  N   UNL     1      42.215 -10.931   3.606  1.00  0.00    -0.333 N 
HETATM    7  C   UNL     1      42.589 -10.625   4.976  1.00  0.00     0.142 C 
HETATM    8  H   UNL     1      39.028 -11.093   3.643  1.00  0.00     0.167 HD
HETATM    9  H   UNL     1      42.937 -11.226   2.960  1.00  0.00     0.165 HD
ENDROOT
BRANCH   7  10
HETATM   10  C   UNL     1      43.061 -11.900   5.632  1.00  0.00     0.015 A 
HETATM   11  C   UNL     1      43.862 -12.093   6.808  1.00  0.00     0.097 A 
HETATM   12  N   UNL     1      44.059 -13.403   7.035  1.00  0.00    -0.167 NA
HETATM   13  N   UNL     1      43.437 -14.062   6.037  1.00  0.00    -0.244 N 
HETATM   14  C   UNL     1      42.840 -13.187   5.171  1.00  0.00     0.130 A 
BRANCH  11  15
HETATM   15  C   UNL     1      44.485 -11.122   7.724  1.00  0.00    -0.005 A 
HETATM   16  C   UNL     1      44.086 -10.966   9.056  1.00  0.00     0.014 A 
HETATM   17  C   UNL     1      44.718 -10.038   9.893  1.00  0.00     0.001 A 
HETATM   18  C   UNL     1      45.769  -9.261   9.414  1.00  0.00     0.000 A 
HETATM   19  C   UNL     1      46.192  -9.410   8.098  1.00  0.00     0.001 A 
HETATM   20  C   UNL     1      45.555 -10.331   7.262  1.00  0.00     0.014 A 
ENDBRANCH  11  15
BRANCH  13  21
HETATM   21  C   UNL     1      43.465 -15.483   5.961  1.00  0.00     0.058 A 
HETATM   22  C   UNL     1      43.481 -16.238   7.144  1.00  0.00     0.031 A 
HETATM   23  C   UNL     1      43.508 -17.633   7.089  1.00  0.00     0.002 A 
HETATM   24  C   UNL     1      43.523 -18.284   5.857  1.00  0.00     0.000 A 
HETATM   25  C   UNL     1      43.512 -17.542   4.677  1.00  0.00     0.002 A 
HETATM   26  C   UNL     1      43.481 -16.145   4.724  1.00  0.00     0.031 A 
ENDBRANCH  13  21
ENDBRANCH   7  10
BRANCH   1  27
HETATM   27  C   UNL     1      41.565  -8.428   5.405  1.00  0.00     0.270 C 
HETATM   28  O   UNL     1      41.529  -7.993   4.261  1.00  0.00    -0.265 OA
BRANCH  27  29
HETATM   29  O   UNL     1      41.634  -7.664   6.523  1.00  0.00    -0.321 OA
BRANCH  29  30
HETATM   30  C   UNL     1      42.419  -8.174   7.614  1.00  0.00     0.174 C 
HETATM   31  C   UNL     1      42.839  -7.052   8.544  1.00  0.00     0.034 C 
ENDBRANCH  29  30
ENDBRANCH  27  29
ENDBRANCH   1  27
BRANCH   2  32
HETATM   32  O   UNL     1      40.005 -11.771   6.106  1.00  0.00    -0.363 OA
HETATM   33  H   UNL     1      40.914 -12.027   6.343  1.00  0.00     0.213 HD
ENDBRANCH   2  32
BRANCH   2  34
HETATM   34  C   UNL     1      38.928  -9.599   5.930  1.00  0.00     0.439 C 
HETATM   35  F   UNL     1      39.139  -9.192   7.200  1.00  0.00    -0.166 F 
HETATM   36  F   UNL     1      38.726  -8.504   5.172  1.00  0.00    -0.166 F 
HETATM   37  F   UNL     1      37.766 -10.305   5.919  1.00  0.00    -0.166 F 
ENDBRANCH   2  34
TORSDOF 8
ENDMDL
MODEL 9
REMARK VINA RESULT:      -7.6     16.159     18.080
REMARK  8 active torsions:
REMARK  status: ('A' for Active; 'I' for Inactive)
REMARK    1  A    between atoms: C_2  and  O_3 
REMARK    2  A    between atoms: O_3  and  C_4 
REMARK    3  A    between atoms: C_4  and  C_5 
REMARK    4  A    between atoms: C_6  and  O_7 
REMARK    5  A    between atoms: C_6  and  C_8 
REMARK    6  A    between atoms: C_16  and  C_17 
REMARK    7  A    between atoms: C_18  and  C_19 
REMARK    8  A    between atoms: N_26  and  C_27 
ROOT
HETATM    1  C   UNL     1      47.756 -30.709   1.831  1.00  0.00     0.177 C 
HETATM    2  C   UNL     1      47.889 -29.236   2.227  1.00  0.00     0.250 C 
HETATM    3  N   UNL     1      48.162 -28.377   1.091  1.00  0.00    -0.303 N 
HETATM    4  C   UNL     1      47.849 -28.654  -0.192  1.00  0.00     0.319 C 
HETATM    5  O   UNL     1      47.999 -27.815  -1.072  1.00  0.00    -0.247 OA
HETATM    6  N   UNL     1      47.391 -29.894  -0.466  1.00  0.00    -0.333 N 
HETATM    7  C   UNL     1      46.990 -30.883   0.519  1.00  0.00     0.142 C 
HETATM    8  H   UNL     1      48.473 -27.424   1.241  1.00  0.00     0.167 HD
HETATM    9  H   UNL     1      47.104 -30.026  -1.429  1.00  0.00     0.165 HD
ENDROOT
BRANCH   7  10
HETATM   10  C   UNL     1      45.488 -30.834   0.655  1.00  0.00     0.015 A 
HETATM   11  C   UNL     1      44.487 -30.436  -0.294  1.00  0.00     0.097 A 
HETATM   12  N   UNL     1      43.259 -30.533   0.246  1.00  0.00    -0.167 NA
HETATM   13  N   UNL     1      43.432 -30.956   1.514  1.00  0.00    -0.244 N 
HETATM   14  C   UNL     1      44.760 -31.133   1.794  1.00  0.00     0.130 A 
BRANCH  11  15
HETATM   15  C   UNL     1      44.606 -29.935  -1.674  1.00  0.00    -0.005 A 
HETATM   16  C   UNL     1      44.762 -28.579  -1.981  1.00  0.00     0.014 A 
HETATM   17  C   UNL     1      44.885 -28.151  -3.309  1.00  0.00     0.001 A 
HETATM   18  C   UNL     1      44.868 -29.076  -4.350  1.00  0.00     0.000 A 
HETATM   19  C   UNL     1      44.729 -30.430  -4.067  1.00  0.00     0.001 A 
HETATM   20  C   UNL     1      44.599 -30.853  -2.741  1.00  0.00     0.014 A 
ENDBRANCH  11  15
BRANCH  13  21
HETATM   21  C   UNL     1      42.323 -31.150   2.386  1.00  0.00     0.058 A 
HETATM   22  C   UNL     1      42.272 -30.454   3.603  1.00  0.00     0.031 A 
HETATM   23  C   UNL     1      41.192 -30.632   4.471  1.00  0.00     0.002 A 
HETATM   24  C   UNL     1      40.159 -31.505   4.132  1.00  0.00     0.000 A 
HETATM   25  C   UNL     1      40.205 -32.202   2.926  1.00  0.00     0.002 A 
HETATM   26  C   UNL     1      41.280 -32.027   2.051  1.00  0.00     0.031 A 
ENDBRANCH  13  21
ENDBRANCH   7  10
BRANCH   1  27
HETATM   27  C   UNL     1      49.077 -31.432   1.704  1.00  0.00     0.270 C 
HETATM   28  O   UNL     1      49.435 -32.295   2.496  1.00  0.00    -0.265 OA
BRANCH  27  29
HETATM   29  O   UNL     1      49.767 -31.062   0.597  1.00  0.00    -0.321 OA
BRANCH  29  30
HETATM   30  C   UNL     1      51.175 -31.352   0.579  1.00  0.00     0.174 C 
HETATM   31  C   UNL     1      51.659 -31.575  -0.841  1.00  0.00     0.034 C 
ENDBRANCH  29  30
ENDBRANCH  27  29
ENDBRANCH   1  27
BRANCH   2  32
HETATM   32  O   UNL     1      46.600 -28.790   2.695  1.00  0.00    -0.363 OA
HETATM   33  H   UNL     1      45.998 -29.553   2.636  1.00  0.00     0.213 HD
ENDBRANCH   2  32
BRANCH   2  34
HETATM   34  C   UNL     1      48.914 -29.044   3.398  1.00  0.00     0.439 C 
HETATM   35  F   UNL     1      48.603 -29.812   4.465  1.00  0.00    -0.166 F 
HETATM   36  F   UNL     1      50.186 -29.316   3.048  1.00  0.00    -0.166 F 
HETATM   37  F   UNL     1      48.887 -27.749   3.810  1.00  0.00    -0.166 F 
ENDBRANCH   2  34
TORSDOF 8
ENDMDL
MODEL 10
REMARK VINA RESULT:      -7.4      3.631      8.074
REMARK  8 active torsions:
REMARK  status: ('A' for Active; 'I' for Inactive)
REMARK    1  A    between atoms: C_2  and  O_3 
REMARK    2  A    between atoms: O_3  and  C_4 
REMARK    3  A    between atoms: C_4  and  C_5 
REMARK    4  A    between atoms: C_6  and  O_7 
REMARK    5  A    between atoms: C_6  and  C_8 
REMARK    6  A    between atoms: C_16  and  C_17 
REMARK    7  A    between atoms: C_18  and  C_19 
REMARK    8  A    between atoms: N_26  and  C_27 
ROOT
HETATM    1  C   UNL     1      41.081 -14.524   4.347  1.00  0.00     0.177 C 
HETATM    2  C   UNL     1      40.743 -14.483   5.839  1.00  0.00     0.250 C 
HETATM    3  N   UNL     1      41.730 -13.757   6.614  1.00  0.00    -0.303 N 
HETATM    4  C   UNL     1      42.553 -12.802   6.134  1.00  0.00     0.319 C 
HETATM    5  O   UNL     1      43.266 -12.148   6.885  1.00  0.00    -0.247 OA
HETATM    6  N   UNL     1      42.576 -12.617   4.796  1.00  0.00    -0.333 N 
HETATM    7  C   UNL     1      41.636 -13.190   3.849  1.00  0.00     0.142 C 
HETATM    8  H   UNL     1      41.734 -13.830   7.625  1.00  0.00     0.167 HD
HETATM    9  H   UNL     1      43.156 -11.842   4.496  1.00  0.00     0.165 HD
ENDROOT
BRANCH   7  10
HETATM   10  C   UNL     1      40.589 -12.149   3.533  1.00  0.00     0.015 A 
HETATM   11  C   UNL     1      39.738 -12.012   2.386  1.00  0.00     0.097 A 
HETATM   12  N   UNL     1      38.954 -10.926   2.506  1.00  0.00    -0.167 NA
HETATM   13  N   UNL     1      39.285 -10.344   3.676  1.00  0.00    -0.244 N 
HETATM   14  C   UNL     1      40.273 -11.046   4.310  1.00  0.00     0.130 A 
BRANCH  11  15
HETATM   15  C   UNL     1      39.631 -12.820   1.159  1.00  0.00    -0.005 A 
HETATM   16  C   UNL     1      39.205 -12.292  -0.065  1.00  0.00     0.014 A 
HETATM   17  C   UNL     1      39.132 -13.097  -1.210  1.00  0.00     0.001 A 
HETATM   18  C   UNL     1      39.496 -14.439  -1.149  1.00  0.00     0.000 A 
HETATM   19  C   UNL     1      39.936 -14.981   0.053  1.00  0.00     0.001 A 
HETATM   20  C   UNL     1      40.001 -14.177   1.195  1.00  0.00     0.014 A 
ENDBRANCH  11  15
BRANCH  13  21
HETATM   21  C   UNL     1      38.650  -9.145   4.110  1.00  0.00     0.058 A 
HETATM   22  C   UNL     1      38.830  -8.708   5.431  1.00  0.00     0.031 A 
HETATM   23  C   UNL     1      38.215  -7.535   5.874  1.00  0.00     0.002 A 
HETATM   24  C   UNL     1      37.415  -6.794   5.005  1.00  0.00     0.000 A 
HETATM   25  C   UNL     1      37.228  -7.224   3.693  1.00  0.00     0.002 A 
HETATM   26  C   UNL     1      37.844  -8.395   3.241  1.00  0.00     0.031 A 
ENDBRANCH  13  21
ENDBRANCH   7  10
BRANCH   1  27
HETATM   27  C   UNL     1      42.060 -15.612   3.969  1.00  0.00     0.270 C 
HETATM   28  O   UNL     1      41.786 -16.497   3.168  1.00  0.00    -0.265 OA
BRANCH  27  29
HETATM   29  O   UNL     1      43.269 -15.451   4.562  1.00  0.00    -0.321 OA
BRANCH  29  30
HETATM   30  C   UNL     1      43.938 -16.641   5.011  1.00  0.00     0.174 C 
HETATM   31  C   UNL     1      44.687 -16.381   6.305  1.00  0.00     0.034 C 
ENDBRANCH  29  30
ENDBRANCH  27  29
ENDBRANCH   1  27
BRANCH   2  32
HETATM   32  O   UNL     1      39.540 -13.703   5.996  1.00  0.00    -0.363 OA
HETATM   33  H   UNL     1      39.715 -12.832   5.599  1.00  0.00     0.213 HD
ENDBRANCH   2  32
BRANCH   2  34
HETATM   34  C   UNL     1      40.457 -15.918   6.405  1.00  0.00     0.439 C 
HETATM   35  F   UNL     1      40.087 -16.775   5.430  1.00  0.00    -0.166 F 
HETATM   36  F   UNL     1      41.506 -16.456   7.055  1.00  0.00    -0.166 F 
HETATM   37  F   UNL     1      39.432 -15.852   7.296  1.00  0.00    -0.166 F 
ENDBRANCH   2  34
TORSDOF 8
ENDMDL
