MODEL 1
REMARK VINA RESULT:      -8.0      0.000      0.000
REMARK  5 active torsions:
REMARK  status: ('A' for Active; 'I' for Inactive)
REMARK    1  A    between atoms: C_4  and  S_5 
REMARK    2  A    between atoms: S_5  and  C_6 
REMARK    3  A    between atoms: C_6  and  C_7 
REMARK       I    between atoms: C_7  and  N_8 
REMARK    4  A    between atoms: N_8  and  C_9 
REMARK    5  A    between atoms: C_11  and  C_12 
ROOT
HETATM    1  C   UNL     1      42.958 -15.608   3.200  1.00  0.00     0.035 A 
HETATM    2  C   UNL     1      43.165 -16.974   2.983  1.00  0.00     0.042 A 
HETATM    3  C   UNL     1      43.558 -17.830   4.027  1.00  0.00    -0.021 A 
HETATM    4  C   UNL     1      43.737 -17.289   5.306  1.00  0.00     0.012 A 
HETATM    5  C   UNL     1      43.524 -15.930   5.538  1.00  0.00     0.003 A 
HETATM    6  C   UNL     1      43.136 -15.095   4.489  1.00  0.00     0.029 A 
ENDROOT
BRANCH   1   7
HETATM    7  N   UNL     1      42.574 -14.700   2.192  1.00  0.00    -0.327 N 
HETATM    8  C   UNL     1      41.295 -14.399   1.763  1.00  0.00     0.231 C 
HETATM    9  O   UNL     1      40.256 -14.877   2.214  1.00  0.00    -0.272 OA
HETATM   10  H   UNL     1      43.323 -14.269   1.659  1.00  0.00     0.169 HD
BRANCH   8  11
HETATM   11  C   UNL     1      41.215 -13.317   0.693  1.00  0.00     0.182 C 
BRANCH  11  12
HETATM   12  S   UNL     1      39.596 -12.474   0.642  1.00  0.00    -0.121 SA
BRANCH  12  13
HETATM   13  C   UNL     1      38.964 -13.187  -0.866  1.00  0.00     0.001 A 
HETATM   14  C   UNL     1      39.570 -14.327  -1.401  1.00  0.00     0.018 A 
HETATM   15  C   UNL     1      39.088 -14.887  -2.587  1.00  0.00     0.001 A 
HETATM   16  C   UNL     1      37.995 -14.314  -3.237  1.00  0.00     0.000 A 
HETATM   17  C   UNL     1      37.378 -13.186  -2.699  1.00  0.00     0.001 A 
HETATM   18  C   UNL     1      37.858 -12.627  -1.513  1.00  0.00     0.018 A 
ENDBRANCH  12  13
ENDBRANCH  11  12
ENDBRANCH   8  11
ENDBRANCH   1   7
BRANCH   3  19
HETATM   19  C   UNL     1      43.781 -19.245   3.761  1.00  0.00     0.010 A 
HETATM   20  C   UNL     1      43.705 -19.981   2.551  1.00  0.00     0.152 A 
HETATM   21  N   UNL     1      43.973 -21.279   2.713  1.00  0.00    -0.187 NA
HETATM   22  N   UNL     1      44.215 -21.386   4.027  1.00  0.00    -0.289 N 
HETATM   23  H   UNL     1      44.443 -22.301   4.401  1.00  0.00     0.188 HD
HETATM   24  C   UNL     1      44.114 -20.201   4.698  1.00  0.00     0.123 A 
ENDBRANCH   3  19
TORSDOF 5
ENDMDL
MODEL 2
REMARK VINA RESULT:      -7.9      3.796      6.603
REMARK  5 active torsions:
REMARK  status: ('A' for Active; 'I' for Inactive)
REMARK    1  A    between atoms: C_4  and  S_5 
REMARK    2  A    between atoms: S_5  and  C_6 
REMARK    3  A    between atoms: C_6  and  C_7 
REMARK       I    between atoms: C_7  and  N_8 
REMARK    4  A    between atoms: N_8  and  C_9 
REMARK    5  A    between atoms: C_11  and  C_12 
ROOT
HETATM    1  C   UNL     1      43.011 -15.401   3.806  1.00  0.00     0.035 A 
HETATM    2  C   UNL     1      43.269 -16.741   4.111  1.00  0.00     0.042 A 
HETATM    3  C   UNL     1      43.514 -17.688   3.101  1.00  0.00    -0.021 A 
HETATM    4  C   UNL     1      43.502 -17.263   1.767  1.00  0.00     0.012 A 
HETATM    5  C   UNL     1      43.255 -15.927   1.450  1.00  0.00     0.003 A 
HETATM    6  C   UNL     1      43.012 -15.001   2.466  1.00  0.00     0.029 A 
ENDROOT
BRANCH   1   7
HETATM    7  N   UNL     1      42.748 -14.410   4.774  1.00  0.00    -0.327 N 
HETATM    8  C   UNL     1      41.537 -13.812   5.070  1.00  0.00     0.231 C 
HETATM    9  O   UNL     1      40.461 -14.066   4.532  1.00  0.00    -0.272 OA
HETATM   10  H   UNL     1      43.551 -14.028   5.264  1.00  0.00     0.169 HD
BRANCH   8  11
HETATM   11  C   UNL     1      41.577 -12.818   6.225  1.00  0.00     0.182 C 
BRANCH  11  12
HETATM   12  S   UNL     1      41.954 -11.112   5.694  1.00  0.00    -0.121 SA
BRANCH  12  13
HETATM   13  C   UNL     1      43.550 -10.931   6.470  1.00  0.00     0.001 A 
HETATM   14  C   UNL     1      43.660 -10.235   7.677  1.00  0.00     0.018 A 
HETATM   15  C   UNL     1      44.908 -10.080   8.286  1.00  0.00     0.001 A 
HETATM   16  C   UNL     1      46.047 -10.628   7.697  1.00  0.00     0.000 A 
HETATM   17  C   UNL     1      45.939 -11.337   6.502  1.00  0.00     0.001 A 
HETATM   18  C   UNL     1      44.693 -11.493   5.892  1.00  0.00     0.018 A 
ENDBRANCH  12  13
ENDBRANCH  11  12
ENDBRANCH   8  11
ENDBRANCH   1   7
BRANCH   3  19
HETATM   19  C   UNL     1      43.762 -19.080   3.455  1.00  0.00     0.010 A 
HETATM   20  C   UNL     1      43.655 -20.263   2.682  1.00  0.00     0.152 A 
HETATM   21  N   UNL     1      43.964 -21.366   3.370  1.00  0.00    -0.187 NA
HETATM   22  N   UNL     1      44.263 -20.898   4.590  1.00  0.00    -0.289 N 
HETATM   23  H   UNL     1      44.529 -21.563   5.307  1.00  0.00     0.188 HD
HETATM   24  C   UNL     1      44.158 -19.540   4.694  1.00  0.00     0.123 A 
ENDBRANCH   3  19
TORSDOF 5
ENDMDL
MODEL 3
REMARK VINA RESULT:      -7.7      3.062      7.946
REMARK  5 active torsions:
REMARK  status: ('A' for Active; 'I' for Inactive)
REMARK    1  A    between atoms: C_4  and  S_5 
REMARK    2  A    between atoms: S_5  and  C_6 
REMARK    3  A    between atoms: C_6  and  C_7 
REMARK       I    between atoms: C_7  and  N_8 
REMARK    4  A    between atoms: N_8  and  C_9 
REMARK    5  A    between atoms: C_11  and  C_12 
ROOT
HETATM    1  C   UNL     1      40.255 -14.297   2.698  1.00  0.00     0.035 A 
HETATM    2  C   UNL     1      40.291 -14.448   1.308  1.00  0.00     0.042 A 
HETATM    3  C   UNL     1      39.737 -13.480   0.452  1.00  0.00    -0.021 A 
HETATM    4  C   UNL     1      39.146 -12.344   1.018  1.00  0.00     0.012 A 
HETATM    5  C   UNL     1      39.113 -12.177   2.402  1.00  0.00     0.003 A 
HETATM    6  C   UNL     1      39.667 -13.149   3.237  1.00  0.00     0.029 A 
ENDROOT
BRANCH   1   7
HETATM    7  N   UNL     1      40.784 -15.237   3.606  1.00  0.00    -0.327 N 
HETATM    8  C   UNL     1      42.040 -15.248   4.183  1.00  0.00     0.231 C 
HETATM    9  O   UNL     1      42.920 -14.408   4.003  1.00  0.00    -0.272 OA
HETATM   10  H   UNL     1      40.208 -16.049   3.807  1.00  0.00     0.169 HD
BRANCH   8  11
HETATM   11  C   UNL     1      42.279 -16.374   5.181  1.00  0.00     0.182 C 
BRANCH  11  12
HETATM   12  S   UNL     1      44.031 -16.878   5.293  1.00  0.00    -0.121 SA
BRANCH  12  13
HETATM   13  C   UNL     1      43.926 -18.424   4.409  1.00  0.00     0.001 A 
HETATM   14  C   UNL     1      43.669 -18.422   3.035  1.00  0.00     0.018 A 
HETATM   15  C   UNL     1      43.576 -19.629   2.336  1.00  0.00     0.001 A 
HETATM   16  C   UNL     1      43.748 -20.840   3.006  1.00  0.00     0.000 A 
HETATM   17  C   UNL     1      44.020 -20.846   4.373  1.00  0.00     0.001 A 
HETATM   18  C   UNL     1      44.114 -19.641   5.072  1.00  0.00     0.018 A 
ENDBRANCH  12  13
ENDBRANCH  11  12
ENDBRANCH   8  11
ENDBRANCH   1   7
BRANCH   3  19
HETATM   19  C   UNL     1      39.777 -13.680  -0.991  1.00  0.00     0.010 A 
HETATM   20  C   UNL     1      40.499 -12.992  -1.999  1.00  0.00     0.152 A 
HETATM   21  N   UNL     1      40.265 -13.468  -3.225  1.00  0.00    -0.187 NA
HETATM   22  N   UNL     1      39.386 -14.457  -3.013  1.00  0.00    -0.289 N 
HETATM   23  H   UNL     1      39.046 -14.978  -3.813  1.00  0.00     0.188 HD
HETATM   24  C   UNL     1      39.062 -14.625  -1.697  1.00  0.00     0.123 A 
ENDBRANCH   3  19
TORSDOF 5
ENDMDL
MODEL 4
REMARK VINA RESULT:      -7.6      1.676      3.259
REMARK  5 active torsions:
REMARK  status: ('A' for Active; 'I' for Inactive)
REMARK    1  A    between atoms: C_4  and  S_5 
REMARK    2  A    between atoms: S_5  and  C_6 
REMARK    3  A    between atoms: C_6  and  C_7 
REMARK       I    between atoms: C_7  and  N_8 
REMARK    4  A    between atoms: N_8  and  C_9 
REMARK    5  A    between atoms: C_11  and  C_12 
ROOT
HETATM    1  C   UNL     1      42.520 -15.631   2.199  1.00  0.00     0.035 A 
HETATM    2  C   UNL     1      42.806 -17.000   2.192  1.00  0.00     0.042 A 
HETATM    3  C   UNL     1      43.356 -17.639   3.318  1.00  0.00    -0.021 A 
HETATM    4  C   UNL     1      43.612 -16.875   4.463  1.00  0.00     0.012 A 
HETATM    5  C   UNL     1      43.322 -15.510   4.485  1.00  0.00     0.003 A 
HETATM    6  C   UNL     1      42.777 -14.893   3.358  1.00  0.00     0.029 A 
ENDROOT
BRANCH   1   7
HETATM    7  N   UNL     1      41.979 -14.935   1.098  1.00  0.00    -0.327 N 
HETATM    8  C   UNL     1      40.674 -14.949   0.643  1.00  0.00     0.231 C 
HETATM    9  O   UNL     1      39.745 -15.578   1.147  1.00  0.00    -0.272 OA
HETATM   10  H   UNL     1      42.634 -14.420   0.519  1.00  0.00     0.169 HD
BRANCH   8  11
HETATM   11  C   UNL     1      40.395 -14.028  -0.539  1.00  0.00     0.182 C 
BRANCH  11  12
HETATM   12  S   UNL     1      39.328 -12.610  -0.110  1.00  0.00    -0.121 SA
BRANCH  12  13
HETATM   13  C   UNL     1      40.184 -12.055   1.353  1.00  0.00     0.001 A 
HETATM   14  C   UNL     1      41.411 -11.397   1.231  1.00  0.00     0.018 A 
HETATM   15  C   UNL     1      42.095 -10.968   2.371  1.00  0.00     0.001 A 
HETATM   16  C   UNL     1      41.550 -11.187   3.636  1.00  0.00     0.000 A 
HETATM   17  C   UNL     1      40.319 -11.828   3.762  1.00  0.00     0.001 A 
HETATM   18  C   UNL     1      39.636 -12.257   2.623  1.00  0.00     0.018 A 
ENDBRANCH  12  13
ENDBRANCH  11  12
ENDBRANCH   8  11
ENDBRANCH   1   7
BRANCH   3  19
HETATM   19  C   UNL     1      43.658 -19.064   3.269  1.00  0.00     0.010 A 
HETATM   20  C   UNL     1      43.607 -19.982   2.191  1.00  0.00     0.152 A 
HETATM   21  N   UNL     1      43.953 -21.223   2.545  1.00  0.00    -0.187 NA
HETATM   22  N   UNL     1      44.220 -21.109   3.854  1.00  0.00    -0.289 N 
HETATM   23  H   UNL     1      44.505 -21.941   4.360  1.00  0.00     0.188 HD
HETATM   24  C   UNL     1      44.059 -19.841   4.336  1.00  0.00     0.123 A 
ENDBRANCH   3  19
TORSDOF 5
ENDMDL
MODEL 5
REMARK VINA RESULT:      -7.6      6.369      9.451
REMARK  5 active torsions:
REMARK  status: ('A' for Active; 'I' for Inactive)
REMARK    1  A    between atoms: C_4  and  S_5 
REMARK    2  A    between atoms: S_5  and  C_6 
REMARK    3  A    between atoms: C_6  and  C_7 
REMARK       I    between atoms: C_7  and  N_8 
REMARK    4  A    between atoms: N_8  and  C_9 
REMARK    5  A    between atoms: C_11  and  C_12 
ROOT
HETATM    1  C   UNL     1      44.705 -11.417   7.589  1.00  0.00     0.035 A 
HETATM    2  C   UNL     1      44.065 -11.056   8.779  1.00  0.00     0.042 A 
HETATM    3  C   UNL     1      44.521  -9.976   9.556  1.00  0.00    -0.021 A 
HETATM    4  C   UNL     1      45.635  -9.254   9.112  1.00  0.00     0.012 A 
HETATM    5  C   UNL     1      46.275  -9.598   7.922  1.00  0.00     0.003 A 
HETATM    6  C   UNL     1      45.811 -10.674   7.164  1.00  0.00     0.029 A 
ENDROOT
BRANCH   1   7
HETATM    7  N   UNL     1      44.302 -12.496   6.775  1.00  0.00    -0.327 N 
HETATM    8  C   UNL     1      43.170 -12.588   5.986  1.00  0.00     0.231 C 
HETATM    9  O   UNL     1      42.316 -11.713   5.852  1.00  0.00    -0.272 OA
HETATM   10  H   UNL     1      44.862 -13.340   6.827  1.00  0.00     0.169 HD
BRANCH   8  11
HETATM   11  C   UNL     1      43.058 -13.869   5.170  1.00  0.00     0.182 C 
BRANCH  11  12
HETATM   12  S   UNL     1      43.524 -15.364   6.108  1.00  0.00    -0.121 SA
BRANCH  12  13
HETATM   13  C   UNL     1      43.556 -16.533   4.762  1.00  0.00     0.001 A 
HETATM   14  C   UNL     1      42.934 -16.215   3.551  1.00  0.00     0.018 A 
HETATM   15  C   UNL     1      42.946 -17.128   2.494  1.00  0.00     0.001 A 
HETATM   16  C   UNL     1      43.588 -18.358   2.640  1.00  0.00     0.000 A 
HETATM   17  C   UNL     1      44.223 -18.673   3.839  1.00  0.00     0.001 A 
HETATM   18  C   UNL     1      44.212 -17.761   4.896  1.00  0.00     0.018 A 
ENDBRANCH  12  13
ENDBRANCH  11  12
ENDBRANCH   8  11
ENDBRANCH   1   7
BRANCH   3  19
HETATM   19  C   UNL     1      43.840  -9.639  10.800  1.00  0.00     0.010 A 
HETATM   20  C   UNL     1      43.306 -10.471  11.816  1.00  0.00     0.152 A 
HETATM   21  N   UNL     1      42.743  -9.782  12.812  1.00  0.00    -0.187 NA
HETATM   22  N   UNL     1      42.904  -8.505  12.438  1.00  0.00    -0.289 N 
HETATM   23  H   UNL     1      42.544  -7.777  13.045  1.00  0.00     0.188 HD
HETATM   24  C   UNL     1      43.553  -8.364  11.244  1.00  0.00     0.123 A 
ENDBRANCH   3  19
TORSDOF 5
ENDMDL
MODEL 6
REMARK VINA RESULT:      -7.5      2.375      3.198
REMARK  5 active torsions:
REMARK  status: ('A' for Active; 'I' for Inactive)
REMARK    1  A    between atoms: C_4  and  S_5 
REMARK    2  A    between atoms: S_5  and  C_6 
REMARK    3  A    between atoms: C_6  and  C_7 
REMARK       I    between atoms: C_7  and  N_8 
REMARK    4  A    between atoms: N_8  and  C_9 
REMARK    5  A    between atoms: C_11  and  C_12 
ROOT
HETATM    1  C   UNL     1      42.768 -15.271   2.369  1.00  0.00     0.035 A 
HETATM    2  C   UNL     1      42.811 -15.121   3.759  1.00  0.00     0.042 A 
HETATM    3  C   UNL     1      43.228 -16.172   4.596  1.00  0.00    -0.021 A 
HETATM    4  C   UNL     1      43.611 -17.384   4.009  1.00  0.00     0.012 A 
HETATM    5  C   UNL     1      43.582 -17.542   2.623  1.00  0.00     0.003 A 
HETATM    6  C   UNL     1      43.163 -16.489   1.808  1.00  0.00     0.029 A 
ENDROOT
BRANCH   1   7
HETATM    7  N   UNL     1      42.349 -14.258   1.481  1.00  0.00    -0.327 N 
HETATM    8  C   UNL     1      41.153 -13.565   1.487  1.00  0.00     0.231 C 
HETATM    9  O   UNL     1      40.242 -13.712   2.300  1.00  0.00    -0.272 OA
HETATM   10  H   UNL     1      42.959 -14.063   0.694  1.00  0.00     0.169 HD
BRANCH   8  11
HETATM   11  C   UNL     1      41.035 -12.479   0.425  1.00  0.00     0.182 C 
BRANCH  11  12
HETATM   12  S   UNL     1      39.330 -11.861   0.213  1.00  0.00    -0.121 SA
BRANCH  12  13
HETATM   13  C   UNL     1      38.839 -12.882  -1.164  1.00  0.00     0.001 A 
HETATM   14  C   UNL     1      39.643 -13.958  -1.552  1.00  0.00     0.018 A 
HETATM   15  C   UNL     1      39.271 -14.757  -2.636  1.00  0.00     0.001 A 
HETATM   16  C   UNL     1      38.091 -14.490  -3.330  1.00  0.00     0.000 A 
HETATM   17  C   UNL     1      37.278 -13.429  -2.937  1.00  0.00     0.001 A 
HETATM   18  C   UNL     1      37.648 -12.630  -1.854  1.00  0.00     0.018 A 
ENDBRANCH  12  13
ENDBRANCH  11  12
ENDBRANCH   8  11
ENDBRANCH   1   7
BRANCH   3  19
HETATM   19  C   UNL     1      43.244 -15.986   6.041  1.00  0.00     0.010 A 
HETATM   20  C   UNL     1      43.230 -14.802   6.820  1.00  0.00     0.152 A 
HETATM   21  N   UNL     1      43.261 -15.042   8.134  1.00  0.00    -0.187 NA
HETATM   22  N   UNL     1      43.303 -16.380   8.205  1.00  0.00    -0.289 N 
HETATM   23  H   UNL     1      43.338 -16.812   9.122  1.00  0.00     0.188 HD
HETATM   24  C   UNL     1      43.294 -16.992   6.984  1.00  0.00     0.123 A 
ENDBRANCH   3  19
TORSDOF 5
ENDMDL
MODEL 7
REMARK VINA RESULT:      -7.2      2.820      4.785
REMARK  5 active torsions:
REMARK  status: ('A' for Active; 'I' for Inactive)
REMARK    1  A    between atoms: C_4  and  S_5 
REMARK    2  A    between atoms: S_5  and  C_6 
REMARK    3  A    between atoms: C_6  and  C_7 
REMARK       I    between atoms: C_7  and  N_8 
REMARK    4  A    between atoms: N_8  and  C_9 
REMARK    5  A    between atoms: C_11  and  C_12 
ROOT
HETATM    1  C   UNL     1      42.667 -15.817   2.392  1.00  0.00     0.035 A 
HETATM    2  C   UNL     1      42.732 -15.572   3.768  1.00  0.00     0.042 A 
HETATM    3  C   UNL     1      43.221 -16.540   4.662  1.00  0.00    -0.021 A 
HETATM    4  C   UNL     1      43.656 -17.768   4.148  1.00  0.00     0.012 A 
HETATM    5  C   UNL     1      43.606 -18.021   2.777  1.00  0.00     0.003 A 
HETATM    6  C   UNL     1      43.115 -17.049   1.904  1.00  0.00     0.029 A 
ENDROOT
BRANCH   1   7
HETATM    7  N   UNL     1      42.177 -14.890   1.449  1.00  0.00    -0.327 N 
HETATM    8  C   UNL     1      40.885 -14.766   0.974  1.00  0.00     0.231 C 
HETATM    9  O   UNL     1      39.924 -15.453   1.317  1.00  0.00    -0.272 OA
HETATM   10  H   UNL     1      42.862 -14.289   1.003  1.00  0.00     0.169 HD
BRANCH   8  11
HETATM   11  C   UNL     1      40.665 -13.612   0.004  1.00  0.00     0.182 C 
BRANCH  11  12
HETATM   12  S   UNL     1      39.783 -12.199   0.753  1.00  0.00    -0.121 SA
BRANCH  12  13
HETATM   13  C   UNL     1      40.778 -12.003   2.220  1.00  0.00     0.001 A 
HETATM   14  C   UNL     1      42.037 -11.404   2.131  1.00  0.00     0.018 A 
HETATM   15  C   UNL     1      42.827 -11.255   3.273  1.00  0.00     0.001 A 
HETATM   16  C   UNL     1      42.358 -11.697   4.510  1.00  0.00     0.000 A 
HETATM   17  C   UNL     1      41.096 -12.281   4.607  1.00  0.00     0.001 A 
HETATM   18  C   UNL     1      40.306 -12.429   3.466  1.00  0.00     0.018 A 
ENDBRANCH  12  13
ENDBRANCH  11  12
ENDBRANCH   8  11
ENDBRANCH   1   7
BRANCH   3  19
HETATM   19  C   UNL     1      43.258 -16.256   6.091  1.00  0.00     0.010 A 
HETATM   20  C   UNL     1      43.000 -15.057   6.801  1.00  0.00     0.152 A 
HETATM   21  N   UNL     1      43.146 -15.191   8.122  1.00  0.00    -0.187 NA
HETATM   22  N   UNL     1      43.506 -16.474   8.267  1.00  0.00    -0.289 N 
HETATM   23  H   UNL     1      43.683 -16.821   9.203  1.00  0.00     0.188 HD
HETATM   24  C   UNL     1      43.587 -17.154   7.085  1.00  0.00     0.123 A 
ENDBRANCH   3  19
TORSDOF 5
ENDMDL
MODEL 8
REMARK VINA RESULT:      -7.2      3.668      6.697
REMARK  5 active torsions:
REMARK  status: ('A' for Active; 'I' for Inactive)
REMARK    1  A    between atoms: C_4  and  S_5 
REMARK    2  A    between atoms: S_5  and  C_6 
REMARK    3  A    between atoms: C_6  and  C_7 
REMARK       I    between atoms: C_7  and  N_8 
REMARK    4  A    between atoms: N_8  and  C_9 
REMARK    5  A    between atoms: C_11  and  C_12 
ROOT
HETATM    1  C   UNL     1      40.821 -14.134   3.661  1.00  0.00     0.035 A 
HETATM    2  C   UNL     1      41.800 -15.109   3.877  1.00  0.00     0.042 A 
HETATM    3  C   UNL     1      41.861 -16.273   3.091  1.00  0.00    -0.021 A 
HETATM    4  C   UNL     1      40.918 -16.441   2.069  1.00  0.00     0.012 A 
HETATM    5  C   UNL     1      39.943 -15.471   1.836  1.00  0.00     0.003 A 
HETATM    6  C   UNL     1      39.897 -14.322   2.629  1.00  0.00     0.029 A 
ENDROOT
BRANCH   1   7
HETATM    7  N   UNL     1      40.704 -12.953   4.423  1.00  0.00    -0.327 N 
HETATM    8  C   UNL     1      40.196 -12.814   5.701  1.00  0.00     0.231 C 
HETATM    9  O   UNL     1      39.765 -13.726   6.405  1.00  0.00    -0.272 OA
HETATM   10  H   UNL     1      40.947 -12.085   3.957  1.00  0.00     0.169 HD
BRANCH   8  11
HETATM   11  C   UNL     1      40.271 -11.404   6.273  1.00  0.00     0.182 C 
BRANCH  11  12
HETATM   12  S   UNL     1      41.402 -10.310   5.346  1.00  0.00    -0.121 SA
BRANCH  12  13
HETATM   13  C   UNL     1      42.900 -10.628   6.261  1.00  0.00     0.001 A 
HETATM   14  C   UNL     1      43.812 -11.578   5.792  1.00  0.00     0.018 A 
HETATM   15  C   UNL     1      44.983 -11.841   6.507  1.00  0.00     0.001 A 
HETATM   16  C   UNL     1      45.251 -11.149   7.688  1.00  0.00     0.000 A 
HETATM   17  C   UNL     1      44.353 -10.189   8.151  1.00  0.00     0.001 A 
HETATM   18  C   UNL     1      43.183  -9.925   7.437  1.00  0.00     0.018 A 
ENDBRANCH  12  13
ENDBRANCH  11  12
ENDBRANCH   8  11
ENDBRANCH   1   7
BRANCH   3  19
HETATM   19  C   UNL     1      42.884 -17.276   3.357  1.00  0.00     0.010 A 
HETATM   20  C   UNL     1      43.760 -17.433   4.460  1.00  0.00     0.152 A 
HETATM   21  N   UNL     1      44.573 -18.485   4.336  1.00  0.00    -0.187 NA
HETATM   22  N   UNL     1      44.230 -19.005   3.148  1.00  0.00    -0.289 N 
HETATM   23  H   UNL     1      44.725 -19.828   2.824  1.00  0.00     0.188 HD
HETATM   24  C   UNL     1      43.227 -18.321   2.523  1.00  0.00     0.123 A 
ENDBRANCH   3  19
TORSDOF 5
ENDMDL
MODEL 9
REMARK VINA RESULT:      -7.1      4.241      7.254
REMARK  5 active torsions:
REMARK  status: ('A' for Active; 'I' for Inactive)
REMARK    1  A    between atoms: C_4  and  S_5 
REMARK    2  A    between atoms: S_5  and  C_6 
REMARK    3  A    between atoms: C_6  and  C_7 
REMARK       I    between atoms: C_7  and  N_8 
REMARK    4  A    between atoms: N_8  and  C_9 
REMARK    5  A    between atoms: C_11  and  C_12 
ROOT
HETATM    1  C   UNL     1      41.562 -13.932   3.443  1.00  0.00     0.035 A 
HETATM    2  C   UNL     1      42.362 -15.067   3.612  1.00  0.00     0.042 A 
HETATM    3  C   UNL     1      42.109 -16.253   2.901  1.00  0.00    -0.021 A 
HETATM    4  C   UNL     1      41.035 -16.281   2.004  1.00  0.00     0.012 A 
HETATM    5  C   UNL     1      40.236 -15.152   1.818  1.00  0.00     0.003 A 
HETATM    6  C   UNL     1      40.500 -13.984   2.535  1.00  0.00     0.029 A 
ENDROOT
BRANCH   1   7
HETATM    7  N   UNL     1      41.759 -12.720   4.135  1.00  0.00    -0.327 N 
HETATM    8  C   UNL     1      42.680 -11.725   3.862  1.00  0.00     0.231 C 
HETATM    9  O   UNL     1      43.489 -11.732   2.935  1.00  0.00    -0.272 OA
HETATM   10  H   UNL     1      41.218 -12.586   4.983  1.00  0.00     0.169 HD
BRANCH   8  11
HETATM   11  C   UNL     1      42.592 -10.501   4.765  1.00  0.00     0.182 C 
BRANCH  11  12
HETATM   12  S   UNL     1      42.258 -10.916   6.511  1.00  0.00    -0.121 SA
BRANCH  12  13
HETATM   13  C   UNL     1      43.765 -10.293   7.232  1.00  0.00     0.001 A 
HETATM   14  C   UNL     1      44.971 -10.966   7.012  1.00  0.00     0.018 A 
HETATM   15  C   UNL     1      46.155 -10.491   7.581  1.00  0.00     0.001 A 
HETATM   16  C   UNL     1      46.140  -9.337   8.365  1.00  0.00     0.000 A 
HETATM   17  C   UNL     1      44.944  -8.654   8.574  1.00  0.00     0.001 A 
HETATM   18  C   UNL     1      43.760  -9.128   8.006  1.00  0.00     0.018 A 
ENDBRANCH  12  13
ENDBRANCH  11  12
ENDBRANCH   8  11
ENDBRANCH   1   7
BRANCH   3  19
HETATM   19  C   UNL     1      42.953 -17.422   3.116  1.00  0.00     0.010 A 
HETATM   20  C   UNL     1      43.114 -18.600   2.344  1.00  0.00     0.152 A 
HETATM   21  N   UNL     1      43.986 -19.459   2.878  1.00  0.00    -0.187 NA
HETATM   22  N   UNL     1      44.383 -18.842   4.001  1.00  0.00    -0.289 N 
HETATM   23  H   UNL     1      45.057 -19.312   4.594  1.00  0.00     0.188 HD
HETATM   24  C   UNL     1      43.796 -17.623   4.189  1.00  0.00     0.123 A 
ENDBRANCH   3  19
TORSDOF 5
ENDMDL
MODEL 10
REMARK VINA RESULT:      -7.1      3.100      8.675
REMARK  5 active torsions:
REMARK  status: ('A' for Active; 'I' for Inactive)
REMARK    1  A    between atoms: C_4  and  S_5 
REMARK    2  A    between atoms: S_5  and  C_6 
REMARK    3  A    between atoms: C_6  and  C_7 
REMARK       I    between atoms: C_7  and  N_8 
REMARK    4  A    between atoms: N_8  and  C_9 
REMARK    5  A    between atoms: C_11  and  C_12 
ROOT
HETATM    1  C   UNL     1      40.199 -14.208  -0.263  1.00  0.00     0.035 A 
HETATM    2  C   UNL     1      40.552 -12.909  -0.642  1.00  0.00     0.042 A 
HETATM    3  C   UNL     1      40.187 -12.387  -1.896  1.00  0.00    -0.021 A 
HETATM    4  C   UNL     1      39.450 -13.195  -2.769  1.00  0.00     0.012 A 
HETATM    5  C   UNL     1      39.083 -14.490  -2.399  1.00  0.00     0.003 A 
HETATM    6  C   UNL     1      39.455 -14.992  -1.150  1.00  0.00     0.029 A 
ENDROOT
BRANCH   1   7
HETATM    7  N   UNL     1      40.545 -14.788   0.975  1.00  0.00    -0.327 N 
HETATM    8  C   UNL     1      40.074 -14.455   2.231  1.00  0.00     0.231 C 
HETATM    9  O   UNL     1      39.242 -13.582   2.477  1.00  0.00    -0.272 OA
HETATM   10  H   UNL     1      41.285 -15.483   0.961  1.00  0.00     0.169 HD
BRANCH   8  11
HETATM   11  C   UNL     1      40.599 -15.324   3.366  1.00  0.00     0.182 C 
BRANCH  11  12
HETATM   12  S   UNL     1      42.358 -15.023   3.750  1.00  0.00    -0.121 SA
BRANCH  12  13
HETATM   13  C   UNL     1      42.973 -16.683   3.533  1.00  0.00     0.001 A 
HETATM   14  C   UNL     1      43.814 -17.244   4.498  1.00  0.00     0.018 A 
HETATM   15  C   UNL     1      44.308 -18.540   4.332  1.00  0.00     0.001 A 
HETATM   16  C   UNL     1      43.957 -19.283   3.205  1.00  0.00     0.000 A 
HETATM   17  C   UNL     1      43.106 -18.735   2.248  1.00  0.00     0.001 A 
HETATM   18  C   UNL     1      42.611 -17.440   2.413  1.00  0.00     0.018 A 
ENDBRANCH  12  13
ENDBRANCH  11  12
ENDBRANCH   8  11
ENDBRANCH   1   7
BRANCH   3  19
HETATM   19  C   UNL     1      40.588 -11.035  -2.264  1.00  0.00     0.010 A 
HETATM   20  C   UNL     1      40.181 -10.213  -3.345  1.00  0.00     0.152 A 
HETATM   21  N   UNL     1      40.786  -9.022  -3.351  1.00  0.00    -0.187 NA
HETATM   22  N   UNL     1      41.590  -9.076  -2.280  1.00  0.00    -0.289 N 
HETATM   23  H   UNL     1      42.170  -8.270  -2.074  1.00  0.00     0.188 HD
HETATM   24  C   UNL     1      41.510 -10.255  -1.596  1.00  0.00     0.123 A 
ENDBRANCH   3  19
TORSDOF 5
ENDMDL
