MODEL 1
REMARK VINA RESULT:      -8.6      0.000      0.000
REMARK  6 active torsions:
REMARK  status: ('A' for Active; 'I' for Inactive)
REMARK    1  A    between atoms: C_2  and  C_3 
REMARK       I    between atoms: C_3  and  N_4 
REMARK    2  A    between atoms: N_4  and  C_5 
REMARK    3  A    between atoms: C_5  and  C_6 
REMARK    4  A    between atoms: N_8  and  C_10 
REMARK    5  A    between atoms: C_10  and  C_11 
REMARK    6  A    between atoms: C_12  and  C_13 
ROOT
HETATM    1  C   UNL     1      43.669 -11.084   5.140  1.00  0.00     0.029 C 
HETATM    2  C   UNL     1      43.509 -11.673   3.735  1.00  0.00     0.241 C 
HETATM    3  N   UNL     1      43.037 -13.107   3.770  1.00  0.00    -0.067 N 
HETATM    4  H   UNL     1      43.805 -13.652   4.214  1.00  0.00     0.280 HD
HETATM    5  C   UNL     1      41.758 -13.281   4.540  1.00  0.00     0.235 C 
HETATM    6  C   UNL     1      41.825 -12.636   5.918  1.00  0.00     0.028 C 
HETATM    7  C   UNL     1      42.326 -11.195   5.876  1.00  0.00     0.009 C 
ENDROOT
BRANCH   3   8
HETATM    8  C   UNL     1      42.974 -13.665   2.353  1.00  0.00     0.277 C 
BRANCH   8   9
HETATM    9  C   UNL     1      41.792 -14.505   2.015  1.00  0.00     0.016 A 
HETATM   10  C   UNL     1      41.584 -15.906   2.239  1.00  0.00     0.096 A 
HETATM   11  N   UNL     1      40.363 -16.276   1.829  1.00  0.00    -0.174 NA
HETATM   12  N   UNL     1      39.839 -15.193   1.256  1.00  0.00    -0.288 N 
HETATM   13  H   UNL     1      38.920 -15.273   0.827  1.00  0.00     0.188 HD
HETATM   14  C   UNL     1      40.653 -14.103   1.335  1.00  0.00     0.120 A 
BRANCH  10  15
HETATM   15  C   UNL     1      42.483 -16.912   2.801  1.00  0.00    -0.003 A 
HETATM   16  C   UNL     1      42.769 -18.090   2.101  1.00  0.00     0.037 A 
HETATM   17  C   UNL     1      43.583 -19.065   2.681  1.00  0.00     0.035 A 
HETATM   18 CL   UNL     1      43.948 -20.495   1.795  1.00  0.00    -0.084 Cl
HETATM   19  C   UNL     1      44.103 -18.891   3.961  1.00  0.00     0.024 A 
HETATM   20  C   UNL     1      43.808 -17.729   4.671  1.00  0.00     0.003 A 
HETATM   21  C   UNL     1      43.002 -16.745   4.094  1.00  0.00     0.014 A 
ENDBRANCH  10  15
ENDBRANCH   8   9
ENDBRANCH   3   8
BRANCH   1  22
HETATM   22  C   UNL     1      44.795 -11.691   6.000  1.00  0.00     0.128 C 
BRANCH  22  23
HETATM   23  N   UNL     1      45.403 -10.768   6.931  1.00  0.00    -0.360 N 
HETATM   24  C   UNL     1      44.969 -10.694   8.240  1.00  0.00     0.221 C 
HETATM   25  O   UNL     1      44.232 -11.559   8.714  1.00  0.00    -0.273 OA
HETATM   26  H   UNL     1      45.877  -9.953   6.546  1.00  0.00     0.162 HD
BRANCH  24  27
HETATM   27  C   UNL     1      45.510  -9.493   9.011  1.00  0.00     0.070 C 
HETATM   28  C   UNL     1      45.342  -9.699  10.515  1.00  0.00     0.019 C 
HETATM   29  C   UNL     1      44.822  -8.207   8.569  1.00  0.00     0.019 C 
ENDBRANCH  24  27
ENDBRANCH  22  23
ENDBRANCH   1  22
TORSDOF 6
ENDMDL
MODEL 2
REMARK VINA RESULT:      -8.3      3.524      7.819
REMARK  6 active torsions:
REMARK  status: ('A' for Active; 'I' for Inactive)
REMARK    1  A    between atoms: C_2  and  C_3 
REMARK       I    between atoms: C_3  and  N_4 
REMARK    2  A    between atoms: N_4  and  C_5 
REMARK    3  A    between atoms: C_5  and  C_6 
REMARK    4  A    between atoms: N_8  and  C_10 
REMARK    5  A    between atoms: C_10  and  C_11 
REMARK    6  A    between atoms: C_12  and  C_13 
ROOT
HETATM    1  C   UNL     1      42.097 -16.534   2.482  1.00  0.00     0.029 C 
HETATM    2  C   UNL     1      41.804 -15.994   3.885  1.00  0.00     0.241 C 
HETATM    3  N   UNL     1      42.816 -14.960   4.318  1.00  0.00    -0.067 N 
HETATM    4  H   UNL     1      43.724 -15.462   4.399  1.00  0.00     0.280 HD
HETATM    5  C   UNL     1      42.933 -13.817   3.350  1.00  0.00     0.235 C 
HETATM    6  C   UNL     1      43.138 -14.295   1.919  1.00  0.00     0.028 C 
HETATM    7  C   UNL     1      42.126 -15.357   1.497  1.00  0.00     0.009 C 
ENDROOT
BRANCH   3   8
HETATM    8  C   UNL     1      42.524 -14.519   5.748  1.00  0.00     0.277 C 
BRANCH   8   9
HETATM    9  C   UNL     1      41.790 -13.233   5.916  1.00  0.00     0.016 A 
HETATM   10  C   UNL     1      42.286 -11.957   6.341  1.00  0.00     0.096 A 
HETATM   11  N   UNL     1      41.312 -11.038   6.318  1.00  0.00    -0.174 NA
HETATM   12  N   UNL     1      40.202 -11.706   6.004  1.00  0.00    -0.288 N 
HETATM   13  H   UNL     1      39.323 -11.194   5.982  1.00  0.00     0.188 HD
HETATM   14  C   UNL     1      40.429 -13.026   5.756  1.00  0.00     0.120 A 
BRANCH  10  15
HETATM   15  C   UNL     1      43.624 -11.569   6.785  1.00  0.00    -0.003 A 
HETATM   16  C   UNL     1      43.825 -11.002   8.049  1.00  0.00     0.037 A 
HETATM   17  C   UNL     1      45.101 -10.584   8.430  1.00  0.00     0.035 A 
HETATM   18 CL   UNL     1      45.335  -9.916   9.999  1.00  0.00    -0.084 Cl
HETATM   19  C   UNL     1      46.181 -10.704   7.559  1.00  0.00     0.024 A 
HETATM   20  C   UNL     1      45.985 -11.250   6.292  1.00  0.00     0.003 A 
HETATM   21  C   UNL     1      44.713 -11.679   5.907  1.00  0.00     0.014 A 
ENDBRANCH  10  15
ENDBRANCH   8   9
ENDBRANCH   3   8
BRANCH   1  22
HETATM   22  C   UNL     1      43.380 -17.375   2.339  1.00  0.00     0.128 C 
BRANCH  22  23
HETATM   23  N   UNL     1      43.410 -18.568   3.154  1.00  0.00    -0.360 N 
HETATM   24  C   UNL     1      44.164 -18.616   4.311  1.00  0.00     0.221 C 
HETATM   25  O   UNL     1      44.632 -17.590   4.806  1.00  0.00    -0.273 OA
HETATM   26  H   UNL     1      43.182 -19.453   2.704  1.00  0.00     0.162 HD
BRANCH  24  27
HETATM   27  C   UNL     1      44.313 -20.015   4.901  1.00  0.00     0.070 C 
HETATM   28  C   UNL     1      43.900 -21.076   3.883  1.00  0.00     0.019 C 
HETATM   29  C   UNL     1      43.497 -20.157   6.180  1.00  0.00     0.019 C 
ENDBRANCH  24  27
ENDBRANCH  22  23
ENDBRANCH   1  22
TORSDOF 6
ENDMDL
MODEL 3
REMARK VINA RESULT:      -8.2      2.342      4.089
REMARK  6 active torsions:
REMARK  status: ('A' for Active; 'I' for Inactive)
REMARK    1  A    between atoms: C_2  and  C_3 
REMARK       I    between atoms: C_3  and  N_4 
REMARK    2  A    between atoms: N_4  and  C_5 
REMARK    3  A    between atoms: C_5  and  C_6 
REMARK    4  A    between atoms: N_8  and  C_10 
REMARK    5  A    between atoms: C_10  and  C_11 
REMARK    6  A    between atoms: C_12  and  C_13 
ROOT
HETATM    1  C   UNL     1      42.947 -13.834   2.729  1.00  0.00     0.029 C 
HETATM    2  C   UNL     1      42.709 -15.032   3.654  1.00  0.00     0.241 C 
HETATM    3  N   UNL     1      41.271 -15.126   4.104  1.00  0.00    -0.067 N 
HETATM    4  H   UNL     1      41.099 -14.284   4.692  1.00  0.00     0.280 HD
HETATM    5  C   UNL     1      40.302 -15.171   2.957  1.00  0.00     0.235 C 
HETATM    6  C   UNL     1      40.546 -14.052   1.954  1.00  0.00     0.028 C 
HETATM    7  C   UNL     1      42.006 -13.949   1.522  1.00  0.00     0.009 C 
ENDROOT
BRANCH   3   8
HETATM    8  C   UNL     1      41.111 -16.284   5.083  1.00  0.00     0.277 C 
BRANCH   8   9
HETATM    9  C   UNL     1      42.111 -16.376   6.182  1.00  0.00     0.016 A 
HETATM   10  C   UNL     1      43.149 -17.344   6.383  1.00  0.00     0.096 A 
HETATM   11  N   UNL     1      43.868 -17.050   7.475  1.00  0.00    -0.174 NA
HETATM   12  N   UNL     1      43.258 -16.003   8.029  1.00  0.00    -0.288 N 
HETATM   13  H   UNL     1      43.620 -15.645   8.909  1.00  0.00     0.188 HD
HETATM   14  C   UNL     1      42.196 -15.559   7.299  1.00  0.00     0.120 A 
BRANCH  10  15
HETATM   15  C   UNL     1      43.482 -18.540   5.610  1.00  0.00    -0.003 A 
HETATM   16  C   UNL     1      43.591 -18.486   4.216  1.00  0.00     0.037 A 
HETATM   17  C   UNL     1      43.851 -19.650   3.492  1.00  0.00     0.035 A 
HETATM   18 CL   UNL     1      44.012 -19.560   1.780  1.00  0.00    -0.084 Cl
HETATM   19  C   UNL     1      43.984 -20.877   4.137  1.00  0.00     0.024 A 
HETATM   20  C   UNL     1      43.858 -20.942   5.523  1.00  0.00     0.003 A 
HETATM   21  C   UNL     1      43.607 -19.779   6.256  1.00  0.00     0.014 A 
ENDBRANCH  10  15
ENDBRANCH   8   9
ENDBRANCH   3   8
BRANCH   1  22
HETATM   22  C   UNL     1      42.805 -12.444   3.380  1.00  0.00     0.128 C 
BRANCH  22  23
HETATM   23  N   UNL     1      43.489 -12.300   4.644  1.00  0.00    -0.360 N 
HETATM   24  C   UNL     1      42.780 -12.209   5.826  1.00  0.00     0.221 C 
HETATM   25  O   UNL     1      41.580 -12.483   5.870  1.00  0.00    -0.273 OA
HETATM   26  H   UNL     1      44.431 -11.914   4.630  1.00  0.00     0.162 HD
BRANCH  24  27
HETATM   27  C   UNL     1      43.620 -11.784   7.027  1.00  0.00     0.070 C 
HETATM   28  C   UNL     1      43.317 -10.337   7.412  1.00  0.00     0.019 C 
HETATM   29  C   UNL     1      45.107 -11.960   6.742  1.00  0.00     0.019 C 
ENDBRANCH  24  27
ENDBRANCH  22  23
ENDBRANCH   1  22
TORSDOF 6
ENDMDL
MODEL 4
REMARK VINA RESULT:      -8.2      1.502      2.042
REMARK  6 active torsions:
REMARK  status: ('A' for Active; 'I' for Inactive)
REMARK    1  A    between atoms: C_2  and  C_3 
REMARK       I    between atoms: C_3  and  N_4 
REMARK    2  A    between atoms: N_4  and  C_5 
REMARK    3  A    between atoms: C_5  and  C_6 
REMARK    4  A    between atoms: N_8  and  C_10 
REMARK    5  A    between atoms: C_10  and  C_11 
REMARK    6  A    between atoms: C_12  and  C_13 
ROOT
HETATM    1  C   UNL     1      44.119 -11.995   7.016  1.00  0.00     0.029 C 
HETATM    2  C   UNL     1      43.296 -13.264   6.766  1.00  0.00     0.241 C 
HETATM    3  N   UNL     1      42.388 -13.125   5.568  1.00  0.00    -0.067 N 
HETATM    4  H   UNL     1      41.694 -12.389   5.817  1.00  0.00     0.280 HD
HETATM    5  C   UNL     1      43.127 -12.746   4.316  1.00  0.00     0.235 C 
HETATM    6  C   UNL     1      44.033 -11.540   4.526  1.00  0.00     0.028 C 
HETATM    7  C   UNL     1      44.931 -11.678   5.753  1.00  0.00     0.009 C 
ENDROOT
BRANCH   3   8
HETATM    8  C   UNL     1      41.537 -14.381   5.416  1.00  0.00     0.277 C 
BRANCH   8   9
HETATM    9  C   UNL     1      41.072 -14.713   4.041  1.00  0.00     0.016 A 
HETATM   10  C   UNL     1      41.483 -15.783   3.181  1.00  0.00     0.096 A 
HETATM   11  N   UNL     1      40.791 -15.763   2.034  1.00  0.00    -0.174 NA
HETATM   12  N   UNL     1      40.043 -14.662   2.091  1.00  0.00    -0.288 N 
HETATM   13  H   UNL     1      39.469 -14.428   1.285  1.00  0.00     0.188 HD
HETATM   14  C   UNL     1      40.175 -13.991   3.270  1.00  0.00     0.120 A 
BRANCH  10  15
HETATM   15  C   UNL     1      42.507 -16.809   3.379  1.00  0.00    -0.003 A 
HETATM   16  C   UNL     1      42.571 -17.930   2.543  1.00  0.00     0.037 A 
HETATM   17  C   UNL     1      43.518 -18.926   2.786  1.00  0.00     0.035 A 
HETATM   18 CL   UNL     1      43.602 -20.284   1.730  1.00  0.00    -0.084 Cl
HETATM   19  C   UNL     1      44.393 -18.832   3.865  1.00  0.00     0.024 A 
HETATM   20  C   UNL     1      44.322 -17.728   4.713  1.00  0.00     0.003 A 
HETATM   21  C   UNL     1      43.384 -16.722   4.471  1.00  0.00     0.014 A 
ENDBRANCH  10  15
ENDBRANCH   8   9
ENDBRANCH   3   8
BRANCH   1  22
HETATM   22  C   UNL     1      43.322 -10.753   7.458  1.00  0.00     0.128 C 
BRANCH  22  23
HETATM   23  N   UNL     1      43.341 -10.502   8.880  1.00  0.00    -0.360 N 
HETATM   24  C   UNL     1      44.098  -9.473   9.407  1.00  0.00     0.221 C 
HETATM   25  O   UNL     1      44.580  -8.603   8.681  1.00  0.00    -0.273 OA
HETATM   26  H   UNL     1      43.102 -11.274   9.499  1.00  0.00     0.162 HD
BRANCH  24  27
HETATM   27  C   UNL     1      44.234  -9.512  10.926  1.00  0.00     0.070 C 
HETATM   28  C   UNL     1      43.767 -10.860  11.474  1.00  0.00     0.019 C 
HETATM   29  C   UNL     1      43.454  -8.374  11.573  1.00  0.00     0.019 C 
ENDBRANCH  24  27
ENDBRANCH  22  23
ENDBRANCH   1  22
TORSDOF 6
ENDMDL
MODEL 5
REMARK VINA RESULT:      -8.1      2.237      3.135
REMARK  6 active torsions:
REMARK  status: ('A' for Active; 'I' for Inactive)
REMARK    1  A    between atoms: C_2  and  C_3 
REMARK       I    between atoms: C_3  and  N_4 
REMARK    2  A    between atoms: N_4  and  C_5 
REMARK    3  A    between atoms: C_5  and  C_6 
REMARK    4  A    between atoms: N_8  and  C_10 
REMARK    5  A    between atoms: C_10  and  C_11 
REMARK    6  A    between atoms: C_12  and  C_13 
ROOT
HETATM    1  C   UNL     1      42.197 -10.447   5.617  1.00  0.00     0.029 C 
HETATM    2  C   UNL     1      42.911 -11.717   5.143  1.00  0.00     0.241 C 
HETATM    3  N   UNL     1      42.256 -12.970   5.673  1.00  0.00    -0.067 N 
HETATM    4  H   UNL     1      42.386 -12.947   6.706  1.00  0.00     0.280 HD
HETATM    5  C   UNL     1      40.795 -13.053   5.332  1.00  0.00     0.235 C 
HETATM    6  C   UNL     1      40.045 -11.779   5.701  1.00  0.00     0.028 C 
HETATM    7  C   UNL     1      40.727 -10.517   5.181  1.00  0.00     0.009 C 
ENDROOT
BRANCH   3   8
HETATM    8  C   UNL     1      43.053 -14.194   5.238  1.00  0.00     0.277 C 
BRANCH   8   9
HETATM    9  C   UNL     1      43.156 -15.309   6.220  1.00  0.00     0.016 A 
HETATM   10  C   UNL     1      43.286 -16.717   5.981  1.00  0.00     0.096 A 
HETATM   11  N   UNL     1      43.394 -17.387   7.136  1.00  0.00    -0.174 NA
HETATM   12  N   UNL     1      43.226 -16.473   8.092  1.00  0.00    -0.288 N 
HETATM   13  H   UNL     1      43.223 -16.786   9.060  1.00  0.00     0.188 HD
HETATM   14  C   UNL     1      43.076 -15.212   7.601  1.00  0.00     0.120 A 
BRANCH  10  15
HETATM   15  C   UNL     1      43.293 -17.459   4.721  1.00  0.00    -0.003 A 
HETATM   16  C   UNL     1      43.666 -18.808   4.685  1.00  0.00     0.037 A 
HETATM   17  C   UNL     1      43.723 -19.482   3.465  1.00  0.00     0.035 A 
HETATM   18 CL   UNL     1      44.155 -21.149   3.442  1.00  0.00    -0.084 Cl
HETATM   19  C   UNL     1      43.433 -18.826   2.272  1.00  0.00     0.024 A 
HETATM   20  C   UNL     1      43.079 -17.478   2.298  1.00  0.00     0.003 A 
HETATM   21  C   UNL     1      43.010 -16.798   3.517  1.00  0.00     0.014 A 
ENDBRANCH  10  15
ENDBRANCH   8   9
ENDBRANCH   3   8
BRANCH   1  22
HETATM   22  C   UNL     1      42.288 -10.148   7.126  1.00  0.00     0.128 C 
BRANCH  22  23
HETATM   23  N   UNL     1      43.617  -9.835   7.597  1.00  0.00    -0.360 N 
HETATM   24  C   UNL     1      44.385 -10.790   8.236  1.00  0.00     0.221 C 
HETATM   25  O   UNL     1      44.068 -11.980   8.213  1.00  0.00    -0.273 OA
HETATM   26  H   UNL     1      43.835  -8.858   7.779  1.00  0.00     0.162 HD
BRANCH  24  27
HETATM   27  C   UNL     1      45.634 -10.235   8.914  1.00  0.00     0.070 C 
HETATM   28  C   UNL     1      45.287  -9.631  10.273  1.00  0.00     0.019 C 
HETATM   29  C   UNL     1      46.320  -9.200   8.030  1.00  0.00     0.019 C 
ENDBRANCH  24  27
ENDBRANCH  22  23
ENDBRANCH   1  22
TORSDOF 6
ENDMDL
MODEL 6
REMARK VINA RESULT:      -8.1      2.692      3.700
REMARK  6 active torsions:
REMARK  status: ('A' for Active; 'I' for Inactive)
REMARK    1  A    between atoms: C_2  and  C_3 
REMARK       I    between atoms: C_3  and  N_4 
REMARK    2  A    between atoms: N_4  and  C_5 
REMARK    3  A    between atoms: C_5  and  C_6 
REMARK    4  A    between atoms: N_8  and  C_10 
REMARK    5  A    between atoms: C_10  and  C_11 
REMARK    6  A    between atoms: C_12  and  C_13 
ROOT
HETATM    1  C   UNL     1      41.862  -9.880   6.278  1.00  0.00     0.029 C 
HETATM    2  C   UNL     1      42.761 -11.024   5.797  1.00  0.00     0.241 C 
HETATM    3  N   UNL     1      42.262 -12.372   6.262  1.00  0.00    -0.067 N 
HETATM    4  H   UNL     1      42.349 -12.368   7.299  1.00  0.00     0.280 HD
HETATM    5  C   UNL     1      40.841 -12.640   5.856  1.00  0.00     0.235 C 
HETATM    6  C   UNL     1      39.910 -11.493   6.230  1.00  0.00     0.028 C 
HETATM    7  C   UNL     1      40.433 -10.133   5.778  1.00  0.00     0.009 C 
ENDROOT
BRANCH   3   8
HETATM    8  C   UNL     1      43.236 -13.461   5.825  1.00  0.00     0.277 C 
BRANCH   8   9
HETATM    9  C   UNL     1      43.159 -14.758   6.553  1.00  0.00     0.016 A 
HETATM   10  C   UNL     1      43.008 -16.083   6.028  1.00  0.00     0.096 A 
HETATM   11  N   UNL     1      43.028 -16.990   7.013  1.00  0.00    -0.174 NA
HETATM   12  N   UNL     1      43.073 -16.284   8.143  1.00  0.00    -0.288 N 
HETATM   13  H   UNL     1      43.044 -16.788   9.026  1.00  0.00     0.188 HD
HETATM   14  C   UNL     1      43.148 -14.941   7.927  1.00  0.00     0.120 A 
BRANCH  10  15
HETATM   15  C   UNL     1      42.828 -16.532   4.648  1.00  0.00    -0.003 A 
HETATM   16  C   UNL     1      41.736 -16.097   3.888  1.00  0.00     0.037 A 
HETATM   17  C   UNL     1      41.550 -16.584   2.593  1.00  0.00     0.035 A 
HETATM   18 CL   UNL     1      40.219 -16.015   1.662  1.00  0.00    -0.084 Cl
HETATM   19  C   UNL     1      42.428 -17.517   2.049  1.00  0.00     0.024 A 
HETATM   20  C   UNL     1      43.507 -17.970   2.806  1.00  0.00     0.003 A 
HETATM   21  C   UNL     1      43.705 -17.480   4.099  1.00  0.00     0.014 A 
ENDBRANCH  10  15
ENDBRANCH   8   9
ENDBRANCH   3   8
BRANCH   1  22
HETATM   22  C   UNL     1      41.853  -9.625   7.798  1.00  0.00     0.128 C 
BRANCH  22  23
HETATM   23  N   UNL     1      43.150  -9.711   8.429  1.00  0.00    -0.360 N 
HETATM   24  C   UNL     1      44.007  -8.628   8.433  1.00  0.00     0.221 C 
HETATM   25  O   UNL     1      43.612  -7.503   8.122  1.00  0.00    -0.273 OA
HETATM   26  H   UNL     1      43.560 -10.636   8.540  1.00  0.00     0.162 HD
BRANCH  24  27
HETATM   27  C   UNL     1      45.427  -8.957   8.884  1.00  0.00     0.070 C 
HETATM   28  C   UNL     1      46.137  -9.818   7.841  1.00  0.00     0.019 C 
HETATM   29  C   UNL     1      45.421  -9.657  10.238  1.00  0.00     0.019 C 
ENDBRANCH  24  27
ENDBRANCH  22  23
ENDBRANCH   1  22
TORSDOF 6
ENDMDL
MODEL 7
REMARK VINA RESULT:      -8.0      4.045      6.769
REMARK  6 active torsions:
REMARK  status: ('A' for Active; 'I' for Inactive)
REMARK    1  A    between atoms: C_2  and  C_3 
REMARK       I    between atoms: C_3  and  N_4 
REMARK    2  A    between atoms: N_4  and  C_5 
REMARK    3  A    between atoms: C_5  and  C_6 
REMARK    4  A    between atoms: N_8  and  C_10 
REMARK    5  A    between atoms: C_10  and  C_11 
REMARK    6  A    between atoms: C_12  and  C_13 
ROOT
HETATM    1  C   UNL     1      40.493 -13.148   2.683  1.00  0.00     0.029 C 
HETATM    2  C   UNL     1      40.751 -14.035   3.906  1.00  0.00     0.241 C 
HETATM    3  N   UNL     1      41.288 -15.393   3.520  1.00  0.00    -0.067 N 
HETATM    4  H   UNL     1      40.525 -15.864   2.991  1.00  0.00     0.280 HD
HETATM    5  C   UNL     1      42.533 -15.311   2.682  1.00  0.00     0.235 C 
HETATM    6  C   UNL     1      42.367 -14.371   1.496  1.00  0.00     0.028 C 
HETATM    7  C   UNL     1      41.801 -13.010   1.891  1.00  0.00     0.009 C 
ENDROOT
BRANCH   3   8
HETATM    8  C   UNL     1      41.448 -16.258   4.765  1.00  0.00     0.277 C 
BRANCH   8   9
HETATM    9  C   UNL     1      42.759 -16.185   5.468  1.00  0.00     0.016 A 
HETATM   10  C   UNL     1      43.805 -17.163   5.536  1.00  0.00     0.096 A 
HETATM   11  N   UNL     1      44.848 -16.695   6.234  1.00  0.00    -0.174 NA
HETATM   12  N   UNL     1      44.457 -15.509   6.701  1.00  0.00    -0.288 N 
HETATM   13  H   UNL     1      45.094 -14.998   7.309  1.00  0.00     0.188 HD
HETATM   14  C   UNL     1      43.213 -15.155   6.277  1.00  0.00     0.120 A 
BRANCH  10  15
HETATM   15  C   UNL     1      43.861 -18.519   4.992  1.00  0.00    -0.003 A 
HETATM   16  C   UNL     1      43.813 -18.742   3.611  1.00  0.00     0.037 A 
HETATM   17  C   UNL     1      43.807 -20.046   3.116  1.00  0.00     0.035 A 
HETATM   18 CL   UNL     1      43.778 -20.301   1.414  1.00  0.00    -0.084 Cl
HETATM   19  C   UNL     1      43.830 -21.138   3.980  1.00  0.00     0.024 A 
HETATM   20  C   UNL     1      43.859 -20.925   5.357  1.00  0.00     0.003 A 
HETATM   21  C   UNL     1      43.874 -19.621   5.860  1.00  0.00     0.014 A 
ENDBRANCH  10  15
ENDBRANCH   8   9
ENDBRANCH   3   8
BRANCH   1  22
HETATM   22  C   UNL     1      39.355 -13.604   1.750  1.00  0.00     0.128 C 
BRANCH  22  23
HETATM   23  N   UNL     1      39.291 -12.896   0.492  1.00  0.00    -0.360 N 
HETATM   24  C   UNL     1      39.502 -13.555  -0.703  1.00  0.00     0.221 C 
HETATM   25  O   UNL     1      39.512 -14.786  -0.756  1.00  0.00    -0.273 OA
HETATM   26  H   UNL     1      39.448 -11.890   0.508  1.00  0.00     0.162 HD
BRANCH  24  27
HETATM   27  C   UNL     1      39.677 -12.631  -1.904  1.00  0.00     0.070 C 
HETATM   28  C   UNL     1      40.607 -13.262  -2.939  1.00  0.00     0.019 C 
HETATM   29  C   UNL     1      40.208 -11.269  -1.472  1.00  0.00     0.019 C 
ENDBRANCH  24  27
ENDBRANCH  22  23
ENDBRANCH   1  22
TORSDOF 6
ENDMDL
MODEL 8
REMARK VINA RESULT:      -7.9      3.088      6.200
REMARK  6 active torsions:
REMARK  status: ('A' for Active; 'I' for Inactive)
REMARK    1  A    between atoms: C_2  and  C_3 
REMARK       I    between atoms: C_3  and  N_4 
REMARK    2  A    between atoms: N_4  and  C_5 
REMARK    3  A    between atoms: C_5  and  C_6 
REMARK    4  A    between atoms: N_8  and  C_10 
REMARK    5  A    between atoms: C_10  and  C_11 
REMARK    6  A    between atoms: C_12  and  C_13 
ROOT
HETATM    1  C   UNL     1      39.397 -11.959   3.930  1.00  0.00     0.029 C 
HETATM    2  C   UNL     1      40.710 -12.655   4.302  1.00  0.00     0.241 C 
HETATM    3  N   UNL     1      41.905 -11.997   3.655  1.00  0.00    -0.067 N 
HETATM    4  H   UNL     1      41.794 -12.144   2.630  1.00  0.00     0.280 HD
HETATM    5  C   UNL     1      42.004 -10.530   3.965  1.00  0.00     0.235 C 
HETATM    6  C   UNL     1      40.696  -9.797   3.699  1.00  0.00     0.028 C 
HETATM    7  C   UNL     1      39.490 -10.482   4.337  1.00  0.00     0.009 C 
ENDROOT
BRANCH   3   8
HETATM    8  C   UNL     1      43.171 -12.777   3.992  1.00  0.00     0.277 C 
BRANCH   8   9
HETATM    9  C   UNL     1      43.185 -13.498   5.295  1.00  0.00     0.016 A 
HETATM   10  C   UNL     1      43.286 -14.905   5.550  1.00  0.00     0.096 A 
HETATM   11  N   UNL     1      43.309 -15.149   6.867  1.00  0.00    -0.174 NA
HETATM   12  N   UNL     1      43.114 -13.966   7.449  1.00  0.00    -0.288 N 
HETATM   13  H   UNL     1      43.046 -13.935   8.464  1.00  0.00     0.188 HD
HETATM   14  C   UNL     1      43.029 -12.942   6.556  1.00  0.00     0.120 A 
BRANCH  10  15
HETATM   15  C   UNL     1      43.344 -16.028   4.615  1.00  0.00    -0.003 A 
HETATM   16  C   UNL     1      43.759 -17.295   5.040  1.00  0.00     0.037 A 
HETATM   17  C   UNL     1      43.863 -18.339   4.119  1.00  0.00     0.035 A 
HETATM   18 CL   UNL     1      44.347 -19.899   4.664  1.00  0.00    -0.084 Cl
HETATM   19  C   UNL     1      43.578 -18.134   2.772  1.00  0.00     0.024 A 
HETATM   20  C   UNL     1      43.182 -16.870   2.338  1.00  0.00     0.003 A 
HETATM   21  C   UNL     1      43.066 -15.822   3.255  1.00  0.00     0.014 A 
ENDBRANCH  10  15
ENDBRANCH   8   9
ENDBRANCH   3   8
BRANCH   1  22
HETATM   22  C   UNL     1      38.968 -12.075   2.455  1.00  0.00     0.128 C 
BRANCH  22  23
HETATM   23  N   UNL     1      39.291 -13.339   1.834  1.00  0.00    -0.360 N 
HETATM   24  C   UNL     1      40.281 -13.424   0.874  1.00  0.00     0.221 C 
HETATM   25  O   UNL     1      41.071 -12.496   0.693  1.00  0.00    -0.273 OA
HETATM   26  H   UNL     1      38.574 -14.062   1.834  1.00  0.00     0.162 HD
BRANCH  24  27
HETATM   27  C   UNL     1      40.311 -14.751   0.122  1.00  0.00     0.070 C 
HETATM   28  C   UNL     1      39.431 -14.683  -1.125  1.00  0.00     0.019 C 
HETATM   29  C   UNL     1      39.869 -15.898   1.024  1.00  0.00     0.019 C 
ENDBRANCH  24  27
ENDBRANCH  22  23
ENDBRANCH   1  22
TORSDOF 6
ENDMDL
MODEL 9
REMARK VINA RESULT:      -7.8      3.813      8.260
REMARK  6 active torsions:
REMARK  status: ('A' for Active; 'I' for Inactive)
REMARK    1  A    between atoms: C_2  and  C_3 
REMARK       I    between atoms: C_3  and  N_4 
REMARK    2  A    between atoms: N_4  and  C_5 
REMARK    3  A    between atoms: C_5  and  C_6 
REMARK    4  A    between atoms: N_8  and  C_10 
REMARK    5  A    between atoms: C_10  and  C_11 
REMARK    6  A    between atoms: C_12  and  C_13 
ROOT
HETATM    1  C   UNL     1      42.596 -14.577   1.811  1.00  0.00     0.029 C 
HETATM    2  C   UNL     1      42.780 -14.058   3.240  1.00  0.00     0.241 C 
HETATM    3  N   UNL     1      42.500 -15.124   4.272  1.00  0.00    -0.067 N 
HETATM    4  H   UNL     1      41.487 -15.348   4.187  1.00  0.00     0.280 HD
HETATM    5  C   UNL     1      43.328 -16.362   4.072  1.00  0.00     0.235 C 
HETATM    6  C   UNL     1      43.255 -16.877   2.641  1.00  0.00     0.028 C 
HETATM    7  C   UNL     1      43.516 -15.788   1.604  1.00  0.00     0.009 C 
ENDROOT
BRANCH   3   8
HETATM    8  C   UNL     1      42.620 -14.532   5.672  1.00  0.00     0.277 C 
BRANCH   8   9
HETATM    9  C   UNL     1      41.848 -13.287   5.941  1.00  0.00     0.016 A 
HETATM   10  C   UNL     1      42.316 -12.015   6.408  1.00  0.00     0.096 A 
HETATM   11  N   UNL     1      41.309 -11.135   6.479  1.00  0.00    -0.174 NA
HETATM   12  N   UNL     1      40.211 -11.830   6.183  1.00  0.00    -0.288 N 
HETATM   13  H   UNL     1      39.313 -11.353   6.228  1.00  0.00     0.188 HD
HETATM   14  C   UNL     1      40.474 -13.126   5.856  1.00  0.00     0.120 A 
BRANCH  10  15
HETATM   15  C   UNL     1      43.659 -11.597   6.808  1.00  0.00    -0.003 A 
HETATM   16  C   UNL     1      43.886 -11.011   8.058  1.00  0.00     0.037 A 
HETATM   17  C   UNL     1      45.164 -10.564   8.397  1.00  0.00     0.035 A 
HETATM   18 CL   UNL     1      45.431  -9.873   9.951  1.00  0.00    -0.084 Cl
HETATM   19  C   UNL     1      46.221 -10.676   7.497  1.00  0.00     0.024 A 
HETATM   20  C   UNL     1      45.999 -11.241   6.243  1.00  0.00     0.003 A 
HETATM   21  C   UNL     1      44.724 -11.699   5.900  1.00  0.00     0.014 A 
ENDBRANCH  10  15
ENDBRANCH   8   9
ENDBRANCH   3   8
BRANCH   1  22
HETATM   22  C   UNL     1      41.152 -14.934   1.406  1.00  0.00     0.128 C 
BRANCH  22  23
HETATM   23  N   UNL     1      40.807 -14.587   0.047  1.00  0.00    -0.360 N 
HETATM   24  C   UNL     1      39.834 -13.643  -0.218  1.00  0.00     0.221 C 
HETATM   25  O   UNL     1      39.407 -12.905   0.671  1.00  0.00    -0.273 OA
HETATM   26  H   UNL     1      41.008 -15.271  -0.681  1.00  0.00     0.162 HD
BRANCH  24  27
HETATM   27  C   UNL     1      39.392 -13.593  -1.677  1.00  0.00     0.070 C 
HETATM   28  C   UNL     1      38.262 -12.581  -1.863  1.00  0.00     0.019 C 
HETATM   29  C   UNL     1      38.959 -14.971  -2.164  1.00  0.00     0.019 C 
ENDBRANCH  24  27
ENDBRANCH  22  23
ENDBRANCH   1  22
TORSDOF 6
ENDMDL
MODEL 10
REMARK VINA RESULT:      -7.8      2.878      4.684
REMARK  6 active torsions:
REMARK  status: ('A' for Active; 'I' for Inactive)
REMARK    1  A    between atoms: C_2  and  C_3 
REMARK       I    between atoms: C_3  and  N_4 
REMARK    2  A    between atoms: N_4  and  C_5 
REMARK    3  A    between atoms: C_5  and  C_6 
REMARK    4  A    between atoms: N_8  and  C_10 
REMARK    5  A    between atoms: C_10  and  C_11 
REMARK    6  A    between atoms: C_12  and  C_13 
ROOT
HETATM    1  C   UNL     1      43.017 -14.986   7.082  1.00  0.00     0.029 C 
HETATM    2  C   UNL     1      41.715 -15.309   6.342  1.00  0.00     0.241 C 
HETATM    3  N   UNL     1      41.965 -15.780   4.929  1.00  0.00    -0.067 N 
HETATM    4  H   UNL     1      42.377 -14.967   4.424  1.00  0.00     0.280 HD
HETATM    5  C   UNL     1      42.892 -16.961   4.863  1.00  0.00     0.235 C 
HETATM    6  C   UNL     1      44.171 -16.733   5.657  1.00  0.00     0.028 C 
HETATM    7  C   UNL     1      43.910 -16.235   7.075  1.00  0.00     0.009 C 
ENDROOT
BRANCH   3   8
HETATM    8  C   UNL     1      40.637 -16.007   4.217  1.00  0.00     0.277 C 
BRANCH   8   9
HETATM    9  C   UNL     1      40.479 -15.379   2.876  1.00  0.00     0.016 A 
HETATM   10  C   UNL     1      40.910 -14.088   2.426  1.00  0.00     0.096 A 
HETATM   11  N   UNL     1      40.615 -13.915   1.131  1.00  0.00    -0.174 NA
HETATM   12  N   UNL     1      39.919 -14.995   0.778  1.00  0.00    -0.288 N 
HETATM   13  H   UNL     1      39.550 -15.042  -0.169  1.00  0.00     0.188 HD
HETATM   14  C   UNL     1      39.803 -15.904   1.786  1.00  0.00     0.120 A 
BRANCH  10  15
HETATM   15  C   UNL     1      41.566 -13.007   3.159  1.00  0.00    -0.003 A 
HETATM   16  C   UNL     1      40.864 -12.252   4.105  1.00  0.00     0.037 A 
HETATM   17  C   UNL     1      41.493 -11.186   4.751  1.00  0.00     0.035 A 
HETATM   18 CL   UNL     1      40.623 -10.286   5.933  1.00  0.00    -0.084 Cl
HETATM   19  C   UNL     1      42.810 -10.848   4.454  1.00  0.00     0.024 A 
HETATM   20  C   UNL     1      43.510 -11.584   3.499  1.00  0.00     0.003 A 
HETATM   21  C   UNL     1      42.891 -12.658   2.855  1.00  0.00     0.014 A 
ENDBRANCH  10  15
ENDBRANCH   8   9
ENDBRANCH   3   8
BRANCH   1  22
HETATM   22  C   UNL     1      43.805 -13.770   6.557  1.00  0.00     0.128 C 
BRANCH  22  23
HETATM   23  N   UNL     1      43.713 -12.592   7.387  1.00  0.00    -0.360 N 
HETATM   24  C   UNL     1      44.722 -11.648   7.391  1.00  0.00     0.221 C 
HETATM   25  O   UNL     1      45.601 -11.655   6.529  1.00  0.00    -0.273 OA
HETATM   26  H   UNL     1      43.108 -12.636   8.204  1.00  0.00     0.162 HD
BRANCH  24  27
HETATM   27  C   UNL     1      44.609 -10.618   8.512  1.00  0.00     0.070 C 
HETATM   28  C   UNL     1      43.268  -9.891   8.442  1.00  0.00     0.019 C 
HETATM   29  C   UNL     1      45.760  -9.621   8.453  1.00  0.00     0.019 C 
ENDBRANCH  24  27
ENDBRANCH  22  23
ENDBRANCH   1  22
TORSDOF 6
ENDMDL
