MODEL 1
REMARK VINA RESULT:      -8.8      0.000      0.000
REMARK  7 active torsions:
REMARK  status: ('A' for Active; 'I' for Inactive)
REMARK    1  A    between atoms: C_5  and  O_6 
REMARK    2  A    between atoms: O_6  and  C_7 
REMARK    3  A    between atoms: C_7  and  C_8 
REMARK       I    between atoms: C_8  and  N_9 
REMARK    4  A    between atoms: N_9  and  C_10 
REMARK    5  A    between atoms: C_13  and  N_14 
REMARK    6  A    between atoms: N_17  and  C_19 
REMARK    7  A    between atoms: C_19  and  C_20 
ROOT
HETATM    1  C   UNL     1      42.932 -12.455   5.714  1.00  0.00     0.034 A 
HETATM    2  C   UNL     1      42.041 -11.388   5.782  1.00  0.00     0.032 A 
HETATM    3  C   UNL     1      42.135 -10.435   6.803  1.00  0.00     0.031 A 
HETATM    4  C   UNL     1      43.122 -10.497   7.796  1.00  0.00     0.030 A 
HETATM    5  C   UNL     1      44.011 -11.577   7.721  1.00  0.00     0.031 A 
HETATM    6  C   UNL     1      43.919 -12.544   6.698  1.00  0.00     0.032 A 
ENDROOT
BRANCH   1   7
HETATM    7  N   UNL     1      42.854 -13.467   4.731  1.00  0.00    -0.325 N 
HETATM    8  C   UNL     1      41.861 -14.427   4.620  1.00  0.00     0.246 C 
HETATM    9  O   UNL     1      40.832 -14.482   5.291  1.00  0.00    -0.271 OA
HETATM   10  H   UNL     1      43.572 -13.495   4.015  1.00  0.00     0.169 HD
BRANCH   8  11
HETATM   11  C   UNL     1      42.156 -15.534   3.608  1.00  0.00     0.278 C 
BRANCH  11  12
HETATM   12  O   UNL     1      43.441 -16.132   3.716  1.00  0.00    -0.342 OA
BRANCH  12  13
HETATM   13  C   UNL     1      43.473 -17.490   3.466  1.00  0.00     0.075 A 
HETATM   14  C   UNL     1      43.794 -18.333   4.550  1.00  0.00    -0.023 A 
HETATM   15  C   UNL     1      43.923 -19.728   4.330  1.00  0.00    -0.053 A 
HETATM   16  C   UNL     1      44.062 -17.758   5.918  1.00  0.00     0.052 C 
HETATM   17  C   UNL     1      44.302 -20.687   5.428  1.00  0.00     0.049 C 
HETATM   18  C   UNL     1      43.647 -20.259   3.061  1.00  0.00     0.007 A 
HETATM   19  C   UNL     1      43.281 -19.428   2.010  1.00  0.00     0.003 A 
HETATM   20  C   UNL     1      43.198 -18.052   2.210  1.00  0.00     0.037 A 
ENDBRANCH  12  13
ENDBRANCH  11  12
ENDBRANCH   8  11
ENDBRANCH   1   7
BRANCH   4  21
HETATM   21  N   UNL     1      43.135  -9.549   8.813  1.00  0.00    -0.378 N 
HETATM   22  C   UNL     1      42.948  -9.932  10.218  1.00  0.00     0.150 C 
HETATM   23  C   UNL     1      42.278  -8.766  10.987  1.00  0.00     0.255 C 
HETATM   24  N   UNL     1      43.035  -7.445  10.795  1.00  0.00    -0.064 N 
HETATM   25  H   UNL     1      43.949  -7.558  11.248  1.00  0.00     0.280 HD
HETATM   26  C   UNL     1      43.279  -7.149   9.316  1.00  0.00     0.255 C 
HETATM   27  C   UNL     1      43.955  -8.341   8.614  1.00  0.00     0.150 C 
BRANCH  24  28
HETATM   28  C   UNL     1      42.341  -6.279  11.458  1.00  0.00     0.273 C 
BRANCH  28  29
HETATM   29  C   UNL     1      41.977  -6.531  12.893  1.00  0.00    -0.033 A 
HETATM   30  C   UNL     1      40.641  -6.450  13.314  1.00  0.00     0.009 A 
HETATM   31  C   UNL     1      40.308  -6.680  14.650  1.00  0.00     0.001 A 
HETATM   32  C   UNL     1      41.303  -6.988  15.575  1.00  0.00     0.000 A 
HETATM   33  C   UNL     1      42.632  -7.072  15.169  1.00  0.00     0.001 A 
HETATM   34  C   UNL     1      42.970  -6.845  13.834  1.00  0.00     0.009 A 
ENDBRANCH  28  29
ENDBRANCH  24  28
ENDBRANCH   4  21
TORSDOF 7
ENDMDL
MODEL 2
REMARK VINA RESULT:      -8.7      7.653     11.209
REMARK  7 active torsions:
REMARK  status: ('A' for Active; 'I' for Inactive)
REMARK    1  A    between atoms: C_5  and  O_6 
REMARK    2  A    between atoms: O_6  and  C_7 
REMARK    3  A    between atoms: C_7  and  C_8 
REMARK       I    between atoms: C_8  and  N_9 
REMARK    4  A    between atoms: N_9  and  C_10 
REMARK    5  A    between atoms: C_13  and  N_14 
REMARK    6  A    between atoms: N_17  and  C_19 
REMARK    7  A    between atoms: C_19  and  C_20 
ROOT
HETATM    1  C   UNL     1      40.305 -14.765   2.234  1.00  0.00     0.034 A 
HETATM    2  C   UNL     1      39.758 -13.492   2.365  1.00  0.00     0.032 A 
HETATM    3  C   UNL     1      39.301 -12.785   1.247  1.00  0.00     0.031 A 
HETATM    4  C   UNL     1      39.360 -13.315  -0.049  1.00  0.00     0.030 A 
HETATM    5  C   UNL     1      39.916 -14.595  -0.171  1.00  0.00     0.031 A 
HETATM    6  C   UNL     1      40.384 -15.311   0.951  1.00  0.00     0.032 A 
ENDROOT
BRANCH   1   7
HETATM    7  N   UNL     1      40.821 -15.502   3.323  1.00  0.00    -0.325 N 
HETATM    8  C   UNL     1      41.939 -15.180   4.074  1.00  0.00     0.246 C 
HETATM    9  O   UNL     1      42.596 -14.143   3.984  1.00  0.00    -0.271 OA
HETATM   10  H   UNL     1      40.325 -16.339   3.613  1.00  0.00     0.169 HD
BRANCH   8  11
HETATM   11  C   UNL     1      42.399 -16.277   5.034  1.00  0.00     0.278 C 
BRANCH  11  12
HETATM   12  O   UNL     1      43.707 -16.782   4.802  1.00  0.00    -0.342 OA
BRANCH  12  13
HETATM   13  C   UNL     1      43.774 -18.143   4.581  1.00  0.00     0.075 A 
HETATM   14  C   UNL     1      43.673 -18.580   3.243  1.00  0.00    -0.023 A 
HETATM   15  C   UNL     1      43.651 -19.970   2.966  1.00  0.00    -0.053 A 
HETATM   16  C   UNL     1      43.525 -17.585   2.119  1.00  0.00     0.052 C 
HETATM   17  C   UNL     1      43.505 -20.513   1.568  1.00  0.00     0.049 C 
HETATM   18  C   UNL     1      43.815 -20.889   4.013  1.00  0.00     0.007 A 
HETATM   19  C   UNL     1      43.966 -20.451   5.323  1.00  0.00     0.003 A 
HETATM   20  C   UNL     1      43.942 -19.087   5.605  1.00  0.00     0.037 A 
ENDBRANCH  12  13
ENDBRANCH  11  12
ENDBRANCH   8  11
ENDBRANCH   1   7
BRANCH   4  21
HETATM   21  N   UNL     1      38.936 -12.545  -1.127  1.00  0.00    -0.378 N 
HETATM   22  C   UNL     1      39.813 -11.543  -1.743  1.00  0.00     0.150 C 
HETATM   23  C   UNL     1      38.953 -10.395  -2.329  1.00  0.00     0.255 C 
HETATM   24  N   UNL     1      37.855 -10.921  -3.261  1.00  0.00    -0.064 N 
HETATM   25  H   UNL     1      38.326 -11.329  -4.077  1.00  0.00     0.280 HD
HETATM   26  C   UNL     1      37.036 -12.026  -2.594  1.00  0.00     0.255 C 
HETATM   27  C   UNL     1      37.946 -13.138  -2.044  1.00  0.00     0.150 C 
BRANCH  24  28
HETATM   28  C   UNL     1      36.947  -9.823  -3.763  1.00  0.00     0.273 C 
BRANCH  28  29
HETATM   29  C   UNL     1      35.491 -10.072  -3.486  1.00  0.00    -0.033 A 
HETATM   30  C   UNL     1      34.875  -9.509  -2.357  1.00  0.00     0.009 A 
HETATM   31  C   UNL     1      33.524  -9.748  -2.100  1.00  0.00     0.001 A 
HETATM   32  C   UNL     1      32.779 -10.550  -2.961  1.00  0.00     0.000 A 
HETATM   33  C   UNL     1      33.380 -11.113  -4.084  1.00  0.00     0.001 A 
HETATM   34  C   UNL     1      34.730 -10.876  -4.347  1.00  0.00     0.009 A 
ENDBRANCH  28  29
ENDBRANCH  24  28
ENDBRANCH   4  21
TORSDOF 7
ENDMDL
MODEL 3
REMARK VINA RESULT:      -8.6      7.604     10.393
REMARK  7 active torsions:
REMARK  status: ('A' for Active; 'I' for Inactive)
REMARK    1  A    between atoms: C_5  and  O_6 
REMARK    2  A    between atoms: O_6  and  C_7 
REMARK    3  A    between atoms: C_7  and  C_8 
REMARK       I    between atoms: C_8  and  N_9 
REMARK    4  A    between atoms: N_9  and  C_10 
REMARK    5  A    between atoms: C_13  and  N_14 
REMARK    6  A    between atoms: N_17  and  C_19 
REMARK    7  A    between atoms: C_19  and  C_20 
ROOT
HETATM    1  C   UNL     1      40.411 -14.783   2.389  1.00  0.00     0.034 A 
HETATM    2  C   UNL     1      39.781 -13.556   2.578  1.00  0.00     0.032 A 
HETATM    3  C   UNL     1      39.414 -12.759   1.489  1.00  0.00     0.031 A 
HETATM    4  C   UNL     1      39.649 -13.148   0.163  1.00  0.00     0.030 A 
HETATM    5  C   UNL     1      40.287 -14.382  -0.017  1.00  0.00     0.031 A 
HETATM    6  C   UNL     1      40.665 -15.189   1.077  1.00  0.00     0.032 A 
ENDROOT
BRANCH   1   7
HETATM    7  N   UNL     1      40.842 -15.605   3.454  1.00  0.00    -0.325 N 
HETATM    8  C   UNL     1      41.857 -15.319   4.351  1.00  0.00     0.246 C 
HETATM    9  O   UNL     1      42.470 -14.255   4.433  1.00  0.00    -0.271 OA
HETATM   10  H   UNL     1      40.357 -16.483   3.607  1.00  0.00     0.169 HD
BRANCH   8  11
HETATM   11  C   UNL     1      42.262 -16.488   5.249  1.00  0.00     0.278 C 
BRANCH  11  12
HETATM   12  O   UNL     1      43.596 -16.951   5.081  1.00  0.00    -0.342 OA
BRANCH  12  13
HETATM   13  C   UNL     1      43.710 -18.294   4.779  1.00  0.00     0.075 A 
HETATM   14  C   UNL     1      43.695 -18.646   3.413  1.00  0.00    -0.023 A 
HETATM   15  C   UNL     1      43.725 -20.015   3.048  1.00  0.00    -0.053 A 
HETATM   16  C   UNL     1      43.582 -17.585   2.347  1.00  0.00     0.052 C 
HETATM   17  C   UNL     1      43.672 -20.470   1.613  1.00  0.00     0.049 C 
HETATM   18  C   UNL     1      43.857 -20.995   4.043  1.00  0.00     0.007 A 
HETATM   19  C   UNL     1      43.923 -20.639   5.384  1.00  0.00     0.003 A 
HETATM   20  C   UNL     1      43.847 -19.297   5.750  1.00  0.00     0.037 A 
ENDBRANCH  12  13
ENDBRANCH  11  12
ENDBRANCH   8  11
ENDBRANCH   1   7
BRANCH   4  21
HETATM   21  N   UNL     1      39.306 -12.291  -0.877  1.00  0.00    -0.378 N 
HETATM   22  C   UNL     1      39.798 -12.509  -2.242  1.00  0.00     0.150 C 
HETATM   23  C   UNL     1      39.928 -11.148  -2.969  1.00  0.00     0.255 C 
HETATM   24  N   UNL     1      38.629 -10.335  -2.896  1.00  0.00    -0.064 N 
HETATM   25  H   UNL     1      37.926 -10.848  -3.440  1.00  0.00     0.280 HD
HETATM   26  C   UNL     1      38.119 -10.220  -1.460  1.00  0.00     0.255 C 
HETATM   27  C   UNL     1      38.003 -11.606  -0.799  1.00  0.00     0.150 C 
BRANCH  24  28
HETATM   28  C   UNL     1      38.769  -8.964  -3.516  1.00  0.00     0.273 C 
BRANCH  28  29
HETATM   29  C   UNL     1      40.124  -8.348  -3.314  1.00  0.00    -0.033 A 
HETATM   30  C   UNL     1      41.015  -8.220  -4.391  1.00  0.00     0.009 A 
HETATM   31  C   UNL     1      42.276  -7.652  -4.198  1.00  0.00     0.001 A 
HETATM   32  C   UNL     1      42.658  -7.211  -2.934  1.00  0.00     0.000 A 
HETATM   33  C   UNL     1      41.782  -7.333  -1.858  1.00  0.00     0.001 A 
HETATM   34  C   UNL     1      40.520  -7.897  -2.046  1.00  0.00     0.009 A 
ENDBRANCH  28  29
ENDBRANCH  24  28
ENDBRANCH   4  21
TORSDOF 7
ENDMDL
MODEL 4
REMARK VINA RESULT:      -8.5      2.483      3.491
REMARK  7 active torsions:
REMARK  status: ('A' for Active; 'I' for Inactive)
REMARK    1  A    between atoms: C_5  and  O_6 
REMARK    2  A    between atoms: O_6  and  C_7 
REMARK    3  A    between atoms: C_7  and  C_8 
REMARK       I    between atoms: C_8  and  N_9 
REMARK    4  A    between atoms: N_9  and  C_10 
REMARK    5  A    between atoms: C_13  and  N_14 
REMARK    6  A    between atoms: N_17  and  C_19 
REMARK    7  A    between atoms: C_19  and  C_20 
ROOT
HETATM    1  C   UNL     1      43.589 -12.629   6.415  1.00  0.00     0.034 A 
HETATM    2  C   UNL     1      42.410 -11.923   6.192  1.00  0.00     0.032 A 
HETATM    3  C   UNL     1      42.247 -10.621   6.680  1.00  0.00     0.031 A 
HETATM    4  C   UNL     1      43.250  -9.961   7.402  1.00  0.00     0.030 A 
HETATM    5  C   UNL     1      44.431 -10.682   7.625  1.00  0.00     0.031 A 
HETATM    6  C   UNL     1      44.600 -11.996   7.141  1.00  0.00     0.032 A 
ENDROOT
BRANCH   1   7
HETATM    7  N   UNL     1      43.788 -13.959   5.984  1.00  0.00    -0.325 N 
HETATM    8  C   UNL     1      43.570 -15.104   6.731  1.00  0.00     0.246 C 
HETATM    9  O   UNL     1      43.063 -15.150   7.851  1.00  0.00    -0.271 OA
HETATM   10  H   UNL     1      44.097 -14.112   5.029  1.00  0.00     0.169 HD
BRANCH   8  11
HETATM   11  C   UNL     1      44.092 -16.391   6.092  1.00  0.00     0.278 C 
BRANCH  11  12
HETATM   12  O   UNL     1      43.285 -16.925   5.051  1.00  0.00    -0.342 OA
BRANCH  12  13
HETATM   13  C   UNL     1      43.536 -18.247   4.741  1.00  0.00     0.075 A 
HETATM   14  C   UNL     1      43.535 -18.595   3.374  1.00  0.00    -0.023 A 
HETATM   15  C   UNL     1      43.704 -19.953   3.003  1.00  0.00    -0.053 A 
HETATM   16  C   UNL     1      43.294 -17.550   2.315  1.00  0.00     0.052 C 
HETATM   17  C   UNL     1      43.675 -20.408   1.567  1.00  0.00     0.049 C 
HETATM   18  C   UNL     1      43.954 -20.916   3.992  1.00  0.00     0.007 A 
HETATM   19  C   UNL     1      44.005 -20.559   5.333  1.00  0.00     0.003 A 
HETATM   20  C   UNL     1      43.793 -19.233   5.705  1.00  0.00     0.037 A 
ENDBRANCH  12  13
ENDBRANCH  11  12
ENDBRANCH   8  11
ENDBRANCH   1   7
BRANCH   4  21
HETATM   21  N   UNL     1      43.011  -8.686   7.904  1.00  0.00    -0.378 N 
HETATM   22  C   UNL     1      44.000  -7.995   8.740  1.00  0.00     0.150 C 
HETATM   23  C   UNL     1      43.272  -7.044   9.722  1.00  0.00     0.255 C 
HETATM   24  N   UNL     1      42.303  -6.104   8.996  1.00  0.00    -0.064 N 
HETATM   25  H   UNL     1      42.874  -5.480   8.413  1.00  0.00     0.280 HD
HETATM   26  C   UNL     1      41.360  -6.874   8.072  1.00  0.00     0.255 C 
HETATM   27  C   UNL     1      42.145  -7.791   7.116  1.00  0.00     0.150 C 
BRANCH  24  28
HETATM   28  C   UNL     1      41.513  -5.237   9.949  1.00  0.00     0.273 C 
BRANCH  28  29
HETATM   29  C   UNL     1      41.995  -3.816  10.009  1.00  0.00    -0.033 A 
HETATM   30  C   UNL     1      42.929  -3.422  10.980  1.00  0.00     0.009 A 
HETATM   31  C   UNL     1      43.370  -2.098  11.037  1.00  0.00     0.001 A 
HETATM   32  C   UNL     1      42.883  -1.160  10.130  1.00  0.00     0.000 A 
HETATM   33  C   UNL     1      41.957  -1.540   9.162  1.00  0.00     0.001 A 
HETATM   34  C   UNL     1      41.515  -2.862   9.100  1.00  0.00     0.009 A 
ENDBRANCH  28  29
ENDBRANCH  24  28
ENDBRANCH   4  21
TORSDOF 7
ENDMDL
MODEL 5
REMARK VINA RESULT:      -8.5      1.505      2.140
REMARK  7 active torsions:
REMARK  status: ('A' for Active; 'I' for Inactive)
REMARK    1  A    between atoms: C_5  and  O_6 
REMARK    2  A    between atoms: O_6  and  C_7 
REMARK    3  A    between atoms: C_7  and  C_8 
REMARK       I    between atoms: C_8  and  N_9 
REMARK    4  A    between atoms: N_9  and  C_10 
REMARK    5  A    between atoms: C_13  and  N_14 
REMARK    6  A    between atoms: N_17  and  C_19 
REMARK    7  A    between atoms: C_19  and  C_20 
ROOT
HETATM    1  C   UNL     1      42.942 -12.241   5.662  1.00  0.00     0.034 A 
HETATM    2  C   UNL     1      42.164 -11.098   5.498  1.00  0.00     0.032 A 
HETATM    3  C   UNL     1      42.215 -10.052   6.426  1.00  0.00     0.031 A 
HETATM    4  C   UNL     1      43.046 -10.091   7.553  1.00  0.00     0.030 A 
HETATM    5  C   UNL     1      43.823 -11.247   7.712  1.00  0.00     0.031 A 
HETATM    6  C   UNL     1      43.772 -12.308   6.784  1.00  0.00     0.032 A 
ENDROOT
BRANCH   1   7
HETATM    7  N   UNL     1      42.896 -13.343   4.780  1.00  0.00    -0.325 N 
HETATM    8  C   UNL     1      41.836 -14.221   4.621  1.00  0.00     0.246 C 
HETATM    9  O   UNL     1      40.726 -14.115   5.140  1.00  0.00    -0.271 OA
HETATM   10  H   UNL     1      43.697 -13.510   4.180  1.00  0.00     0.169 HD
BRANCH   8  11
HETATM   11  C   UNL     1      42.152 -15.453   3.773  1.00  0.00     0.278 C 
BRANCH  11  12
HETATM   12  O   UNL     1      43.395 -16.084   4.053  1.00  0.00    -0.342 OA
BRANCH  12  13
HETATM   13  C   UNL     1      43.470 -17.411   3.677  1.00  0.00     0.075 A 
HETATM   14  C   UNL     1      43.755 -18.348   4.693  1.00  0.00    -0.023 A 
HETATM   15  C   UNL     1      43.927 -19.712   4.350  1.00  0.00    -0.053 A 
HETATM   16  C   UNL     1      43.940 -17.900   6.121  1.00  0.00     0.052 C 
HETATM   17  C   UNL     1      44.272 -20.764   5.372  1.00  0.00     0.049 C 
HETATM   18  C   UNL     1      43.727 -20.125   3.024  1.00  0.00     0.007 A 
HETATM   19  C   UNL     1      43.396 -19.205   2.038  1.00  0.00     0.003 A 
HETATM   20  C   UNL     1      43.272 -17.856   2.362  1.00  0.00     0.037 A 
ENDBRANCH  12  13
ENDBRANCH  11  12
ENDBRANCH   8  11
ENDBRANCH   1   7
BRANCH   4  21
HETATM   21  N   UNL     1      43.017  -9.042   8.466  1.00  0.00    -0.378 N 
HETATM   22  C   UNL     1      43.893  -9.029   9.644  1.00  0.00     0.150 C 
HETATM   23  C   UNL     1      43.200  -8.259  10.795  1.00  0.00     0.255 C 
HETATM   24  N   UNL     1      42.729  -6.868  10.351  1.00  0.00    -0.064 N 
HETATM   25  H   UNL     1      43.573  -6.319  10.148  1.00  0.00     0.280 HD
HETATM   26  C   UNL     1      41.899  -6.940   9.070  1.00  0.00     0.255 C 
HETATM   27  C   UNL     1      42.648  -7.707   7.964  1.00  0.00     0.150 C 
BRANCH  24  28
HETATM   28  C   UNL     1      41.965  -6.143  11.433  1.00  0.00     0.273 C 
BRANCH  28  29
HETATM   29  C   UNL     1      42.428  -4.730  11.653  1.00  0.00    -0.033 A 
HETATM   30  C   UNL     1      43.036  -4.011  10.612  1.00  0.00     0.009 A 
HETATM   31  C   UNL     1      43.470  -2.701  10.823  1.00  0.00     0.001 A 
HETATM   32  C   UNL     1      43.303  -2.100  12.068  1.00  0.00     0.000 A 
HETATM   33  C   UNL     1      42.700  -2.805  13.107  1.00  0.00     0.001 A 
HETATM   34  C   UNL     1      42.263  -4.114  12.902  1.00  0.00     0.009 A 
ENDBRANCH  28  29
ENDBRANCH  24  28
ENDBRANCH   4  21
TORSDOF 7
ENDMDL
MODEL 6
REMARK VINA RESULT:      -8.3      5.021     13.236
REMARK  7 active torsions:
REMARK  status: ('A' for Active; 'I' for Inactive)
REMARK    1  A    between atoms: C_5  and  O_6 
REMARK    2  A    between atoms: O_6  and  C_7 
REMARK    3  A    between atoms: C_7  and  C_8 
REMARK       I    between atoms: C_8  and  N_9 
REMARK    4  A    between atoms: N_9  and  C_10 
REMARK    5  A    between atoms: C_13  and  N_14 
REMARK    6  A    between atoms: N_17  and  C_19 
REMARK    7  A    between atoms: C_19  and  C_20 
ROOT
HETATM    1  C   UNL     1      42.262  -7.426  15.193  1.00  0.00     0.034 A 
HETATM    2  C   UNL     1      43.204  -7.006  14.258  1.00  0.00     0.032 A 
HETATM    3  C   UNL     1      43.333  -7.654  13.025  1.00  0.00     0.031 A 
HETATM    4  C   UNL     1      42.528  -8.741  12.662  1.00  0.00     0.030 A 
HETATM    5  C   UNL     1      41.586  -9.159  13.611  1.00  0.00     0.031 A 
HETATM    6  C   UNL     1      41.453  -8.515  14.858  1.00  0.00     0.032 A 
ENDROOT
BRANCH   1   7
HETATM    7  N   UNL     1      42.120  -6.837  16.469  1.00  0.00    -0.325 N 
HETATM    8  C   UNL     1      41.498  -5.632  16.750  1.00  0.00     0.246 C 
HETATM    9  O   UNL     1      40.873  -4.938  15.950  1.00  0.00    -0.271 OA
HETATM   10  H   UNL     1      42.482  -7.342  17.272  1.00  0.00     0.169 HD
BRANCH   8  11
HETATM   11  C   UNL     1      41.700  -5.130  18.180  1.00  0.00     0.278 C 
BRANCH  11  12
HETATM   12  O   UNL     1      41.026  -5.871  19.188  1.00  0.00    -0.342 OA
BRANCH  12  13
HETATM   13  C   UNL     1      41.776  -6.870  19.775  1.00  0.00     0.075 A 
HETATM   14  C   UNL     1      41.163  -8.132  19.918  1.00  0.00    -0.023 A 
HETATM   15  C   UNL     1      41.857  -9.170  20.589  1.00  0.00    -0.053 A 
HETATM   16  C   UNL     1      39.758  -8.364  19.421  1.00  0.00     0.052 C 
HETATM   17  C   UNL     1      41.252 -10.531  20.815  1.00  0.00     0.049 C 
HETATM   18  C   UNL     1      43.173  -8.955  21.026  1.00  0.00     0.007 A 
HETATM   19  C   UNL     1      43.790  -7.726  20.836  1.00  0.00     0.003 A 
HETATM   20  C   UNL     1      43.095  -6.688  20.218  1.00  0.00     0.037 A 
ENDBRANCH  12  13
ENDBRANCH  11  12
ENDBRANCH   8  11
ENDBRANCH   1   7
BRANCH   4  21
HETATM   21  N   UNL     1      42.737  -9.375  11.442  1.00  0.00    -0.378 N 
HETATM   22  C   UNL     1      43.614 -10.546  11.328  1.00  0.00     0.150 C 
HETATM   23  C   UNL     1      44.247 -10.582   9.915  1.00  0.00     0.255 C 
HETATM   24  N   UNL     1      43.188 -10.487   8.811  1.00  0.00    -0.064 N 
HETATM   25  H   UNL     1      42.627 -11.346   8.862  1.00  0.00     0.280 HD
HETATM   26  C   UNL     1      42.248  -9.303   9.035  1.00  0.00     0.255 C 
HETATM   27  C   UNL     1      41.646  -9.331  10.452  1.00  0.00     0.150 C 
BRANCH  24  28
HETATM   28  C   UNL     1      43.794 -10.423   7.429  1.00  0.00     0.273 C 
BRANCH  28  29
HETATM   29  C   UNL     1      43.519 -11.640   6.593  1.00  0.00    -0.033 A 
HETATM   30  C   UNL     1      42.978 -11.511   5.305  1.00  0.00     0.009 A 
HETATM   31  C   UNL     1      42.718 -12.646   4.534  1.00  0.00     0.001 A 
HETATM   32  C   UNL     1      42.993 -13.914   5.040  1.00  0.00     0.000 A 
HETATM   33  C   UNL     1      43.531 -14.053   6.317  1.00  0.00     0.001 A 
HETATM   34  C   UNL     1      43.794 -12.923   7.091  1.00  0.00     0.009 A 
ENDBRANCH  28  29
ENDBRANCH  24  28
ENDBRANCH   4  21
TORSDOF 7
ENDMDL
MODEL 7
REMARK VINA RESULT:      -8.3      2.787     11.498
REMARK  7 active torsions:
REMARK  status: ('A' for Active; 'I' for Inactive)
REMARK    1  A    between atoms: C_5  and  O_6 
REMARK    2  A    between atoms: O_6  and  C_7 
REMARK    3  A    between atoms: C_7  and  C_8 
REMARK       I    between atoms: C_8  and  N_9 
REMARK    4  A    between atoms: N_9  and  C_10 
REMARK    5  A    between atoms: C_13  and  N_14 
REMARK    6  A    between atoms: N_17  and  C_19 
REMARK    7  A    between atoms: C_19  and  C_20 
ROOT
HETATM    1  C   UNL     1      40.726 -10.074   7.141  1.00  0.00     0.034 A 
HETATM    2  C   UNL     1      42.033 -10.451   6.847  1.00  0.00     0.032 A 
HETATM    3  C   UNL     1      42.303 -11.640   6.160  1.00  0.00     0.031 A 
HETATM    4  C   UNL     1      41.287 -12.502   5.727  1.00  0.00     0.030 A 
HETATM    5  C   UNL     1      39.974 -12.116   6.031  1.00  0.00     0.031 A 
HETATM    6  C   UNL     1      39.695 -10.922   6.728  1.00  0.00     0.032 A 
ENDROOT
BRANCH   1   7
HETATM    7  N   UNL     1      40.401  -8.908   7.869  1.00  0.00    -0.325 N 
HETATM    8  C   UNL     1      40.692  -7.605   7.503  1.00  0.00     0.246 C 
HETATM    9  O   UNL     1      41.181  -7.248   6.432  1.00  0.00    -0.271 OA
HETATM   10  H   UNL     1      39.883  -9.014   8.736  1.00  0.00     0.169 HD
BRANCH   8  11
HETATM   11  C   UNL     1      40.432  -6.564   8.592  1.00  0.00     0.278 C 
BRANCH  11  12
HETATM   12  O   UNL     1      41.577  -6.148   9.324  1.00  0.00    -0.342 OA
BRANCH  12  13
HETATM   13  C   UNL     1      42.009  -7.043  10.284  1.00  0.00     0.075 A 
HETATM   14  C   UNL     1      43.217  -7.725  10.025  1.00  0.00    -0.023 A 
HETATM   15  C   UNL     1      43.664  -8.715  10.935  1.00  0.00    -0.053 A 
HETATM   16  C   UNL     1      43.996  -7.455   8.762  1.00  0.00     0.052 C 
HETATM   17  C   UNL     1      44.922  -9.512  10.707  1.00  0.00     0.049 C 
HETATM   18  C   UNL     1      42.948  -8.942  12.120  1.00  0.00     0.007 A 
HETATM   19  C   UNL     1      41.787  -8.230  12.394  1.00  0.00     0.003 A 
HETATM   20  C   UNL     1      41.319  -7.289  11.480  1.00  0.00     0.037 A 
ENDBRANCH  12  13
ENDBRANCH  11  12
ENDBRANCH   8  11
ENDBRANCH   1   7
BRANCH   4  21
HETATM   21  N   UNL     1      41.619 -13.694   5.093  1.00  0.00    -0.378 N 
HETATM   22  C   UNL     1      42.186 -14.825   5.837  1.00  0.00     0.150 C 
HETATM   23  C   UNL     1      43.109 -15.647   4.904  1.00  0.00     0.255 C 
HETATM   24  N   UNL     1      42.399 -16.047   3.605  1.00  0.00    -0.064 N 
HETATM   25  H   UNL     1      41.650 -16.701   3.864  1.00  0.00     0.280 HD
HETATM   26  C   UNL     1      41.751 -14.841   2.925  1.00  0.00     0.255 C 
HETATM   27  C   UNL     1      40.840 -14.075   3.901  1.00  0.00     0.150 C 
BRANCH  24  28
HETATM   28  C   UNL     1      43.315 -16.765   2.641  1.00  0.00     0.273 C 
BRANCH  28  29
HETATM   29  C   UNL     1      43.519 -18.216   2.973  1.00  0.00    -0.033 A 
HETATM   30  C   UNL     1      43.189 -19.212   2.041  1.00  0.00     0.009 A 
HETATM   31  C   UNL     1      43.375 -20.560   2.356  1.00  0.00     0.001 A 
HETATM   32  C   UNL     1      43.888 -20.923   3.599  1.00  0.00     0.000 A 
HETATM   33  C   UNL     1      44.220 -19.943   4.530  1.00  0.00     0.001 A 
HETATM   34  C   UNL     1      44.038 -18.595   4.220  1.00  0.00     0.009 A 
ENDBRANCH  28  29
ENDBRANCH  24  28
ENDBRANCH   4  21
TORSDOF 7
ENDMDL
MODEL 8
REMARK VINA RESULT:      -8.2      7.550     11.464
REMARK  7 active torsions:
REMARK  status: ('A' for Active; 'I' for Inactive)
REMARK    1  A    between atoms: C_5  and  O_6 
REMARK    2  A    between atoms: O_6  and  C_7 
REMARK    3  A    between atoms: C_7  and  C_8 
REMARK       I    between atoms: C_8  and  N_9 
REMARK    4  A    between atoms: N_9  and  C_10 
REMARK    5  A    between atoms: C_13  and  N_14 
REMARK    6  A    between atoms: N_17  and  C_19 
REMARK    7  A    between atoms: C_19  and  C_20 
ROOT
HETATM    1  C   UNL     1      40.527 -14.779   2.401  1.00  0.00     0.034 A 
HETATM    2  C   UNL     1      40.737 -15.061   1.054  1.00  0.00     0.032 A 
HETATM    3  C   UNL     1      40.231 -14.223   0.054  1.00  0.00     0.031 A 
HETATM    4  C   UNL     1      39.501 -13.063   0.348  1.00  0.00     0.030 A 
HETATM    5  C   UNL     1      39.292 -12.789   1.706  1.00  0.00     0.031 A 
HETATM    6  C   UNL     1      39.794 -13.633   2.719  1.00  0.00     0.032 A 
ENDROOT
BRANCH   1   7
HETATM    7  N   UNL     1      40.977 -15.614   3.446  1.00  0.00    -0.325 N 
HETATM    8  C   UNL     1      41.899 -15.279   4.424  1.00  0.00     0.246 C 
HETATM    9  O   UNL     1      42.388 -14.165   4.605  1.00  0.00    -0.271 OA
HETATM   10  H   UNL     1      40.581 -16.546   3.519  1.00  0.00     0.169 HD
BRANCH   8  11
HETATM   11  C   UNL     1      42.371 -16.452   5.283  1.00  0.00     0.278 C 
BRANCH  11  12
HETATM   12  O   UNL     1      43.680 -16.928   4.999  1.00  0.00    -0.342 OA
BRANCH  12  13
HETATM   13  C   UNL     1      43.760 -18.278   4.721  1.00  0.00     0.075 A 
HETATM   14  C   UNL     1      43.717 -18.656   3.362  1.00  0.00    -0.023 A 
HETATM   15  C   UNL     1      43.711 -20.032   3.024  1.00  0.00    -0.053 A 
HETATM   16  C   UNL     1      43.614 -17.613   2.278  1.00  0.00     0.052 C 
HETATM   17  C   UNL     1      43.627 -20.513   1.599  1.00  0.00     0.049 C 
HETATM   18  C   UNL     1      43.833 -20.996   4.036  1.00  0.00     0.007 A 
HETATM   19  C   UNL     1      43.927 -20.616   5.369  1.00  0.00     0.003 A 
HETATM   20  C   UNL     1      43.886 -19.266   5.709  1.00  0.00     0.037 A 
ENDBRANCH  12  13
ENDBRANCH  11  12
ENDBRANCH   8  11
ENDBRANCH   1   7
BRANCH   4  21
HETATM   21  N   UNL     1      38.981 -12.296  -0.689  1.00  0.00    -0.378 N 
HETATM   22  C   UNL     1      39.430 -10.917  -0.920  1.00  0.00     0.150 C 
HETATM   23  C   UNL     1      38.275 -10.096  -1.545  1.00  0.00     0.255 C 
HETATM   24  N   UNL     1      37.694 -10.780  -2.788  1.00  0.00    -0.064 N 
HETATM   25  H   UNL     1      38.430 -10.771  -3.504  1.00  0.00     0.280 HD
HETATM   26  C   UNL     1      37.332 -12.239  -2.509  1.00  0.00     0.255 C 
HETATM   27  C   UNL     1      38.524 -13.000  -1.899  1.00  0.00     0.150 C 
BRANCH  24  28
HETATM   28  C   UNL     1      36.503 -10.042  -3.353  1.00  0.00     0.273 C 
BRANCH  28  29
HETATM   29  C   UNL     1      36.827  -9.217  -4.566  1.00  0.00    -0.033 A 
HETATM   30  C   UNL     1      35.799  -8.643  -5.331  1.00  0.00     0.009 A 
HETATM   31  C   UNL     1      36.103  -7.883  -6.461  1.00  0.00     0.001 A 
HETATM   32  C   UNL     1      37.430  -7.690  -6.838  1.00  0.00     0.000 A 
HETATM   33  C   UNL     1      38.458  -8.254  -6.086  1.00  0.00     0.001 A 
HETATM   34  C   UNL     1      38.159  -9.014  -4.954  1.00  0.00     0.009 A 
ENDBRANCH  28  29
ENDBRANCH  24  28
ENDBRANCH   4  21
TORSDOF 7
ENDMDL
MODEL 9
REMARK VINA RESULT:      -8.2      2.588      3.630
REMARK  7 active torsions:
REMARK  status: ('A' for Active; 'I' for Inactive)
REMARK    1  A    between atoms: C_5  and  O_6 
REMARK    2  A    between atoms: O_6  and  C_7 
REMARK    3  A    between atoms: C_7  and  C_8 
REMARK       I    between atoms: C_8  and  N_9 
REMARK    4  A    between atoms: N_9  and  C_10 
REMARK    5  A    between atoms: C_13  and  N_14 
REMARK    6  A    between atoms: N_17  and  C_19 
REMARK    7  A    between atoms: C_19  and  C_20 
ROOT
HETATM    1  C   UNL     1      42.088 -10.129   4.288  1.00  0.00     0.034 A 
HETATM    2  C   UNL     1      41.436  -9.150   5.031  1.00  0.00     0.032 A 
HETATM    3  C   UNL     1      41.669  -9.013   6.404  1.00  0.00     0.031 A 
HETATM    4  C   UNL     1      42.565  -9.837   7.097  1.00  0.00     0.030 A 
HETATM    5  C   UNL     1      43.213 -10.823   6.341  1.00  0.00     0.031 A 
HETATM    6  C   UNL     1      42.980 -10.970   4.958  1.00  0.00     0.032 A 
ENDROOT
BRANCH   1   7
HETATM    7  N   UNL     1      41.857 -10.339   2.910  1.00  0.00    -0.325 N 
HETATM    8  C   UNL     1      40.702 -10.851   2.341  1.00  0.00     0.246 C 
HETATM    9  O   UNL     1      39.654 -11.100   2.935  1.00  0.00    -0.271 OA
HETATM   10  H   UNL     1      42.586 -10.071   2.256  1.00  0.00     0.169 HD
BRANCH   8  11
HETATM   11  C   UNL     1      40.819 -11.186   0.854  1.00  0.00     0.278 C 
BRANCH  11  12
HETATM   12  O   UNL     1      41.740 -12.220   0.533  1.00  0.00    -0.342 OA
BRANCH  12  13
HETATM   13  C   UNL     1      41.330 -13.492   0.884  1.00  0.00     0.075 A 
HETATM   14  C   UNL     1      42.140 -14.195   1.800  1.00  0.00    -0.023 A 
HETATM   15  C   UNL     1      41.813 -15.534   2.131  1.00  0.00    -0.053 A 
HETATM   16  C   UNL     1      43.378 -13.558   2.377  1.00  0.00     0.052 C 
HETATM   17  C   UNL     1      42.651 -16.362   3.070  1.00  0.00     0.049 C 
HETATM   18  C   UNL     1      40.645 -16.112   1.610  1.00  0.00     0.007 A 
HETATM   19  C   UNL     1      39.824 -15.396   0.748  1.00  0.00     0.003 A 
HETATM   20  C   UNL     1      40.166 -14.096   0.385  1.00  0.00     0.037 A 
ENDBRANCH  12  13
ENDBRANCH  11  12
ENDBRANCH   8  11
ENDBRANCH   1   7
BRANCH   4  21
HETATM   21  N   UNL     1      42.717  -9.686   8.471  1.00  0.00    -0.378 N 
HETATM   22  C   UNL     1      43.978 -10.024   9.143  1.00  0.00     0.150 C 
HETATM   23  C   UNL     1      43.684 -10.481  10.593  1.00  0.00     0.255 C 
HETATM   24  N   UNL     1      42.827  -9.461  11.352  1.00  0.00    -0.064 N 
HETATM   25  H   UNL     1      43.398  -8.615  11.462  1.00  0.00     0.280 HD
HETATM   26  C   UNL     1      41.576  -9.080  10.560  1.00  0.00     0.255 C 
HETATM   27  C   UNL     1      41.937  -8.626   9.134  1.00  0.00     0.150 C 
BRANCH  24  28
HETATM   28  C   UNL     1      42.449  -9.936  12.735  1.00  0.00     0.273 C 
BRANCH  28  29
HETATM   29  C   UNL     1      42.364  -8.830  13.749  1.00  0.00    -0.033 A 
HETATM   30  C   UNL     1      41.421  -8.888  14.787  1.00  0.00     0.009 A 
HETATM   31  C   UNL     1      41.341  -7.855  15.724  1.00  0.00     0.001 A 
HETATM   32  C   UNL     1      42.196  -6.760  15.631  1.00  0.00     0.000 A 
HETATM   33  C   UNL     1      43.135  -6.692  14.605  1.00  0.00     0.001 A 
HETATM   34  C   UNL     1      43.221  -7.722  13.668  1.00  0.00     0.009 A 
ENDBRANCH  28  29
ENDBRANCH  24  28
ENDBRANCH   4  21
TORSDOF 7
ENDMDL
MODEL 10
REMARK VINA RESULT:      -8.1      2.590     11.333
REMARK  7 active torsions:
REMARK  status: ('A' for Active; 'I' for Inactive)
REMARK    1  A    between atoms: C_5  and  O_6 
REMARK    2  A    between atoms: O_6  and  C_7 
REMARK    3  A    between atoms: C_7  and  C_8 
REMARK       I    between atoms: C_8  and  N_9 
REMARK    4  A    between atoms: N_9  and  C_10 
REMARK    5  A    between atoms: C_13  and  N_14 
REMARK    6  A    between atoms: N_17  and  C_19 
REMARK    7  A    between atoms: C_19  and  C_20 
ROOT
HETATM    1  C   UNL     1      43.661 -10.583   7.909  1.00  0.00     0.034 A 
HETATM    2  C   UNL     1      44.407 -11.667   7.456  1.00  0.00     0.032 A 
HETATM    3  C   UNL     1      43.951 -12.465   6.401  1.00  0.00     0.031 A 
HETATM    4  C   UNL     1      42.738 -12.217   5.744  1.00  0.00     0.030 A 
HETATM    5  C   UNL     1      41.993 -11.126   6.211  1.00  0.00     0.031 A 
HETATM    6  C   UNL     1      42.444 -10.320   7.277  1.00  0.00     0.032 A 
ENDROOT
BRANCH   1   7
HETATM    7  N   UNL     1      44.054  -9.774   8.998  1.00  0.00    -0.325 N 
HETATM    8  C   UNL     1      44.054 -10.140  10.334  1.00  0.00     0.246 C 
HETATM    9  O   UNL     1      43.817 -11.264  10.774  1.00  0.00    -0.271 OA
HETATM   10  H   UNL     1      44.396  -8.838   8.801  1.00  0.00     0.169 HD
BRANCH   8  11
HETATM   11  C   UNL     1      44.303  -8.990  11.310  1.00  0.00     0.278 C 
BRANCH  11  12
HETATM   12  O   UNL     1      43.392  -7.904  11.218  1.00  0.00    -0.342 OA
BRANCH  12  13
HETATM   13  C   UNL     1      42.112  -8.181  11.657  1.00  0.00     0.075 A 
HETATM   14  C   UNL     1      41.057  -7.923  10.757  1.00  0.00    -0.023 A 
HETATM   15  C   UNL     1      39.718  -8.110  11.185  1.00  0.00    -0.053 A 
HETATM   16  C   UNL     1      41.339  -7.393   9.374  1.00  0.00     0.052 C 
HETATM   17  C   UNL     1      38.538  -7.819  10.295  1.00  0.00     0.049 C 
HETATM   18  C   UNL     1      39.464  -8.628  12.463  1.00  0.00     0.007 A 
HETATM   19  C   UNL     1      40.510  -8.928  13.327  1.00  0.00     0.003 A 
HETATM   20  C   UNL     1      41.825  -8.703  12.928  1.00  0.00     0.037 A 
ENDBRANCH  12  13
ENDBRANCH  11  12
ENDBRANCH   8  11
ENDBRANCH   1   7
BRANCH   4  21
HETATM   21  N   UNL     1      42.313 -13.074   4.735  1.00  0.00    -0.378 N 
HETATM   22  C   UNL     1      40.895 -13.411   4.563  1.00  0.00     0.150 C 
HETATM   23  C   UNL     1      40.771 -14.832   3.962  1.00  0.00     0.255 C 
HETATM   24  N   UNL     1      41.608 -14.989   2.686  1.00  0.00    -0.064 N 
HETATM   25  H   UNL     1      41.189 -14.374   1.978  1.00  0.00     0.280 HD
HETATM   26  C   UNL     1      43.051 -14.536   2.904  1.00  0.00     0.255 C 
HETATM   27  C   UNL     1      43.105 -13.114   3.492  1.00  0.00     0.150 C 
BRANCH  24  28
HETATM   28  C   UNL     1      41.576 -16.397   2.141  1.00  0.00     0.273 C 
BRANCH  28  29
HETATM   29  C   UNL     1      42.522 -17.334   2.837  1.00  0.00    -0.033 A 
HETATM   30  C   UNL     1      42.872 -17.123   4.180  1.00  0.00     0.009 A 
HETATM   31  C   UNL     1      43.757 -17.992   4.821  1.00  0.00     0.001 A 
HETATM   32  C   UNL     1      44.300 -19.073   4.130  1.00  0.00     0.000 A 
HETATM   33  C   UNL     1      43.958 -19.292   2.798  1.00  0.00     0.001 A 
HETATM   34  C   UNL     1      43.073 -18.427   2.153  1.00  0.00     0.009 A 
ENDBRANCH  28  29
ENDBRANCH  24  28
ENDBRANCH   4  21
TORSDOF 7
ENDMDL
