MODEL 1
REMARK VINA RESULT:      -8.3      0.000      0.000
REMARK  10 active torsions:
REMARK  status: ('A' for Active; 'I' for Inactive)
REMARK    1  A    between atoms: O_2  and  C_3 
REMARK    2  A    between atoms: C_4  and  O_5 
REMARK    3  A    between atoms: O_5  and  C_6 
REMARK    4  A    between atoms: C_6  and  C_7 
REMARK    5  A    between atoms: C_16  and  C_17 
REMARK       I    between atoms: C_17  and  N_18 
REMARK    6  A    between atoms: N_18  and  C_19 
REMARK    7  A    between atoms: C_19  and  N_20 
REMARK    8  A    between atoms: N_20  and  C_21 
REMARK    9  A    between atoms: C_24  and  C_25 
REMARK   10  A    between atoms: C_25  and  N_26 
ROOT
HETATM    1  C   UNL     1      39.033 -11.821   0.554  1.00  0.00     0.257 C 
HETATM    2  N   UNL     1      39.802 -12.532  -0.362  1.00  0.00    -0.299 N 
HETATM    3  O   UNL     1      37.834 -11.606   0.445  1.00  0.00    -0.267 OA
HETATM    4  H   UNL     1      40.788 -12.320  -0.350  1.00  0.00     0.171 HD
ENDROOT
BRANCH   2   5
HETATM    5  C   UNL     1      39.564 -13.801  -0.846  1.00  0.00     0.179 C 
HETATM    6  S   UNL     1      39.176 -14.212  -2.416  1.00  0.00    -0.040 SA
BRANCH   5   7
HETATM    7  N   UNL     1      39.514 -14.798   0.100  1.00  0.00    -0.333 N 
HETATM    8  H   UNL     1      38.675 -15.369   0.025  1.00  0.00     0.168 HD
BRANCH   7   9
HETATM    9  C   UNL     1      40.474 -15.221   1.041  1.00  0.00     0.034 A 
HETATM   10  C   UNL     1      40.015 -15.663   2.284  1.00  0.00     0.030 A 
HETATM   11  C   UNL     1      40.907 -16.133   3.259  1.00  0.00     0.011 A 
HETATM   12  C   UNL     1      42.281 -16.209   2.997  1.00  0.00    -0.032 A 
HETATM   13  C   UNL     1      42.728 -15.784   1.731  1.00  0.00     0.011 A 
HETATM   14  C   UNL     1      41.838 -15.293   0.767  1.00  0.00     0.030 A 
BRANCH  12  15
HETATM   15  C   UNL     1      43.323 -16.733   3.961  1.00  0.00     0.273 C 
BRANCH  15  16
HETATM   16  N   UNL     1      43.295 -18.215   4.282  1.00  0.00    -0.067 N 
HETATM   17  H   UNL     1      42.308 -18.500   4.256  1.00  0.00     0.280 HD
HETATM   18  C   UNL     1      44.074 -19.039   3.278  1.00  0.00     0.235 C 
HETATM   19  C   UNL     1      43.878 -20.517   3.585  1.00  0.00     0.028 C 
HETATM   20  C   UNL     1      44.302 -20.854   5.010  1.00  0.00     0.003 C 
HETATM   21  C   UNL     1      43.599 -19.957   6.022  1.00  0.00     0.028 C 
HETATM   22  C   UNL     1      43.778 -18.482   5.693  1.00  0.00     0.235 C 
ENDBRANCH  15  16
ENDBRANCH  12  15
ENDBRANCH   7   9
ENDBRANCH   5   7
ENDBRANCH   2   5
BRANCH   1  23
HETATM   23  C   UNL     1      39.832 -11.118   1.595  1.00  0.00     0.035 A 
HETATM   24  C   UNL     1      39.202 -10.258   2.508  1.00  0.00     0.020 A 
HETATM   25  C   UNL     1      39.937  -9.694   3.549  1.00  0.00     0.040 A 
HETATM   26  C   UNL     1      41.300  -9.965   3.668  1.00  0.00     0.102 A 
HETATM   27  C   UNL     1      41.931 -10.803   2.742  1.00  0.00     0.102 A 
HETATM   28  C   UNL     1      41.206 -11.355   1.684  1.00  0.00     0.056 A 
BRANCH  26  29
HETATM   29  O   UNL     1      41.906  -9.487   4.793  1.00  0.00    -0.344 OA
BRANCH  29  30
HETATM   30  C   UNL     1      41.346  -9.998   6.006  1.00  0.00     0.214 C 
BRANCH  30  31
HETATM   31  C   UNL     1      41.998 -11.345   6.214  1.00  0.00    -0.034 A 
HETATM   32  C   UNL     1      41.262 -12.521   5.990  1.00  0.00     0.011 A 
HETATM   33  C   UNL     1      41.822 -13.771   6.262  1.00  0.00     0.024 A 
HETATM   34  C   UNL     1      43.119 -13.852   6.762  1.00  0.00     0.034 A 
HETATM   35 CL   UNL     1      43.799 -15.390   7.124  1.00  0.00    -0.084 Cl
HETATM   36  C   UNL     1      43.863 -12.696   6.985  1.00  0.00     0.024 A 
HETATM   37  C   UNL     1      43.304 -11.444   6.715  1.00  0.00     0.011 A 
ENDBRANCH  30  31
ENDBRANCH  29  30
ENDBRANCH  26  29
BRANCH  27  38
HETATM   38  O   UNL     1      43.266 -11.094   2.821  1.00  0.00    -0.353 OA
HETATM   39  C   UNL     1      43.461 -12.480   3.105  1.00  0.00     0.210 C 
ENDBRANCH  27  38
ENDBRANCH   1  23
TORSDOF 10
ENDMDL
MODEL 2
REMARK VINA RESULT:      -8.1      2.736      3.686
REMARK  10 active torsions:
REMARK  status: ('A' for Active; 'I' for Inactive)
REMARK    1  A    between atoms: O_2  and  C_3 
REMARK    2  A    between atoms: C_4  and  O_5 
REMARK    3  A    between atoms: O_5  and  C_6 
REMARK    4  A    between atoms: C_6  and  C_7 
REMARK    5  A    between atoms: C_16  and  C_17 
REMARK       I    between atoms: C_17  and  N_18 
REMARK    6  A    between atoms: N_18  and  C_19 
REMARK    7  A    between atoms: C_19  and  N_20 
REMARK    8  A    between atoms: N_20  and  C_21 
REMARK    9  A    between atoms: C_24  and  C_25 
REMARK   10  A    between atoms: C_25  and  N_26 
ROOT
HETATM    1  C   UNL     1      40.237 -11.826   3.603  1.00  0.00     0.257 C 
HETATM    2  N   UNL     1      40.393 -11.738   2.223  1.00  0.00    -0.299 N 
HETATM    3  O   UNL     1      39.195 -11.608   4.205  1.00  0.00    -0.267 OA
HETATM    4  H   UNL     1      41.337 -11.575   1.908  1.00  0.00     0.171 HD
ENDROOT
BRANCH   2   5
HETATM    5  C   UNL     1      39.638 -12.368   1.255  1.00  0.00     0.179 C 
HETATM    6  S   UNL     1      38.399 -11.695   0.364  1.00  0.00    -0.040 SA
BRANCH   5   7
HETATM    7  N   UNL     1      39.855 -13.720   1.120  1.00  0.00    -0.333 N 
HETATM    8  H   UNL     1      39.336 -14.124   0.343  1.00  0.00     0.168 HD
BRANCH   7   9
HETATM    9  C   UNL     1      40.755 -14.578   1.782  1.00  0.00     0.034 A 
HETATM   10  C   UNL     1      42.106 -14.491   1.439  1.00  0.00     0.030 A 
HETATM   11  C   UNL     1      43.067 -15.287   2.079  1.00  0.00     0.011 A 
HETATM   12  C   UNL     1      42.702 -16.164   3.109  1.00  0.00    -0.032 A 
HETATM   13  C   UNL     1      41.341 -16.223   3.462  1.00  0.00     0.011 A 
HETATM   14  C   UNL     1      40.379 -15.445   2.805  1.00  0.00     0.030 A 
BRANCH  12  15
HETATM   15  C   UNL     1      43.660 -17.038   3.888  1.00  0.00     0.273 C 
BRANCH  15  16
HETATM   16  N   UNL     1      43.462 -18.539   3.805  1.00  0.00    -0.067 N 
HETATM   17  H   UNL     1      42.482 -18.718   4.056  1.00  0.00     0.280 HD
HETATM   18  C   UNL     1      43.723 -19.081   2.415  1.00  0.00     0.235 C 
HETATM   19  C   UNL     1      43.365 -20.560   2.379  1.00  0.00     0.028 C 
HETATM   20  C   UNL     1      44.143 -21.351   3.426  1.00  0.00     0.003 C 
HETATM   21  C   UNL     1      43.969 -20.748   4.815  1.00  0.00     0.028 C 
HETATM   22  C   UNL     1      44.304 -19.263   4.835  1.00  0.00     0.235 C 
ENDBRANCH  15  16
ENDBRANCH  12  15
ENDBRANCH   7   9
ENDBRANCH   5   7
ENDBRANCH   2   5
BRANCH   1  23
HETATM   23  C   UNL     1      41.517 -11.982   4.345  1.00  0.00     0.035 A 
HETATM   24  C   UNL     1      42.610 -11.152   4.052  1.00  0.00     0.020 A 
HETATM   25  C   UNL     1      43.766 -11.227   4.827  1.00  0.00     0.040 A 
HETATM   26  C   UNL     1      43.843 -12.141   5.878  1.00  0.00     0.102 A 
HETATM   27  C   UNL     1      42.761 -12.985   6.154  1.00  0.00     0.102 A 
HETATM   28  C   UNL     1      41.608 -12.930   5.368  1.00  0.00     0.056 A 
BRANCH  26  29
HETATM   29  O   UNL     1      44.951 -12.047   6.669  1.00  0.00    -0.344 OA
BRANCH  29  30
HETATM   30  C   UNL     1      45.464 -10.717   6.779  1.00  0.00     0.214 C 
BRANCH  30  31
HETATM   31  C   UNL     1      44.943 -10.191   8.096  1.00  0.00    -0.034 A 
HETATM   32  C   UNL     1      43.807  -9.365   8.120  1.00  0.00     0.011 A 
HETATM   33  C   UNL     1      43.366  -8.800   9.319  1.00  0.00     0.024 A 
HETATM   34  C   UNL     1      44.059  -9.058  10.499  1.00  0.00     0.034 A 
HETATM   35 CL   UNL     1      43.532  -8.339  11.971  1.00  0.00    -0.084 Cl
HETATM   36  C   UNL     1      45.183  -9.879  10.493  1.00  0.00     0.024 A 
HETATM   37  C   UNL     1      45.627 -10.444   9.294  1.00  0.00     0.011 A 
ENDBRANCH  30  31
ENDBRANCH  29  30
ENDBRANCH  26  29
BRANCH  27  38
HETATM   38  O   UNL     1      42.795 -13.897   7.173  1.00  0.00    -0.353 OA
HETATM   39  C   UNL     1      43.512 -15.067   6.775  1.00  0.00     0.210 C 
ENDBRANCH  27  38
ENDBRANCH   1  23
TORSDOF 10
ENDMDL
MODEL 3
REMARK VINA RESULT:      -8.1      3.591      7.118
REMARK  10 active torsions:
REMARK  status: ('A' for Active; 'I' for Inactive)
REMARK    1  A    between atoms: O_2  and  C_3 
REMARK    2  A    between atoms: C_4  and  O_5 
REMARK    3  A    between atoms: O_5  and  C_6 
REMARK    4  A    between atoms: C_6  and  C_7 
REMARK    5  A    between atoms: C_16  and  C_17 
REMARK       I    between atoms: C_17  and  N_18 
REMARK    6  A    between atoms: N_18  and  C_19 
REMARK    7  A    between atoms: C_19  and  N_20 
REMARK    8  A    between atoms: N_20  and  C_21 
REMARK    9  A    between atoms: C_24  and  C_25 
REMARK   10  A    between atoms: C_25  and  N_26 
ROOT
HETATM    1  C   UNL     1      39.380 -11.429   6.532  1.00  0.00     0.257 C 
HETATM    2  N   UNL     1      40.478 -10.807   7.119  1.00  0.00    -0.299 N 
HETATM    3  O   UNL     1      38.212 -11.170   6.782  1.00  0.00    -0.267 OA
HETATM    4  H   UNL     1      41.330 -11.345   7.112  1.00  0.00     0.171 HD
ENDROOT
BRANCH   2   5
HETATM    5  C   UNL     1      40.735  -9.453   7.183  1.00  0.00     0.179 C 
HETATM    6  S   UNL     1      40.216  -8.396   8.365  1.00  0.00    -0.040 SA
BRANCH   5   7
HETATM    7  N   UNL     1      41.371  -8.917   6.088  1.00  0.00    -0.333 N 
HETATM    8  H   UNL     1      41.966  -8.126   6.328  1.00  0.00     0.168 HD
BRANCH   7   9
HETATM    9  C   UNL     1      41.431  -9.359   4.752  1.00  0.00     0.034 A 
HETATM   10  C   UNL     1      42.387 -10.325   4.429  1.00  0.00     0.030 A 
HETATM   11  C   UNL     1      42.485 -10.841   3.128  1.00  0.00     0.011 A 
HETATM   12  C   UNL     1      41.599 -10.428   2.125  1.00  0.00    -0.032 A 
HETATM   13  C   UNL     1      40.624  -9.473   2.469  1.00  0.00     0.011 A 
HETATM   14  C   UNL     1      40.543  -8.941   3.764  1.00  0.00     0.030 A 
BRANCH  12  15
HETATM   15  C   UNL     1      41.592 -10.945   0.704  1.00  0.00     0.273 C 
BRANCH  15  16
HETATM   16  N   UNL     1      40.623 -12.063   0.371  1.00  0.00    -0.067 N 
HETATM   17  H   UNL     1      39.953 -12.108   1.148  1.00  0.00     0.280 HD
HETATM   18  C   UNL     1      39.870 -11.813  -0.918  1.00  0.00     0.235 C 
HETATM   19  C   UNL     1      38.822 -12.901  -1.105  1.00  0.00     0.028 C 
HETATM   20  C   UNL     1      39.449 -14.290  -1.103  1.00  0.00     0.003 C 
HETATM   21  C   UNL     1      40.296 -14.512   0.145  1.00  0.00     0.028 C 
HETATM   22  C   UNL     1      41.324 -13.406   0.337  1.00  0.00     0.235 C 
ENDBRANCH  15  16
ENDBRANCH  12  15
ENDBRANCH   7   9
ENDBRANCH   5   7
ENDBRANCH   2   5
BRANCH   1  23
HETATM   23  C   UNL     1      39.729 -12.629   5.724  1.00  0.00     0.035 A 
HETATM   24  C   UNL     1      39.564 -12.614   4.331  1.00  0.00     0.020 A 
HETATM   25  C   UNL     1      39.999 -13.699   3.570  1.00  0.00     0.040 A 
HETATM   26  C   UNL     1      40.574 -14.804   4.196  1.00  0.00     0.102 A 
HETATM   27  C   UNL     1      40.714 -14.827   5.587  1.00  0.00     0.102 A 
HETATM   28  C   UNL     1      40.262 -13.754   6.358  1.00  0.00     0.056 A 
BRANCH  26  29
HETATM   29  O   UNL     1      41.097 -15.753   3.365  1.00  0.00    -0.344 OA
BRANCH  29  30
HETATM   30  C   UNL     1      42.510 -15.633   3.178  1.00  0.00     0.214 C 
BRANCH  30  31
HETATM   31  C   UNL     1      43.046 -17.044   3.239  1.00  0.00    -0.034 A 
HETATM   32  C   UNL     1      42.785 -17.939   2.189  1.00  0.00     0.011 A 
HETATM   33  C   UNL     1      43.199 -19.270   2.271  1.00  0.00     0.024 A 
HETATM   34  C   UNL     1      43.874 -19.714   3.405  1.00  0.00     0.034 A 
HETATM   35 CL   UNL     1      44.358 -21.361   3.520  1.00  0.00    -0.084 Cl
HETATM   36  C   UNL     1      44.145 -18.838   4.453  1.00  0.00     0.024 A 
HETATM   37  C   UNL     1      43.730 -17.505   4.373  1.00  0.00     0.011 A 
ENDBRANCH  30  31
ENDBRANCH  29  30
ENDBRANCH  26  29
BRANCH  27  38
HETATM   38  O   UNL     1      41.271 -15.892   6.241  1.00  0.00    -0.353 OA
HETATM   39  C   UNL     1      42.284 -15.451   7.147  1.00  0.00     0.210 C 
ENDBRANCH  27  38
ENDBRANCH   1  23
TORSDOF 10
ENDMDL
MODEL 4
REMARK VINA RESULT:      -8.1      7.932     11.690
REMARK  10 active torsions:
REMARK  status: ('A' for Active; 'I' for Inactive)
REMARK    1  A    between atoms: O_2  and  C_3 
REMARK    2  A    between atoms: C_4  and  O_5 
REMARK    3  A    between atoms: O_5  and  C_6 
REMARK    4  A    between atoms: C_6  and  C_7 
REMARK    5  A    between atoms: C_16  and  C_17 
REMARK       I    between atoms: C_17  and  N_18 
REMARK    6  A    between atoms: N_18  and  C_19 
REMARK    7  A    between atoms: C_19  and  N_20 
REMARK    8  A    between atoms: N_20  and  C_21 
REMARK    9  A    between atoms: C_24  and  C_25 
REMARK   10  A    between atoms: C_25  and  N_26 
ROOT
HETATM    1  C   UNL     1      43.427  -9.969   8.141  1.00  0.00     0.257 C 
HETATM    2  N   UNL     1      42.537 -10.098   9.203  1.00  0.00    -0.299 N 
HETATM    3  O   UNL     1      44.091  -8.971   7.900  1.00  0.00    -0.267 OA
HETATM    4  H   UNL     1      41.812 -10.786   9.073  1.00  0.00     0.171 HD
ENDROOT
BRANCH   2   5
HETATM    5  C   UNL     1      42.795  -9.880  10.540  1.00  0.00     0.179 C 
HETATM    6  S   UNL     1      43.937 -10.661  11.474  1.00  0.00    -0.040 SA
BRANCH   5   7
HETATM    7  N   UNL     1      41.927  -9.028  11.182  1.00  0.00    -0.333 N 
HETATM    8  H   UNL     1      41.076  -8.862  10.649  1.00  0.00     0.168 HD
BRANCH   7   9
HETATM    9  C   UNL     1      41.972  -8.474  12.476  1.00  0.00     0.034 A 
HETATM   10  C   UNL     1      41.168  -9.054  13.460  1.00  0.00     0.030 A 
HETATM   11  C   UNL     1      41.185  -8.580  14.780  1.00  0.00     0.011 A 
HETATM   12  C   UNL     1      42.038  -7.535  15.156  1.00  0.00    -0.032 A 
HETATM   13  C   UNL     1      42.861  -6.976  14.161  1.00  0.00     0.011 A 
HETATM   14  C   UNL     1      42.826  -7.435  12.838  1.00  0.00     0.030 A 
BRANCH  12  15
HETATM   15  C   UNL     1      42.162  -6.975  16.556  1.00  0.00     0.273 C 
BRANCH  15  16
HETATM   16  N   UNL     1      41.521  -7.762  17.683  1.00  0.00    -0.067 N 
HETATM   17  H   UNL     1      41.452  -8.733  17.357  1.00  0.00     0.280 HD
HETATM   18  C   UNL     1      42.341  -7.723  18.955  1.00  0.00     0.235 C 
HETATM   19  C   UNL     1      41.709  -8.648  19.986  1.00  0.00     0.028 C 
HETATM   20  C   UNL     1      40.258  -8.271  20.263  1.00  0.00     0.003 C 
HETATM   21  C   UNL     1      39.449  -8.205  18.973  1.00  0.00     0.028 C 
HETATM   22  C   UNL     1      40.101  -7.298  17.939  1.00  0.00     0.235 C 
ENDBRANCH  15  16
ENDBRANCH  12  15
ENDBRANCH   7   9
ENDBRANCH   5   7
ENDBRANCH   2   5
BRANCH   1  23
HETATM   23  C   UNL     1      43.347 -11.077   7.150  1.00  0.00     0.035 A 
HETATM   24  C   UNL     1      44.093 -12.250   7.340  1.00  0.00     0.020 A 
HETATM   25  C   UNL     1      43.926 -13.326   6.469  1.00  0.00     0.040 A 
HETATM   26  C   UNL     1      43.036 -13.227   5.400  1.00  0.00     0.102 A 
HETATM   27  C   UNL     1      42.312 -12.047   5.198  1.00  0.00     0.102 A 
HETATM   28  C   UNL     1      42.489 -10.958   6.053  1.00  0.00     0.056 A 
BRANCH  26  29
HETATM   29  O   UNL     1      42.832 -14.373   4.687  1.00  0.00    -0.344 OA
BRANCH  29  30
HETATM   30  C   UNL     1      42.843 -15.556   5.491  1.00  0.00     0.214 C 
BRANCH  30  31
HETATM   31  C   UNL     1      43.187 -16.683   4.545  1.00  0.00    -0.034 A 
HETATM   32  C   UNL     1      42.543 -16.775   3.301  1.00  0.00     0.011 A 
HETATM   33  C   UNL     1      42.786 -17.858   2.454  1.00  0.00     0.024 A 
HETATM   34  C   UNL     1      43.673 -18.856   2.848  1.00  0.00     0.034 A 
HETATM   35 CL   UNL     1      43.951 -20.206   1.817  1.00  0.00    -0.084 Cl
HETATM   36  C   UNL     1      44.325 -18.777   4.076  1.00  0.00     0.024 A 
HETATM   37  C   UNL     1      44.081 -17.694   4.926  1.00  0.00     0.011 A 
ENDBRANCH  30  31
ENDBRANCH  29  30
ENDBRANCH  26  29
BRANCH  27  38
HETATM   38  O   UNL     1      41.431 -11.907   4.161  1.00  0.00    -0.353 OA
HETATM   39  C   UNL     1      40.327 -11.087   4.548  1.00  0.00     0.210 C 
ENDBRANCH  27  38
ENDBRANCH   1  23
TORSDOF 10
ENDMDL
MODEL 5
REMARK VINA RESULT:      -8.1      4.715      5.864
REMARK  10 active torsions:
REMARK  status: ('A' for Active; 'I' for Inactive)
REMARK    1  A    between atoms: O_2  and  C_3 
REMARK    2  A    between atoms: C_4  and  O_5 
REMARK    3  A    between atoms: O_5  and  C_6 
REMARK    4  A    between atoms: C_6  and  C_7 
REMARK    5  A    between atoms: C_16  and  C_17 
REMARK       I    between atoms: C_17  and  N_18 
REMARK    6  A    between atoms: N_18  and  C_19 
REMARK    7  A    between atoms: C_19  and  N_20 
REMARK    8  A    between atoms: N_20  and  C_21 
REMARK    9  A    between atoms: C_24  and  C_25 
REMARK   10  A    between atoms: C_25  and  N_26 
ROOT
HETATM    1  C   UNL     1      39.440 -10.616   6.828  1.00  0.00     0.257 C 
HETATM    2  N   UNL     1      39.728 -10.644   5.467  1.00  0.00    -0.299 N 
HETATM    3  O   UNL     1      38.376 -10.954   7.326  1.00  0.00    -0.267 OA
HETATM    4  H   UNL     1      40.457 -10.014   5.170  1.00  0.00     0.171 HD
ENDROOT
BRANCH   2   5
HETATM    5  C   UNL     1      39.606 -11.717   4.609  1.00  0.00     0.179 C 
HETATM    6  S   UNL     1      39.189 -11.660   2.995  1.00  0.00    -0.040 SA
BRANCH   5   7
HETATM    7  N   UNL     1      39.712 -12.958   5.193  1.00  0.00    -0.333 N 
HETATM    8  H   UNL     1      38.853 -13.250   5.653  1.00  0.00     0.168 HD
BRANCH   7   9
HETATM    9  C   UNL     1      40.747 -13.913   5.140  1.00  0.00     0.034 A 
HETATM   10  C   UNL     1      40.385 -15.256   5.012  1.00  0.00     0.030 A 
HETATM   11  C   UNL     1      41.359 -16.262   4.917  1.00  0.00     0.011 A 
HETATM   12  C   UNL     1      42.722 -15.941   4.910  1.00  0.00    -0.032 A 
HETATM   13  C   UNL     1      43.073 -14.582   5.013  1.00  0.00     0.011 A 
HETATM   14  C   UNL     1      42.099 -13.581   5.132  1.00  0.00     0.030 A 
BRANCH  12  15
HETATM   15  C   UNL     1      43.850 -16.940   4.775  1.00  0.00     0.273 C 
BRANCH  15  16
HETATM   16  N   UNL     1      43.518 -18.291   4.171  1.00  0.00    -0.067 N 
HETATM   17  H   UNL     1      42.551 -18.503   4.444  1.00  0.00     0.280 HD
HETATM   18  C   UNL     1      43.614 -18.289   2.659  1.00  0.00     0.235 C 
HETATM   19  C   UNL     1      43.129 -19.629   2.125  1.00  0.00     0.028 C 
HETATM   20  C   UNL     1      43.921 -20.789   2.718  1.00  0.00     0.003 C 
HETATM   21  C   UNL     1      43.916 -20.739   4.241  1.00  0.00     0.028 C 
HETATM   22  C   UNL     1      44.378 -19.387   4.766  1.00  0.00     0.235 C 
ENDBRANCH  15  16
ENDBRANCH  12  15
ENDBRANCH   7   9
ENDBRANCH   5   7
ENDBRANCH   2   5
BRANCH   1  23
HETATM   23  C   UNL     1      40.462  -9.907   7.645  1.00  0.00     0.035 A 
HETATM   24  C   UNL     1      40.082  -9.213   8.804  1.00  0.00     0.020 A 
HETATM   25  C   UNL     1      41.058  -8.649   9.625  1.00  0.00     0.040 A 
HETATM   26  C   UNL     1      42.406  -8.755   9.282  1.00  0.00     0.102 A 
HETATM   27  C   UNL     1      42.780  -9.426   8.113  1.00  0.00     0.102 A 
HETATM   28  C   UNL     1      41.808  -9.976   7.275  1.00  0.00     0.056 A 
BRANCH  26  29
HETATM   29  O   UNL     1      43.294  -8.299  10.212  1.00  0.00    -0.344 OA
BRANCH  29  30
HETATM   30  C   UNL     1      43.684  -9.291  11.165  1.00  0.00     0.214 C 
BRANCH  30  31
HETATM   31  C   UNL     1      43.110  -8.830  12.485  1.00  0.00    -0.034 A 
HETATM   32  C   UNL     1      42.089  -9.572  13.102  1.00  0.00     0.011 A 
HETATM   33  C   UNL     1      41.488  -9.113  14.276  1.00  0.00     0.024 A 
HETATM   34  C   UNL     1      41.904  -7.908  14.838  1.00  0.00     0.034 A 
HETATM   35 CL   UNL     1      41.144  -7.327  16.268  1.00  0.00    -0.084 Cl
HETATM   36  C   UNL     1      42.918  -7.164  14.241  1.00  0.00     0.024 A 
HETATM   37  C   UNL     1      43.519  -7.621  13.065  1.00  0.00     0.011 A 
ENDBRANCH  30  31
ENDBRANCH  29  30
ENDBRANCH  26  29
BRANCH  27  38
HETATM   38  O   UNL     1      44.090  -9.552   7.739  1.00  0.00    -0.353 OA
HETATM   39  C   UNL     1      44.530 -10.901   7.900  1.00  0.00     0.210 C 
ENDBRANCH  27  38
ENDBRANCH   1  23
TORSDOF 10
ENDMDL
MODEL 6
REMARK VINA RESULT:      -8.0      6.274     10.425
REMARK  10 active torsions:
REMARK  status: ('A' for Active; 'I' for Inactive)
REMARK    1  A    between atoms: O_2  and  C_3 
REMARK    2  A    between atoms: C_4  and  O_5 
REMARK    3  A    between atoms: O_5  and  C_6 
REMARK    4  A    between atoms: C_6  and  C_7 
REMARK    5  A    between atoms: C_16  and  C_17 
REMARK       I    between atoms: C_17  and  N_18 
REMARK    6  A    between atoms: N_18  and  C_19 
REMARK    7  A    between atoms: C_19  and  N_20 
REMARK    8  A    between atoms: N_20  and  C_21 
REMARK    9  A    between atoms: C_24  and  C_25 
REMARK   10  A    between atoms: C_25  and  N_26 
ROOT
HETATM    1  C   UNL     1      42.620 -10.960   6.189  1.00  0.00     0.257 C 
HETATM    2  N   UNL     1      42.933 -11.396   7.473  1.00  0.00    -0.299 N 
HETATM    3  O   UNL     1      42.409  -9.797   5.876  1.00  0.00    -0.267 OA
HETATM    4  H   UNL     1      42.716 -12.363   7.662  1.00  0.00     0.171 HD
ENDROOT
BRANCH   2   5
HETATM    5  C   UNL     1      43.946 -10.937   8.287  1.00  0.00     0.179 C 
HETATM    6  S   UNL     1      45.508 -10.574   7.825  1.00  0.00    -0.040 SA
BRANCH   5   7
HETATM    7  N   UNL     1      43.660 -10.907   9.632  1.00  0.00    -0.333 N 
HETATM    8  H   UNL     1      43.976 -11.744  10.118  1.00  0.00     0.168 HD
BRANCH   7   9
HETATM    9  C   UNL     1      43.137  -9.878  10.439  1.00  0.00     0.034 A 
HETATM   10  C   UNL     1      43.970  -9.334  11.419  1.00  0.00     0.030 A 
HETATM   11  C   UNL     1      43.532  -8.282  12.238  1.00  0.00     0.011 A 
HETATM   12  C   UNL     1      42.260  -7.722  12.066  1.00  0.00    -0.032 A 
HETATM   13  C   UNL     1      41.440  -8.262  11.057  1.00  0.00     0.011 A 
HETATM   14  C   UNL     1      41.870  -9.328  10.257  1.00  0.00     0.030 A 
BRANCH  12  15
HETATM   15  C   UNL     1      41.704  -6.564  12.867  1.00  0.00     0.273 C 
BRANCH  15  16
HETATM   16  N   UNL     1      40.957  -6.893  14.144  1.00  0.00    -0.067 N 
HETATM   17  H   UNL     1      40.276  -7.624  13.904  1.00  0.00     0.280 HD
HETATM   18  C   UNL     1      41.872  -7.409  15.234  1.00  0.00     0.235 C 
HETATM   19  C   UNL     1      41.033  -7.850  16.426  1.00  0.00     0.028 C 
HETATM   20  C   UNL     1      40.157  -6.716  16.944  1.00  0.00     0.003 C 
HETATM   21  C   UNL     1      39.307  -6.120  15.828  1.00  0.00     0.028 C 
HETATM   22  C   UNL     1      40.151  -5.706  14.631  1.00  0.00     0.235 C 
ENDBRANCH  15  16
ENDBRANCH  12  15
ENDBRANCH   7   9
ENDBRANCH   5   7
ENDBRANCH   2   5
BRANCH   1  23
HETATM   23  C   UNL     1      42.322 -12.062   5.234  1.00  0.00     0.035 A 
HETATM   24  C   UNL     1      42.896 -12.061   3.954  1.00  0.00     0.020 A 
HETATM   25  C   UNL     1      42.704 -13.152   3.107  1.00  0.00     0.040 A 
HETATM   26  C   UNL     1      41.923 -14.231   3.525  1.00  0.00     0.102 A 
HETATM   27  C   UNL     1      41.331 -14.218   4.792  1.00  0.00     0.102 A 
HETATM   28  C   UNL     1      41.502 -13.119   5.637  1.00  0.00     0.056 A 
BRANCH  26  29
HETATM   29  O   UNL     1      41.907 -15.311   2.691  1.00  0.00    -0.344 OA
BRANCH  29  30
HETATM   30  C   UNL     1      43.210 -15.754   2.303  1.00  0.00     0.214 C 
BRANCH  30  31
HETATM   31  C   UNL     1      43.438 -17.044   3.057  1.00  0.00    -0.034 A 
HETATM   32  C   UNL     1      43.816 -17.007   4.409  1.00  0.00     0.011 A 
HETATM   33  C   UNL     1      44.116 -18.186   5.095  1.00  0.00     0.024 A 
HETATM   34  C   UNL     1      44.041 -19.408   4.431  1.00  0.00     0.034 A 
HETATM   35 CL   UNL     1      44.438 -20.859   5.267  1.00  0.00    -0.084 Cl
HETATM   36  C   UNL     1      43.662 -19.462   3.092  1.00  0.00     0.024 A 
HETATM   37  C   UNL     1      43.364 -18.282   2.404  1.00  0.00     0.011 A 
ENDBRANCH  30  31
ENDBRANCH  29  30
ENDBRANCH  26  29
BRANCH  27  38
HETATM   38  O   UNL     1      40.557 -15.253   5.240  1.00  0.00    -0.353 OA
HETATM   39  C   UNL     1      41.021 -15.713   6.510  1.00  0.00     0.210 C 
ENDBRANCH  27  38
ENDBRANCH   1  23
TORSDOF 10
ENDMDL
MODEL 7
REMARK VINA RESULT:      -8.0      7.010     11.105
REMARK  10 active torsions:
REMARK  status: ('A' for Active; 'I' for Inactive)
REMARK    1  A    between atoms: O_2  and  C_3 
REMARK    2  A    between atoms: C_4  and  O_5 
REMARK    3  A    between atoms: O_5  and  C_6 
REMARK    4  A    between atoms: C_6  and  C_7 
REMARK    5  A    between atoms: C_16  and  C_17 
REMARK       I    between atoms: C_17  and  N_18 
REMARK    6  A    between atoms: N_18  and  C_19 
REMARK    7  A    between atoms: C_19  and  N_20 
REMARK    8  A    between atoms: N_20  and  C_21 
REMARK    9  A    between atoms: C_24  and  C_25 
REMARK   10  A    between atoms: C_25  and  N_26 
ROOT
HETATM    1  C   UNL     1      44.176 -11.062   7.565  1.00  0.00     0.257 C 
HETATM    2  N   UNL     1      43.614  -9.790   7.521  1.00  0.00    -0.299 N 
HETATM    3  O   UNL     1      45.224 -11.346   8.127  1.00  0.00    -0.267 OA
HETATM    4  H   UNL     1      42.989  -9.624   6.747  1.00  0.00     0.171 HD
ENDROOT
BRANCH   2   5
HETATM    5  C   UNL     1      43.325  -8.968   8.590  1.00  0.00     0.179 C 
HETATM    6  S   UNL     1      42.750  -7.403   8.516  1.00  0.00    -0.040 SA
BRANCH   5   7
HETATM    7  N   UNL     1      43.677  -9.456   9.827  1.00  0.00    -0.333 N 
HETATM    8  H   UNL     1      44.579  -9.927   9.820  1.00  0.00     0.168 HD
BRANCH   7   9
HETATM    9  C   UNL     1      43.067  -9.295  11.087  1.00  0.00     0.034 A 
HETATM   10  C   UNL     1      43.681  -8.435  12.000  1.00  0.00     0.030 A 
HETATM   11  C   UNL     1      43.115  -8.197  13.261  1.00  0.00     0.011 A 
HETATM   12  C   UNL     1      41.897  -8.785  13.624  1.00  0.00    -0.032 A 
HETATM   13  C   UNL     1      41.276  -9.629  12.684  1.00  0.00     0.011 A 
HETATM   14  C   UNL     1      41.855  -9.885  11.434  1.00  0.00     0.030 A 
BRANCH  12  15
HETATM   15  C   UNL     1      41.182  -8.566  14.939  1.00  0.00     0.273 C 
BRANCH  15  16
HETATM   16  N   UNL     1      41.532  -7.317  15.725  1.00  0.00    -0.067 N 
HETATM   17  H   UNL     1      42.531  -7.140  15.562  1.00  0.00     0.280 HD
HETATM   18  C   UNL     1      40.738  -6.109  15.274  1.00  0.00     0.235 C 
HETATM   19  C   UNL     1      41.246  -4.874  16.006  1.00  0.00     0.028 C 
HETATM   20  C   UNL     1      41.164  -5.046  17.519  1.00  0.00     0.003 C 
HETATM   21  C   UNL     1      41.873  -6.317  17.969  1.00  0.00     0.028 C 
HETATM   22  C   UNL     1      41.377  -7.542  17.215  1.00  0.00     0.235 C 
ENDBRANCH  15  16
ENDBRANCH  12  15
ENDBRANCH   7   9
ENDBRANCH   5   7
ENDBRANCH   2   5
BRANCH   1  23
HETATM   23  C   UNL     1      43.520 -12.043   6.658  1.00  0.00     0.035 A 
HETATM   24  C   UNL     1      43.341 -11.740   5.300  1.00  0.00     0.020 A 
HETATM   25  C   UNL     1      42.830 -12.706   4.435  1.00  0.00     0.040 A 
HETATM   26  C   UNL     1      42.477 -13.964   4.924  1.00  0.00     0.102 A 
HETATM   27  C   UNL     1      42.632 -14.256   6.283  1.00  0.00     0.102 A 
HETATM   28  C   UNL     1      43.124 -13.286   7.160  1.00  0.00     0.056 A 
BRANCH  26  29
HETATM   29  O   UNL     1      42.121 -14.889   3.986  1.00  0.00    -0.344 OA
BRANCH  29  30
HETATM   30  C   UNL     1      43.157 -15.175   3.043  1.00  0.00     0.214 C 
BRANCH  30  31
HETATM   31  C   UNL     1      43.425 -16.657   3.177  1.00  0.00    -0.034 A 
HETATM   32  C   UNL     1      43.015 -17.536   2.161  1.00  0.00     0.011 A 
HETATM   33  C   UNL     1      43.177 -18.916   2.310  1.00  0.00     0.024 A 
HETATM   34  C   UNL     1      43.747 -19.422   3.475  1.00  0.00     0.034 A 
HETATM   35 CL   UNL     1      43.920 -21.123   3.670  1.00  0.00    -0.084 Cl
HETATM   36  C   UNL     1      44.164 -18.563   4.488  1.00  0.00     0.024 A 
HETATM   37  C   UNL     1      44.001 -17.182   4.342  1.00  0.00     0.011 A 
ENDBRANCH  30  31
ENDBRANCH  29  30
ENDBRANCH  26  29
BRANCH  27  38
HETATM   38  O   UNL     1      42.296 -15.475   6.805  1.00  0.00    -0.353 OA
HETATM   39  C   UNL     1      43.071 -15.752   7.972  1.00  0.00     0.210 C 
ENDBRANCH  27  38
ENDBRANCH   1  23
TORSDOF 10
ENDMDL
MODEL 8
REMARK VINA RESULT:      -7.9      3.301      6.952
REMARK  10 active torsions:
REMARK  status: ('A' for Active; 'I' for Inactive)
REMARK    1  A    between atoms: O_2  and  C_3 
REMARK    2  A    between atoms: C_4  and  O_5 
REMARK    3  A    between atoms: O_5  and  C_6 
REMARK    4  A    between atoms: C_6  and  C_7 
REMARK    5  A    between atoms: C_16  and  C_17 
REMARK       I    between atoms: C_17  and  N_18 
REMARK    6  A    between atoms: N_18  and  C_19 
REMARK    7  A    between atoms: C_19  and  N_20 
REMARK    8  A    between atoms: N_20  and  C_21 
REMARK    9  A    between atoms: C_24  and  C_25 
REMARK   10  A    between atoms: C_25  and  N_26 
ROOT
HETATM    1  C   UNL     1      39.351 -10.686   6.423  1.00  0.00     0.257 C 
HETATM    2  N   UNL     1      39.777  -9.403   6.094  1.00  0.00    -0.299 N 
HETATM    3  O   UNL     1      38.396 -10.945   7.142  1.00  0.00    -0.267 OA
HETATM    4  H   UNL     1      40.746  -9.329   5.826  1.00  0.00     0.171 HD
ENDROOT
BRANCH   2   5
HETATM    5  C   UNL     1      39.022  -8.387   5.548  1.00  0.00     0.179 C 
HETATM    6  S   UNL     1      38.365  -7.087   6.362  1.00  0.00    -0.040 SA
BRANCH   5   7
HETATM    7  N   UNL     1      38.675  -8.548   4.227  1.00  0.00    -0.333 N 
HETATM    8  H   UNL     1      37.987  -7.866   3.916  1.00  0.00     0.168 HD
BRANCH   7   9
HETATM    9  C   UNL     1      39.205  -9.396   3.235  1.00  0.00     0.034 A 
HETATM   10  C   UNL     1      40.475  -9.099   2.736  1.00  0.00     0.030 A 
HETATM   11  C   UNL     1      41.083  -9.917   1.772  1.00  0.00     0.011 A 
HETATM   12  C   UNL     1      40.448 -11.077   1.312  1.00  0.00    -0.032 A 
HETATM   13  C   UNL     1      39.179 -11.380   1.842  1.00  0.00     0.011 A 
HETATM   14  C   UNL     1      38.563 -10.549   2.787  1.00  0.00     0.030 A 
BRANCH  12  15
HETATM   15  C   UNL     1      41.029 -12.046   0.306  1.00  0.00     0.273 C 
BRANCH  15  16
HETATM   16  N   UNL     1      40.070 -12.694  -0.674  1.00  0.00    -0.067 N 
HETATM   17  H   UNL     1      39.123 -12.489  -0.334  1.00  0.00     0.280 HD
HETATM   18  C   UNL     1      40.220 -12.148  -2.078  1.00  0.00     0.235 C 
HETATM   19  C   UNL     1      39.134 -12.740  -2.965  1.00  0.00     0.028 C 
HETATM   20  C   UNL     1      39.180 -14.264  -2.967  1.00  0.00     0.003 C 
HETATM   21  C   UNL     1      39.135 -14.819  -1.548  1.00  0.00     0.028 C 
HETATM   22  C   UNL     1      40.208 -14.203  -0.662  1.00  0.00     0.235 C 
ENDBRANCH  15  16
ENDBRANCH  12  15
ENDBRANCH   7   9
ENDBRANCH   5   7
ENDBRANCH   2   5
BRANCH   1  23
HETATM   23  C   UNL     1      40.300 -11.759   6.019  1.00  0.00     0.035 A 
HETATM   24  C   UNL     1      39.818 -12.966   5.490  1.00  0.00     0.020 A 
HETATM   25  C   UNL     1      40.715 -13.919   5.008  1.00  0.00     0.040 A 
HETATM   26  C   UNL     1      42.088 -13.681   5.074  1.00  0.00     0.102 A 
HETATM   27  C   UNL     1      42.567 -12.488   5.624  1.00  0.00     0.102 A 
HETATM   28  C   UNL     1      41.676 -11.538   6.128  1.00  0.00     0.056 A 
BRANCH  26  29
HETATM   29  O   UNL     1      42.881 -14.601   4.452  1.00  0.00    -0.344 OA
BRANCH  29  30
HETATM   30  C   UNL     1      43.291 -15.673   5.306  1.00  0.00     0.214 C 
BRANCH  30  31
HETATM   31  C   UNL     1      43.484 -16.863   4.395  1.00  0.00    -0.034 A 
HETATM   32  C   UNL     1      42.905 -16.867   3.116  1.00  0.00     0.011 A 
HETATM   33  C   UNL     1      43.000 -17.994   2.297  1.00  0.00     0.024 A 
HETATM   34  C   UNL     1      43.675 -19.123   2.753  1.00  0.00     0.034 A 
HETATM   35 CL   UNL     1      43.768 -20.522   1.756  1.00  0.00    -0.084 Cl
HETATM   36  C   UNL     1      44.260 -19.133   4.017  1.00  0.00     0.024 A 
HETATM   37  C   UNL     1      44.163 -18.007   4.839  1.00  0.00     0.011 A 
ENDBRANCH  30  31
ENDBRANCH  29  30
ENDBRANCH  26  29
BRANCH  27  38
HETATM   38  O   UNL     1      43.905 -12.216   5.710  1.00  0.00    -0.353 OA
HETATM   39  C   UNL     1      44.315 -12.142   7.076  1.00  0.00     0.210 C 
ENDBRANCH  27  38
ENDBRANCH   1  23
TORSDOF 10
ENDMDL
MODEL 9
REMARK VINA RESULT:      -7.9      5.977     10.590
REMARK  10 active torsions:
REMARK  status: ('A' for Active; 'I' for Inactive)
REMARK    1  A    between atoms: O_2  and  C_3 
REMARK    2  A    between atoms: C_4  and  O_5 
REMARK    3  A    between atoms: O_5  and  C_6 
REMARK    4  A    between atoms: C_6  and  C_7 
REMARK    5  A    between atoms: C_16  and  C_17 
REMARK       I    between atoms: C_17  and  N_18 
REMARK    6  A    between atoms: N_18  and  C_19 
REMARK    7  A    between atoms: C_19  and  N_20 
REMARK    8  A    between atoms: N_20  and  C_21 
REMARK    9  A    between atoms: C_24  and  C_25 
REMARK   10  A    between atoms: C_25  and  N_26 
ROOT
HETATM    1  C   UNL     1      42.621 -10.982   6.183  1.00  0.00     0.257 C 
HETATM    2  N   UNL     1      42.908 -11.415   7.474  1.00  0.00    -0.299 N 
HETATM    3  O   UNL     1      42.431  -9.818   5.860  1.00  0.00    -0.267 OA
HETATM    4  H   UNL     1      42.675 -12.377   7.665  1.00  0.00     0.171 HD
ENDROOT
BRANCH   2   5
HETATM    5  C   UNL     1      43.915 -10.964   8.301  1.00  0.00     0.179 C 
HETATM    6  S   UNL     1      45.514 -10.725   7.885  1.00  0.00    -0.040 SA
BRANCH   5   7
HETATM    7  N   UNL     1      43.579 -10.830   9.628  1.00  0.00    -0.333 N 
HETATM    8  H   UNL     1      43.848 -11.638  10.184  1.00  0.00     0.168 HD
BRANCH   7   9
HETATM    9  C   UNL     1      43.057  -9.730  10.337  1.00  0.00     0.034 A 
HETATM   10  C   UNL     1      43.827  -9.202  11.376  1.00  0.00     0.030 A 
HETATM   11  C   UNL     1      43.391  -8.086  12.105  1.00  0.00     0.011 A 
HETATM   12  C   UNL     1      42.186  -7.446  11.784  1.00  0.00    -0.032 A 
HETATM   13  C   UNL     1      41.432  -7.973  10.719  1.00  0.00     0.011 A 
HETATM   14  C   UNL     1      41.858  -9.102  10.007  1.00  0.00     0.030 A 
BRANCH  12  15
HETATM   15  C   UNL     1      41.643  -6.218  12.479  1.00  0.00     0.273 C 
BRANCH  15  16
HETATM   16  N   UNL     1      42.421  -4.925  12.324  1.00  0.00    -0.067 N 
HETATM   17  H   UNL     1      43.389  -5.133  12.598  1.00  0.00     0.280 HD
HETATM   18  C   UNL     1      42.410  -4.411  10.900  1.00  0.00     0.235 C 
HETATM   19  C   UNL     1      43.326  -3.199  10.799  1.00  0.00     0.028 C 
HETATM   20  C   UNL     1      42.915  -2.103  11.776  1.00  0.00     0.003 C 
HETATM   21  C   UNL     1      42.822  -2.639  13.200  1.00  0.00     0.028 C 
HETATM   22  C   UNL     1      41.925  -3.866  13.287  1.00  0.00     0.235 C 
ENDBRANCH  15  16
ENDBRANCH  12  15
ENDBRANCH   7   9
ENDBRANCH   5   7
ENDBRANCH   2   5
BRANCH   1  23
HETATM   23  C   UNL     1      42.323 -12.085   5.229  1.00  0.00     0.035 A 
HETATM   24  C   UNL     1      42.905 -12.092   3.953  1.00  0.00     0.020 A 
HETATM   25  C   UNL     1      42.712 -13.185   3.109  1.00  0.00     0.040 A 
HETATM   26  C   UNL     1      41.923 -14.258   3.525  1.00  0.00     0.102 A 
HETATM   27  C   UNL     1      41.323 -14.237   4.789  1.00  0.00     0.102 A 
HETATM   28  C   UNL     1      41.495 -13.137   5.631  1.00  0.00     0.056 A 
BRANCH  26  29
HETATM   29  O   UNL     1      41.905 -15.341   2.695  1.00  0.00    -0.344 OA
BRANCH  29  30
HETATM   30  C   UNL     1      43.208 -15.786   2.308  1.00  0.00     0.214 C 
BRANCH  30  31
HETATM   31  C   UNL     1      43.435 -17.075   3.063  1.00  0.00    -0.034 A 
HETATM   32  C   UNL     1      43.798 -17.037   4.420  1.00  0.00     0.011 A 
HETATM   33  C   UNL     1      44.096 -18.215   5.107  1.00  0.00     0.024 A 
HETATM   34  C   UNL     1      44.036 -19.437   4.442  1.00  0.00     0.034 A 
HETATM   35 CL   UNL     1      44.432 -20.886   5.281  1.00  0.00    -0.084 Cl
HETATM   36  C   UNL     1      43.673 -19.492   3.098  1.00  0.00     0.024 A 
HETATM   37  C   UNL     1      43.375 -18.313   2.408  1.00  0.00     0.011 A 
ENDBRANCH  30  31
ENDBRANCH  29  30
ENDBRANCH  26  29
BRANCH  27  38
HETATM   38  O   UNL     1      40.540 -15.267   5.235  1.00  0.00    -0.353 OA
HETATM   39  C   UNL     1      41.000 -15.731   6.506  1.00  0.00     0.210 C 
ENDBRANCH  27  38
ENDBRANCH   1  23
TORSDOF 10
ENDMDL
MODEL 10
REMARK VINA RESULT:      -7.8      7.940     12.006
REMARK  10 active torsions:
REMARK  status: ('A' for Active; 'I' for Inactive)
REMARK    1  A    between atoms: O_2  and  C_3 
REMARK    2  A    between atoms: C_4  and  O_5 
REMARK    3  A    between atoms: O_5  and  C_6 
REMARK    4  A    between atoms: C_6  and  C_7 
REMARK    5  A    between atoms: C_16  and  C_17 
REMARK       I    between atoms: C_17  and  N_18 
REMARK    6  A    between atoms: N_18  and  C_19 
REMARK    7  A    between atoms: C_19  and  N_20 
REMARK    8  A    between atoms: N_20  and  C_21 
REMARK    9  A    between atoms: C_24  and  C_25 
REMARK   10  A    between atoms: C_25  and  N_26 
ROOT
HETATM    1  C   UNL     1      44.186 -10.174   9.026  1.00  0.00     0.257 C 
HETATM    2  N   UNL     1      43.967  -8.800   9.052  1.00  0.00    -0.299 N 
HETATM    3  O   UNL     1      44.859 -10.792   9.839  1.00  0.00    -0.267 OA
HETATM    4  H   UNL     1      43.729  -8.387   8.163  1.00  0.00     0.171 HD
ENDROOT
BRANCH   2   5
HETATM    5  C   UNL     1      43.483  -8.051  10.104  1.00  0.00     0.179 C 
HETATM    6  S   UNL     1      42.747  -6.557  10.007  1.00  0.00    -0.040 SA
BRANCH   5   7
HETATM    7  N   UNL     1      43.762  -8.540  11.359  1.00  0.00    -0.333 N 
HETATM    8  H   UNL     1      44.622  -9.083  11.386  1.00  0.00     0.168 HD
BRANCH   7   9
HETATM    9  C   UNL     1      43.134  -8.304  12.598  1.00  0.00     0.034 A 
HETATM   10  C   UNL     1      42.128  -9.187  12.996  1.00  0.00     0.030 A 
HETATM   11  C   UNL     1      41.481  -9.037  14.231  1.00  0.00     0.011 A 
HETATM   12  C   UNL     1      41.856  -8.020  15.118  1.00  0.00    -0.032 A 
HETATM   13  C   UNL     1      42.889  -7.152  14.716  1.00  0.00     0.011 A 
HETATM   14  C   UNL     1      43.517  -7.288  13.471  1.00  0.00     0.030 A 
BRANCH  12  15
HETATM   15  C   UNL     1      41.252  -7.793  16.487  1.00  0.00     0.273 C 
BRANCH  15  16
HETATM   16  N   UNL     1      41.060  -6.358  16.937  1.00  0.00    -0.067 N 
HETATM   17  H   UNL     1      41.501  -5.767  16.222  1.00  0.00     0.280 HD
HETATM   18  C   UNL     1      39.598  -5.979  17.056  1.00  0.00     0.235 C 
HETATM   19  C   UNL     1      39.490  -4.493  17.370  1.00  0.00     0.028 C 
HETATM   20  C   UNL     1      40.251  -4.131  18.640  1.00  0.00     0.003 C 
HETATM   21  C   UNL     1      41.699  -4.603  18.569  1.00  0.00     0.028 C 
HETATM   22  C   UNL     1      41.798  -6.083  18.231  1.00  0.00     0.235 C 
ENDBRANCH  15  16
ENDBRANCH  12  15
ENDBRANCH   7   9
ENDBRANCH   5   7
ENDBRANCH   2   5
BRANCH   1  23
HETATM   23  C   UNL     1      43.723 -10.835   7.775  1.00  0.00     0.035 A 
HETATM   24  C   UNL     1      44.412 -11.946   7.267  1.00  0.00     0.020 A 
HETATM   25  C   UNL     1      43.907 -12.628   6.161  1.00  0.00     0.040 A 
HETATM   26  C   UNL     1      42.732 -12.192   5.548  1.00  0.00     0.102 A 
HETATM   27  C   UNL     1      42.061 -11.068   6.041  1.00  0.00     0.102 A 
HETATM   28  C   UNL     1      42.571 -10.367   7.136  1.00  0.00     0.056 A 
BRANCH  26  29
HETATM   29  O   UNL     1      42.238 -12.999   4.565  1.00  0.00    -0.344 OA
BRANCH  29  30
HETATM   30  C   UNL     1      43.104 -13.119   3.434  1.00  0.00     0.214 C 
BRANCH  30  31
HETATM   31  C   UNL     1      43.168 -14.598   3.129  1.00  0.00    -0.034 A 
HETATM   32  C   UNL     1      43.291 -15.034   1.800  1.00  0.00     0.011 A 
HETATM   33  C   UNL     1      43.263 -16.397   1.495  1.00  0.00     0.024 A 
HETATM   34  C   UNL     1      43.109 -17.330   2.518  1.00  0.00     0.034 A 
HETATM   35 CL   UNL     1      43.045 -19.007   2.140  1.00  0.00    -0.084 Cl
HETATM   36  C   UNL     1      42.992 -16.913   3.841  1.00  0.00     0.024 A 
HETATM   37  C   UNL     1      43.018 -15.549   4.148  1.00  0.00     0.011 A 
ENDBRANCH  30  31
ENDBRANCH  29  30
ENDBRANCH  26  29
BRANCH  27  38
HETATM   38  O   UNL     1      40.907 -10.605   5.469  1.00  0.00    -0.353 OA
HETATM   39  C   UNL     1      41.008  -9.206   5.200  1.00  0.00     0.210 C 
ENDBRANCH  27  38
ENDBRANCH   1  23
TORSDOF 10
ENDMDL
