MODEL 1
REMARK VINA RESULT:      -8.7      0.000      0.000
REMARK  6 active torsions:
REMARK  status: ('A' for Active; 'I' for Inactive)
REMARK    1  A    between atoms: O_2  and  C_3 
REMARK    2  A    between atoms: C_6  and  C_7 
REMARK    3  A    between atoms: C_11  and  C_12 
REMARK       I    between atoms: C_12  and  N_13 
REMARK    4  A    between atoms: N_13  and  N_14 
REMARK       I    between atoms: N_14  and  C_15 
REMARK    5  A    between atoms: C_15  and  C_16 
REMARK    6  A    between atoms: C_17  and  C_18 
ROOT
HETATM    1  C   UNL     1      40.041 -12.164   6.105  1.00  0.00     0.288 C 
HETATM    2  N   UNL     1      41.077 -11.356   6.519  1.00  0.00    -0.262 N 
HETATM    3  O   UNL     1      38.874 -11.947   6.427  1.00  0.00    -0.264 OA
HETATM    4  H   UNL     1      42.057 -11.558   6.336  1.00  0.00     0.190 HD
ENDROOT
BRANCH   1   5
HETATM    5  C   UNL     1      40.422 -13.275   5.276  1.00  0.00     0.121 A 
HETATM    6  N   UNL     1      39.742 -13.590   4.135  1.00  0.00    -0.272 N 
HETATM    7  N   UNL     1      40.238 -14.645   3.471  1.00  0.00    -0.174 NA
HETATM    8  H   UNL     1      38.930 -13.111   3.756  1.00  0.00     0.189 HD
HETATM    9  C   UNL     1      41.274 -15.060   4.218  1.00  0.00     0.089 A 
HETATM   10  C   UNL     1      41.425 -14.220   5.357  1.00  0.00     0.071 A 
BRANCH   9  11
HETATM   11  C   UNL     1      42.092 -16.215   3.834  1.00  0.00    -0.005 A 
HETATM   12  C   UNL     1      43.004 -16.774   4.740  1.00  0.00     0.016 A 
HETATM   13  C   UNL     1      43.772 -17.894   4.393  1.00  0.00     0.037 A 
HETATM   14  C   UNL     1      43.641 -18.469   3.131  1.00  0.00     0.068 A 
HETATM   15  C   UNL     1      42.749 -17.906   2.217  1.00  0.00     0.037 A 
HETATM   16  C   UNL     1      41.979 -16.791   2.562  1.00  0.00     0.016 A 
BRANCH  14  17
HETATM   17  O   UNL     1      44.322 -19.561   2.668  1.00  0.00    -0.356 OA
HETATM   18  C   UNL     1      43.594 -20.467   1.846  1.00  0.00     0.210 C 
ENDBRANCH  14  17
ENDBRANCH   9  11
ENDBRANCH   1   5
BRANCH   2  19
HETATM   19  N   UNL     1      40.822 -10.335   7.438  1.00  0.00    -0.267 N 
HETATM   20  C   UNL     1      41.133  -9.043   7.077  1.00  0.00     0.240 C 
HETATM   21  O   UNL     1      41.606  -8.763   5.980  1.00  0.00    -0.271 OA
HETATM   22  H   UNL     1      40.415 -10.603   8.329  1.00  0.00     0.190 HD
BRANCH  20  23
HETATM   23  C   UNL     1      40.917  -7.968   8.083  1.00  0.00     0.089 A 
HETATM   24  C   UNL     1      41.867  -7.649   9.224  1.00  0.00     0.034 A 
HETATM   25  C   UNL     1      41.697  -6.680   8.077  1.00  0.00     0.025 A 
BRANCH  24  26
HETATM   26  C   UNL     1      43.162  -8.408   9.441  1.00  0.00    -0.031 A 
HETATM   27  C   UNL     1      43.309  -9.389  10.444  1.00  0.00     0.040 A 
HETATM   28 CL   UNL     1      41.997  -9.779  11.502  1.00  0.00    -0.084 Cl
HETATM   29  C   UNL     1      44.515 -10.073  10.631  1.00  0.00     0.024 A 
HETATM   30  C   UNL     1      45.613  -9.784   9.826  1.00  0.00     0.002 A 
HETATM   31  C   UNL     1      45.508  -8.806   8.844  1.00  0.00     0.001 A 
HETATM   32  C   UNL     1      44.302  -8.123   8.662  1.00  0.00     0.009 A 
ENDBRANCH  24  26
ENDBRANCH  20  23
ENDBRANCH   2  19
TORSDOF 6
ENDMDL
MODEL 2
REMARK VINA RESULT:      -8.6      2.748      3.769
REMARK  6 active torsions:
REMARK  status: ('A' for Active; 'I' for Inactive)
REMARK    1  A    between atoms: O_2  and  C_3 
REMARK    2  A    between atoms: C_6  and  C_7 
REMARK    3  A    between atoms: C_11  and  C_12 
REMARK       I    between atoms: C_12  and  N_13 
REMARK    4  A    between atoms: N_13  and  N_14 
REMARK       I    between atoms: N_14  and  C_15 
REMARK    5  A    between atoms: C_15  and  C_16 
REMARK    6  A    between atoms: C_17  and  C_18 
ROOT
HETATM    1  C   UNL     1      43.090 -11.809   6.947  1.00  0.00     0.288 C 
HETATM    2  N   UNL     1      43.871 -11.517   8.042  1.00  0.00    -0.262 N 
HETATM    3  O   UNL     1      42.426 -10.950   6.368  1.00  0.00    -0.264 OA
HETATM    4  H   UNL     1      44.363 -12.220   8.588  1.00  0.00     0.190 HD
ENDROOT
BRANCH   1   5
HETATM    5  C   UNL     1      43.104 -13.185   6.531  1.00  0.00     0.121 A 
HETATM    6  N   UNL     1      43.107 -14.212   7.431  1.00  0.00    -0.272 N 
HETATM    7  N   UNL     1      43.104 -15.433   6.876  1.00  0.00    -0.174 NA
HETATM    8  H   UNL     1      43.103 -14.135   8.445  1.00  0.00     0.189 HD
HETATM    9  C   UNL     1      43.127 -15.204   5.553  1.00  0.00     0.089 A 
HETATM   10  C   UNL     1      43.121 -13.803   5.296  1.00  0.00     0.071 A 
BRANCH   9  11
HETATM   11  C   UNL     1      43.138 -16.299   4.578  1.00  0.00    -0.005 A 
HETATM   12  C   UNL     1      42.394 -16.205   3.393  1.00  0.00     0.016 A 
HETATM   13  C   UNL     1      42.418 -17.234   2.442  1.00  0.00     0.037 A 
HETATM   14  C   UNL     1      43.186 -18.375   2.664  1.00  0.00     0.068 A 
HETATM   15  C   UNL     1      43.914 -18.484   3.849  1.00  0.00     0.037 A 
HETATM   16  C   UNL     1      43.895 -17.456   4.799  1.00  0.00     0.016 A 
BRANCH  14  17
HETATM   17  O   UNL     1      43.304 -19.445   1.820  1.00  0.00    -0.356 OA
HETATM   18  C   UNL     1      43.820 -20.647   2.379  1.00  0.00     0.210 C 
ENDBRANCH  14  17
ENDBRANCH   9  11
ENDBRANCH   1   5
BRANCH   2  19
HETATM   19  N   UNL     1      43.812 -10.238   8.602  1.00  0.00    -0.267 N 
HETATM   20  C   UNL     1      43.849 -10.125   9.973  1.00  0.00     0.240 C 
HETATM   21  O   UNL     1      43.947 -11.102  10.711  1.00  0.00    -0.271 OA
HETATM   22  H   UNL     1      43.749  -9.452   7.961  1.00  0.00     0.190 HD
BRANCH  20  23
HETATM   23  C   UNL     1      43.724  -8.766  10.565  1.00  0.00     0.089 A 
HETATM   24  C   UNL     1      42.522  -8.273  11.352  1.00  0.00     0.034 A 
HETATM   25  C   UNL     1      43.846  -8.508  12.044  1.00  0.00     0.025 A 
BRANCH  24  26
HETATM   26  C   UNL     1      41.314  -9.148  11.625  1.00  0.00    -0.031 A 
HETATM   27  C   UNL     1      40.346  -9.435  10.640  1.00  0.00     0.040 A 
HETATM   28 CL   UNL     1      40.487  -8.785   9.042  1.00  0.00    -0.084 Cl
HETATM   29  C   UNL     1      39.235 -10.240  10.914  1.00  0.00     0.024 A 
HETATM   30  C   UNL     1      39.056 -10.770  12.188  1.00  0.00     0.002 A 
HETATM   31  C   UNL     1      39.979 -10.486  13.188  1.00  0.00     0.001 A 
HETATM   32  C   UNL     1      41.087  -9.680  12.910  1.00  0.00     0.009 A 
ENDBRANCH  24  26
ENDBRANCH  20  23
ENDBRANCH   2  19
TORSDOF 6
ENDMDL
MODEL 3
REMARK VINA RESULT:      -8.5      2.211      2.721
REMARK  6 active torsions:
REMARK  status: ('A' for Active; 'I' for Inactive)
REMARK    1  A    between atoms: O_2  and  C_3 
REMARK    2  A    between atoms: C_6  and  C_7 
REMARK    3  A    between atoms: C_11  and  C_12 
REMARK       I    between atoms: C_12  and  N_13 
REMARK    4  A    between atoms: N_13  and  N_14 
REMARK       I    between atoms: N_14  and  C_15 
REMARK    5  A    between atoms: C_15  and  C_16 
REMARK    6  A    between atoms: C_17  and  C_18 
ROOT
HETATM    1  C   UNL     1      42.346 -11.869   6.102  1.00  0.00     0.288 C 
HETATM    2  N   UNL     1      42.821 -11.186   7.199  1.00  0.00    -0.262 N 
HETATM    3  O   UNL     1      41.678 -11.320   5.227  1.00  0.00    -0.264 OA
HETATM    4  H   UNL     1      43.304 -11.631   7.975  1.00  0.00     0.190 HD
ENDROOT
BRANCH   1   5
HETATM    5  C   UNL     1      42.684 -13.265   6.054  1.00  0.00     0.121 A 
HETATM    6  N   UNL     1      42.947 -13.984   7.185  1.00  0.00    -0.272 N 
HETATM    7  N   UNL     1      43.229 -15.277   6.964  1.00  0.00    -0.174 NA
HETATM    8  H   UNL     1      42.941 -13.641   8.142  1.00  0.00     0.189 HD
HETATM    9  C   UNL     1      43.176 -15.413   5.629  1.00  0.00     0.089 A 
HETATM   10  C   UNL     1      42.830 -14.172   5.023  1.00  0.00     0.071 A 
BRANCH   9  11
HETATM   11  C   UNL     1      43.435 -16.697   4.971  1.00  0.00    -0.005 A 
HETATM   12  C   UNL     1      43.844 -17.811   5.719  1.00  0.00     0.016 A 
HETATM   13  C   UNL     1      44.069 -19.050   5.105  1.00  0.00     0.037 A 
HETATM   14  C   UNL     1      43.891 -19.193   3.730  1.00  0.00     0.068 A 
HETATM   15  C   UNL     1      43.503 -18.084   2.977  1.00  0.00     0.037 A 
HETATM   16  C   UNL     1      43.274 -16.847   3.589  1.00  0.00     0.016 A 
BRANCH  14  17
HETATM   17  O   UNL     1      44.069 -20.341   3.009  1.00  0.00    -0.356 OA
HETATM   18  C   UNL     1      43.464 -20.389   1.722  1.00  0.00     0.210 C 
ENDBRANCH  14  17
ENDBRANCH   9  11
ENDBRANCH   1   5
BRANCH   2  19
HETATM   19  N   UNL     1      42.427  -9.860   7.401  1.00  0.00    -0.267 N 
HETATM   20  C   UNL     1      43.297  -9.016   8.054  1.00  0.00     0.240 C 
HETATM   21  O   UNL     1      44.401  -9.384   8.446  1.00  0.00    -0.271 OA
HETATM   22  H   UNL     1      41.515  -9.587   7.048  1.00  0.00     0.190 HD
BRANCH  20  23
HETATM   23  C   UNL     1      42.847  -7.623   8.321  1.00  0.00     0.089 A 
HETATM   24  C   UNL     1      42.260  -7.142   9.637  1.00  0.00     0.034 A 
HETATM   25  C   UNL     1      43.625  -6.670   9.190  1.00  0.00     0.025 A 
BRANCH  24  26
HETATM   26  C   UNL     1      42.084  -8.057  10.833  1.00  0.00    -0.031 A 
HETATM   27  C   UNL     1      41.011  -8.965  10.943  1.00  0.00     0.040 A 
HETATM   28 CL   UNL     1      39.812  -9.078   9.700  1.00  0.00    -0.084 Cl
HETATM   29  C   UNL     1      40.864  -9.797  12.059  1.00  0.00     0.024 A 
HETATM   30  C   UNL     1      41.783  -9.733  13.102  1.00  0.00     0.002 A 
HETATM   31  C   UNL     1      42.839  -8.831  13.034  1.00  0.00     0.001 A 
HETATM   32  C   UNL     1      42.981  -8.001  11.919  1.00  0.00     0.009 A 
ENDBRANCH  24  26
ENDBRANCH  20  23
ENDBRANCH   2  19
TORSDOF 6
ENDMDL
MODEL 4
REMARK VINA RESULT:      -8.4      1.495      1.783
REMARK  6 active torsions:
REMARK  status: ('A' for Active; 'I' for Inactive)
REMARK    1  A    between atoms: O_2  and  C_3 
REMARK    2  A    between atoms: C_6  and  C_7 
REMARK    3  A    between atoms: C_11  and  C_12 
REMARK       I    between atoms: C_12  and  N_13 
REMARK    4  A    between atoms: N_13  and  N_14 
REMARK       I    between atoms: N_14  and  C_15 
REMARK    5  A    between atoms: C_15  and  C_16 
REMARK    6  A    between atoms: C_17  and  C_18 
ROOT
HETATM    1  C   UNL     1      42.661 -11.892   6.492  1.00  0.00     0.288 C 
HETATM    2  N   UNL     1      41.402 -11.343   6.585  1.00  0.00    -0.262 N 
HETATM    3  O   UNL     1      43.596 -11.507   7.193  1.00  0.00    -0.264 OA
HETATM    4  H   UNL     1      40.634 -11.584   5.964  1.00  0.00     0.190 HD
ENDROOT
BRANCH   1   5
HETATM    5  C   UNL     1      42.803 -12.941   5.520  1.00  0.00     0.121 A 
HETATM    6  N   UNL     1      42.762 -12.694   4.178  1.00  0.00    -0.272 N 
HETATM    7  N   UNL     1      42.928 -13.781   3.411  1.00  0.00    -0.174 NA
HETATM    8  H   UNL     1      42.629 -11.792   3.728  1.00  0.00     0.189 HD
HETATM    9  C   UNL     1      43.059 -14.795   4.282  1.00  0.00     0.089 A 
HETATM   10  C   UNL     1      42.992 -14.306   5.617  1.00  0.00     0.071 A 
BRANCH   9  11
HETATM   11  C   UNL     1      43.255 -16.177   3.837  1.00  0.00    -0.005 A 
HETATM   12  C   UNL     1      42.815 -16.587   2.570  1.00  0.00     0.016 A 
HETATM   13  C   UNL     1      43.021 -17.899   2.123  1.00  0.00     0.037 A 
HETATM   14  C   UNL     1      43.668 -18.824   2.939  1.00  0.00     0.068 A 
HETATM   15  C   UNL     1      44.092 -18.429   4.210  1.00  0.00     0.037 A 
HETATM   16  C   UNL     1      43.891 -17.118   4.656  1.00  0.00     0.016 A 
BRANCH  14  17
HETATM   17  O   UNL     1      43.937 -20.128   2.626  1.00  0.00    -0.356 OA
HETATM   18  C   UNL     1      43.862 -21.069   3.690  1.00  0.00     0.210 C 
ENDBRANCH  14  17
ENDBRANCH   9  11
ENDBRANCH   1   5
BRANCH   2  19
HETATM   19  N   UNL     1      41.202 -10.227   7.402  1.00  0.00    -0.267 N 
HETATM   20  C   UNL     1      41.377  -8.977   6.850  1.00  0.00     0.240 C 
HETATM   21  O   UNL     1      41.683  -8.816   5.672  1.00  0.00    -0.271 OA
HETATM   22  H   UNL     1      40.932 -10.398   8.366  1.00  0.00     0.190 HD
BRANCH  20  23
HETATM   23  C   UNL     1      41.223  -7.795   7.740  1.00  0.00     0.089 A 
HETATM   24  C   UNL     1      42.111  -7.491   8.934  1.00  0.00     0.034 A 
HETATM   25  C   UNL     1      42.164  -6.620   7.701  1.00  0.00     0.025 A 
BRANCH  24  26
HETATM   26  C   UNL     1      43.272  -8.382   9.332  1.00  0.00    -0.031 A 
HETATM   27  C   UNL     1      43.164  -9.367  10.336  1.00  0.00     0.040 A 
HETATM   28 CL   UNL     1      41.676  -9.609  11.186  1.00  0.00    -0.084 Cl
HETATM   29  C   UNL     1      44.250 -10.174  10.693  1.00  0.00     0.024 A 
HETATM   30  C   UNL     1      45.479 -10.008  10.061  1.00  0.00     0.002 A 
HETATM   31  C   UNL     1      45.625  -9.029   9.085  1.00  0.00     0.001 A 
HETATM   32  C   UNL     1      44.537  -8.224   8.733  1.00  0.00     0.009 A 
ENDBRANCH  24  26
ENDBRANCH  20  23
ENDBRANCH   2  19
TORSDOF 6
ENDMDL
MODEL 5
REMARK VINA RESULT:      -8.2      2.291      2.935
REMARK  6 active torsions:
REMARK  status: ('A' for Active; 'I' for Inactive)
REMARK    1  A    between atoms: O_2  and  C_3 
REMARK    2  A    between atoms: C_6  and  C_7 
REMARK    3  A    between atoms: C_11  and  C_12 
REMARK       I    between atoms: C_12  and  N_13 
REMARK    4  A    between atoms: N_13  and  N_14 
REMARK       I    between atoms: N_14  and  C_15 
REMARK    5  A    between atoms: C_15  and  C_16 
REMARK    6  A    between atoms: C_17  and  C_18 
ROOT
HETATM    1  C   UNL     1      43.509 -11.976   7.404  1.00  0.00     0.288 C 
HETATM    2  N   UNL     1      42.505 -11.106   7.041  1.00  0.00    -0.262 N 
HETATM    3  O   UNL     1      44.455 -11.626   8.107  1.00  0.00    -0.264 OA
HETATM    4  H   UNL     1      41.756 -11.346   6.396  1.00  0.00     0.190 HD
ENDROOT
BRANCH   1   5
HETATM    5  C   UNL     1      43.372 -13.315   6.902  1.00  0.00     0.121 A 
HETATM    6  N   UNL     1      43.091 -14.370   7.722  1.00  0.00    -0.272 N 
HETATM    7  N   UNL     1      42.980 -15.547   7.090  1.00  0.00    -0.174 NA
HETATM    8  H   UNL     1      42.955 -14.340   8.729  1.00  0.00     0.189 HD
HETATM    9  C   UNL     1      43.225 -15.265   5.800  1.00  0.00     0.089 A 
HETATM   10  C   UNL     1      43.469 -13.871   5.641  1.00  0.00     0.071 A 
BRANCH   9  11
HETATM   11  C   UNL     1      43.207 -16.301   4.764  1.00  0.00    -0.005 A 
HETATM   12  C   UNL     1      42.530 -16.087   3.555  1.00  0.00     0.016 A 
HETATM   13  C   UNL     1      42.528 -17.060   2.546  1.00  0.00     0.037 A 
HETATM   14  C   UNL     1      43.202 -18.265   2.734  1.00  0.00     0.068 A 
HETATM   15  C   UNL     1      43.862 -18.493   3.942  1.00  0.00     0.037 A 
HETATM   16  C   UNL     1      43.869 -17.521   4.949  1.00  0.00     0.016 A 
BRANCH  14  17
HETATM   17  O   UNL     1      43.285 -19.291   1.834  1.00  0.00    -0.356 OA
HETATM   18  C   UNL     1      43.788 -20.530   2.321  1.00  0.00     0.210 C 
ENDBRANCH  14  17
ENDBRANCH   9  11
ENDBRANCH   1   5
BRANCH   2  19
HETATM   19  N   UNL     1      42.623  -9.752   7.366  1.00  0.00    -0.267 N 
HETATM   20  C   UNL     1      41.518  -9.105   7.872  1.00  0.00     0.240 C 
HETATM   21  O   UNL     1      40.449  -9.679   8.059  1.00  0.00    -0.271 OA
HETATM   22  H   UNL     1      43.527  -9.314   7.215  1.00  0.00     0.190 HD
BRANCH  20  23
HETATM   23  C   UNL     1      41.632  -7.650   8.159  1.00  0.00     0.089 A 
HETATM   24  C   UNL     1      41.818  -7.053   9.543  1.00  0.00     0.034 A 
HETATM   25  C   UNL     1      42.937  -6.994   8.529  1.00  0.00     0.025 A 
BRANCH  24  26
HETATM   26  C   UNL     1      41.918  -7.909  10.791  1.00  0.00    -0.031 A 
HETATM   27  C   UNL     1      40.785  -8.442  11.440  1.00  0.00     0.040 A 
HETATM   28 CL   UNL     1      39.192  -8.134  10.838  1.00  0.00    -0.084 Cl
HETATM   29  C   UNL     1      40.899  -9.224  12.595  1.00  0.00     0.024 A 
HETATM   30  C   UNL     1      42.153  -9.484  13.139  1.00  0.00     0.002 A 
HETATM   31  C   UNL     1      43.289  -8.954  12.537  1.00  0.00     0.001 A 
HETATM   32  C   UNL     1      43.169  -8.171  11.384  1.00  0.00     0.009 A 
ENDBRANCH  24  26
ENDBRANCH  20  23
ENDBRANCH   2  19
TORSDOF 6
ENDMDL
MODEL 6
REMARK VINA RESULT:      -8.2      2.085      3.206
REMARK  6 active torsions:
REMARK  status: ('A' for Active; 'I' for Inactive)
REMARK    1  A    between atoms: O_2  and  C_3 
REMARK    2  A    between atoms: C_6  and  C_7 
REMARK    3  A    between atoms: C_11  and  C_12 
REMARK       I    between atoms: C_12  and  N_13 
REMARK    4  A    between atoms: N_13  and  N_14 
REMARK       I    between atoms: N_14  and  C_15 
REMARK    5  A    between atoms: C_15  and  C_16 
REMARK    6  A    between atoms: C_17  and  C_18 
ROOT
HETATM    1  C   UNL     1      42.789 -11.860   6.758  1.00  0.00     0.288 C 
HETATM    2  N   UNL     1      43.707 -11.946   7.781  1.00  0.00    -0.262 N 
HETATM    3  O   UNL     1      42.029 -10.901   6.639  1.00  0.00    -0.264 OA
HETATM    4  H   UNL     1      44.289 -12.762   7.949  1.00  0.00     0.190 HD
ENDROOT
BRANCH   1   5
HETATM    5  C   UNL     1      42.783 -12.970   5.844  1.00  0.00     0.121 A 
HETATM    6  N   UNL     1      42.191 -12.891   4.616  1.00  0.00    -0.272 N 
HETATM    7  N   UNL     1      42.290 -14.010   3.883  1.00  0.00    -0.174 NA
HETATM    8  H   UNL     1      41.707 -12.089   4.222  1.00  0.00     0.189 HD
HETATM    9  C   UNL     1      42.953 -14.874   4.669  1.00  0.00     0.089 A 
HETATM   10  C   UNL     1      43.285 -14.255   5.907  1.00  0.00     0.071 A 
BRANCH   9  11
HETATM   11  C   UNL     1      43.264 -16.237   4.230  1.00  0.00    -0.005 A 
HETATM   12  C   UNL     1      43.947 -17.120   5.079  1.00  0.00     0.016 A 
HETATM   13  C   UNL     1      44.227 -18.434   4.682  1.00  0.00     0.037 A 
HETATM   14  C   UNL     1      43.830 -18.885   3.425  1.00  0.00     0.068 A 
HETATM   15  C   UNL     1      43.167 -18.006   2.566  1.00  0.00     0.037 A 
HETATM   16  C   UNL     1      42.883 -16.695   2.963  1.00  0.00     0.016 A 
BRANCH  14  17
HETATM   17  O   UNL     1      44.033 -20.138   2.916  1.00  0.00    -0.356 OA
HETATM   18  C   UNL     1      43.468 -20.408   1.638  1.00  0.00     0.210 C 
ENDBRANCH  14  17
ENDBRANCH   9  11
ENDBRANCH   1   5
BRANCH   2  19
HETATM   19  N   UNL     1      43.692 -10.983   8.794  1.00  0.00    -0.267 N 
HETATM   20  C   UNL     1      44.565  -9.923   8.696  1.00  0.00     0.240 C 
HETATM   21  O   UNL     1      45.336  -9.791   7.749  1.00  0.00    -0.271 OA
HETATM   22  H   UNL     1      43.030 -11.116   9.553  1.00  0.00     0.190 HD
BRANCH  20  23
HETATM   23  C   UNL     1      44.588  -8.935   9.808  1.00  0.00     0.089 A 
HETATM   24  C   UNL     1      43.359  -8.250  10.381  1.00  0.00     0.034 A 
HETATM   25  C   UNL     1      44.120  -9.266  11.201  1.00  0.00     0.025 A 
BRANCH  24  26
HETATM   26  C   UNL     1      41.960  -8.526   9.866  1.00  0.00    -0.031 A 
HETATM   27  C   UNL     1      41.473  -7.981   8.659  1.00  0.00     0.040 A 
HETATM   28 CL   UNL     1      42.464  -6.945   7.690  1.00  0.00    -0.084 Cl
HETATM   29  C   UNL     1      40.176  -8.244   8.206  1.00  0.00     0.024 A 
HETATM   30  C   UNL     1      39.324  -9.050   8.956  1.00  0.00     0.002 A 
HETATM   31  C   UNL     1      39.766  -9.582  10.162  1.00  0.00     0.001 A 
HETATM   32  C   UNL     1      41.063  -9.316  10.613  1.00  0.00     0.009 A 
ENDBRANCH  24  26
ENDBRANCH  20  23
ENDBRANCH   2  19
TORSDOF 6
ENDMDL
MODEL 7
REMARK VINA RESULT:      -7.8      3.682      9.688
REMARK  6 active torsions:
REMARK  status: ('A' for Active; 'I' for Inactive)
REMARK    1  A    between atoms: O_2  and  C_3 
REMARK    2  A    between atoms: C_6  and  C_7 
REMARK    3  A    between atoms: C_11  and  C_12 
REMARK       I    between atoms: C_12  and  N_13 
REMARK    4  A    between atoms: N_13  and  N_14 
REMARK       I    between atoms: N_14  and  C_15 
REMARK    5  A    between atoms: C_15  and  C_16 
REMARK    6  A    between atoms: C_17  and  C_18 
ROOT
HETATM    1  C   UNL     1      43.814 -11.128   5.918  1.00  0.00     0.288 C 
HETATM    2  N   UNL     1      42.506 -11.234   5.501  1.00  0.00    -0.262 N 
HETATM    3  O   UNL     1      44.761 -11.318   5.156  1.00  0.00    -0.264 OA
HETATM    4  H   UNL     1      41.707 -11.163   6.127  1.00  0.00     0.190 HD
ENDROOT
BRANCH   1   5
HETATM    5  C   UNL     1      43.992 -10.783   7.302  1.00  0.00     0.121 A 
HETATM    6  N   UNL     1      45.176 -10.986   7.951  1.00  0.00    -0.272 N 
HETATM    7  N   UNL     1      45.177 -10.593   9.234  1.00  0.00    -0.174 NA
HETATM    8  H   UNL     1      46.025 -11.386   7.561  1.00  0.00     0.189 HD
HETATM    9  C   UNL     1      43.933 -10.135   9.449  1.00  0.00     0.089 A 
HETATM   10  C   UNL     1      43.161 -10.232   8.257  1.00  0.00     0.071 A 
BRANCH   9  11
HETATM   11  C   UNL     1      43.517  -9.611  10.753  1.00  0.00    -0.005 A 
HETATM   12  C   UNL     1      43.065 -10.478  11.758  1.00  0.00     0.016 A 
HETATM   13  C   UNL     1      42.690  -9.992  13.018  1.00  0.00     0.037 A 
HETATM   14  C   UNL     1      42.757  -8.628  13.290  1.00  0.00     0.068 A 
HETATM   15  C   UNL     1      43.187  -7.755  12.288  1.00  0.00     0.037 A 
HETATM   16  C   UNL     1      43.566  -8.240  11.032  1.00  0.00     0.016 A 
BRANCH  14  17
HETATM   17  O   UNL     1      42.428  -8.023  14.472  1.00  0.00    -0.356 OA
HETATM   18  C   UNL     1      41.198  -8.414  15.070  1.00  0.00     0.210 C 
ENDBRANCH  14  17
ENDBRANCH   9  11
ENDBRANCH   1   5
BRANCH   2  19
HETATM   19  N   UNL     1      42.236 -11.699   4.212  1.00  0.00    -0.267 N 
HETATM   20  C   UNL     1      40.963 -12.147   3.936  1.00  0.00     0.240 C 
HETATM   21  O   UNL     1      40.066 -12.135   4.773  1.00  0.00    -0.271 OA
HETATM   22  H   UNL     1      42.998 -11.679   3.540  1.00  0.00     0.190 HD
BRANCH  20  23
HETATM   23  C   UNL     1      40.698 -12.698   2.579  1.00  0.00     0.089 A 
HETATM   24  C   UNL     1      40.979 -14.131   2.159  1.00  0.00     0.034 A 
HETATM   25  C   UNL     1      39.556 -13.638   2.293  1.00  0.00     0.025 A 
BRANCH  24  26
HETATM   26  C   UNL     1      41.560 -15.159   3.110  1.00  0.00    -0.031 A 
HETATM   27  C   UNL     1      42.826 -15.749   2.910  1.00  0.00     0.040 A 
HETATM   28 CL   UNL     1      43.795 -15.327   1.540  1.00  0.00    -0.084 Cl
HETATM   29  C   UNL     1      43.340 -16.701   3.797  1.00  0.00     0.024 A 
HETATM   30  C   UNL     1      42.595 -17.098   4.904  1.00  0.00     0.002 A 
HETATM   31  C   UNL     1      41.334 -16.553   5.116  1.00  0.00     0.001 A 
HETATM   32  C   UNL     1      40.822 -15.603   4.226  1.00  0.00     0.009 A 
ENDBRANCH  24  26
ENDBRANCH  20  23
ENDBRANCH   2  19
TORSDOF 6
ENDMDL
MODEL 8
REMARK VINA RESULT:      -7.8      6.777      8.094
REMARK  6 active torsions:
REMARK  status: ('A' for Active; 'I' for Inactive)
REMARK    1  A    between atoms: O_2  and  C_3 
REMARK    2  A    between atoms: C_6  and  C_7 
REMARK    3  A    between atoms: C_11  and  C_12 
REMARK       I    between atoms: C_12  and  N_13 
REMARK    4  A    between atoms: N_13  and  N_14 
REMARK       I    between atoms: N_14  and  C_15 
REMARK    5  A    between atoms: C_15  and  C_16 
REMARK    6  A    between atoms: C_17  and  C_18 
ROOT
HETATM    1  C   UNL     1      40.157 -13.250  -0.089  1.00  0.00     0.288 C 
HETATM    2  N   UNL     1      41.229 -12.691  -0.748  1.00  0.00    -0.262 N 
HETATM    3  O   UNL     1      38.999 -12.895  -0.305  1.00  0.00    -0.264 OA
HETATM    4  H   UNL     1      42.199 -12.908  -0.532  1.00  0.00     0.190 HD
ENDROOT
BRANCH   1   5
HETATM    5  C   UNL     1      40.487 -14.273   0.865  1.00  0.00     0.121 A 
HETATM    6  N   UNL     1      39.593 -14.702   1.803  1.00  0.00    -0.272 N 
HETATM    7  N   UNL     1      40.056 -15.673   2.604  1.00  0.00    -0.174 NA
HETATM    8  H   UNL     1      38.642 -14.369   1.937  1.00  0.00     0.189 HD
HETATM    9  C   UNL     1      41.319 -15.877   2.196  1.00  0.00     0.089 A 
HETATM   10  C   UNL     1      41.625 -15.020   1.101  1.00  0.00     0.071 A 
BRANCH   9  11
HETATM   11  C   UNL     1      42.187 -16.871   2.832  1.00  0.00    -0.005 A 
HETATM   12  C   UNL     1      42.693 -17.951   2.095  1.00  0.00     0.016 A 
HETATM   13  C   UNL     1      43.546 -18.894   2.685  1.00  0.00     0.037 A 
HETATM   14  C   UNL     1      43.902 -18.772   4.026  1.00  0.00     0.068 A 
HETATM   15  C   UNL     1      43.388 -17.710   4.772  1.00  0.00     0.037 A 
HETATM   16  C   UNL     1      42.540 -16.766   4.183  1.00  0.00     0.016 A 
BRANCH  14  17
HETATM   17  O   UNL     1      44.727 -19.613   4.722  1.00  0.00    -0.356 OA
HETATM   18  C   UNL     1      44.103 -20.670   5.440  1.00  0.00     0.210 C 
ENDBRANCH  14  17
ENDBRANCH   9  11
ENDBRANCH   1   5
BRANCH   2  19
HETATM   19  N   UNL     1      41.019 -11.597  -1.591  1.00  0.00    -0.267 N 
HETATM   20  C   UNL     1      41.382 -10.348  -1.138  1.00  0.00     0.240 C 
HETATM   21  O   UNL     1      41.894 -10.172  -0.036  1.00  0.00    -0.271 OA
HETATM   22  H   UNL     1      40.609 -11.782  -2.501  1.00  0.00     0.190 HD
BRANCH  20  23
HETATM   23  C   UNL     1      41.098  -9.180  -2.014  1.00  0.00     0.089 A 
HETATM   24  C   UNL     1      39.776  -8.434  -2.059  1.00  0.00     0.034 A 
HETATM   25  C   UNL     1      41.008  -7.771  -1.488  1.00  0.00     0.025 A 
BRANCH  24  26
HETATM   26  C   UNL     1      38.597  -8.814  -1.183  1.00  0.00    -0.031 A 
HETATM   27  C   UNL     1      37.682  -9.827  -1.539  1.00  0.00     0.040 A 
HETATM   28 CL   UNL     1      37.856 -10.698  -3.024  1.00  0.00    -0.084 Cl
HETATM   29  C   UNL     1      36.597 -10.157  -0.720  1.00  0.00     0.024 A 
HETATM   30  C   UNL     1      36.392  -9.473   0.475  1.00  0.00     0.002 A 
HETATM   31  C   UNL     1      37.262  -8.454   0.843  1.00  0.00     0.001 A 
HETATM   32  C   UNL     1      38.344  -8.125   0.020  1.00  0.00     0.009 A 
ENDBRANCH  24  26
ENDBRANCH  20  23
ENDBRANCH   2  19
TORSDOF 6
ENDMDL
MODEL 9
REMARK VINA RESULT:      -7.8      6.484      8.474
REMARK  6 active torsions:
REMARK  status: ('A' for Active; 'I' for Inactive)
REMARK    1  A    between atoms: O_2  and  C_3 
REMARK    2  A    between atoms: C_6  and  C_7 
REMARK    3  A    between atoms: C_11  and  C_12 
REMARK       I    between atoms: C_12  and  N_13 
REMARK    4  A    between atoms: N_13  and  N_14 
REMARK       I    between atoms: N_14  and  C_15 
REMARK    5  A    between atoms: C_15  and  C_16 
REMARK    6  A    between atoms: C_17  and  C_18 
ROOT
HETATM    1  C   UNL     1      39.701 -13.291   1.555  1.00  0.00     0.288 C 
HETATM    2  N   UNL     1      39.235 -13.217   0.261  1.00  0.00    -0.262 N 
HETATM    3  O   UNL     1      39.226 -12.609   2.461  1.00  0.00    -0.264 OA
HETATM    4  H   UNL     1      39.662 -13.707  -0.521  1.00  0.00     0.190 HD
ENDROOT
BRANCH   1   5
HETATM    5  C   UNL     1      40.781 -14.216   1.767  1.00  0.00     0.121 A 
HETATM    6  N   UNL     1      41.923 -14.177   1.020  1.00  0.00    -0.272 N 
HETATM    7  N   UNL     1      42.836 -15.099   1.359  1.00  0.00    -0.174 NA
HETATM    8  H   UNL     1      42.138 -13.530   0.266  1.00  0.00     0.189 HD
HETATM    9  C   UNL     1      42.262 -15.795   2.354  1.00  0.00     0.089 A 
HETATM   10  C   UNL     1      40.973 -15.266   2.643  1.00  0.00     0.071 A 
BRANCH   9  11
HETATM   11  C   UNL     1      42.943 -16.917   3.007  1.00  0.00    -0.005 A 
HETATM   12  C   UNL     1      43.514 -16.761   4.279  1.00  0.00     0.016 A 
HETATM   13  C   UNL     1      44.144 -17.833   4.925  1.00  0.00     0.037 A 
HETATM   14  C   UNL     1      44.217 -19.079   4.305  1.00  0.00     0.068 A 
HETATM   15  C   UNL     1      43.668 -19.237   3.031  1.00  0.00     0.037 A 
HETATM   16  C   UNL     1      43.035 -18.169   2.387  1.00  0.00     0.016 A 
BRANCH  14  17
HETATM   17  O   UNL     1      44.794 -20.205   4.822  1.00  0.00    -0.356 OA
HETATM   18  C   UNL     1      43.914 -21.245   5.232  1.00  0.00     0.210 C 
ENDBRANCH  14  17
ENDBRANCH   9  11
ENDBRANCH   1   5
BRANCH   2  19
HETATM   19  N   UNL     1      38.283 -12.248  -0.068  1.00  0.00    -0.267 N 
HETATM   20  C   UNL     1      37.804 -12.220  -1.358  1.00  0.00     0.240 C 
HETATM   21  O   UNL     1      38.171 -13.020  -2.214  1.00  0.00    -0.271 OA
HETATM   22  H   UNL     1      37.991 -11.614   0.669  1.00  0.00     0.190 HD
BRANCH  20  23
HETATM   23  C   UNL     1      36.837 -11.147  -1.719  1.00  0.00     0.089 A 
HETATM   24  C   UNL     1      37.222  -9.797  -2.299  1.00  0.00     0.034 A 
HETATM   25  C   UNL     1      36.489 -10.813  -3.145  1.00  0.00     0.025 A 
BRANCH  24  26
HETATM   26  C   UNL     1      38.661  -9.413  -2.583  1.00  0.00    -0.031 A 
HETATM   27  C   UNL     1      39.511  -8.871  -1.596  1.00  0.00     0.040 A 
HETATM   28 CL   UNL     1      38.942  -8.603   0.016  1.00  0.00    -0.084 Cl
HETATM   29  C   UNL     1      40.835  -8.517  -1.881  1.00  0.00     0.024 A 
HETATM   30  C   UNL     1      41.341  -8.686  -3.166  1.00  0.00     0.002 A 
HETATM   31  C   UNL     1      40.522  -9.197  -4.167  1.00  0.00     0.001 A 
HETATM   32  C   UNL     1      39.199  -9.546  -3.879  1.00  0.00     0.009 A 
ENDBRANCH  24  26
ENDBRANCH  20  23
ENDBRANCH   2  19
TORSDOF 6
ENDMDL
MODEL 10
REMARK VINA RESULT:      -7.7      3.104      3.799
REMARK  6 active torsions:
REMARK  status: ('A' for Active; 'I' for Inactive)
REMARK    1  A    between atoms: O_2  and  C_3 
REMARK    2  A    between atoms: C_6  and  C_7 
REMARK    3  A    between atoms: C_11  and  C_12 
REMARK       I    between atoms: C_12  and  N_13 
REMARK    4  A    between atoms: N_13  and  N_14 
REMARK       I    between atoms: N_14  and  C_15 
REMARK    5  A    between atoms: C_15  and  C_16 
REMARK    6  A    between atoms: C_17  and  C_18 
ROOT
HETATM    1  C   UNL     1      39.417 -11.316   6.560  1.00  0.00     0.288 C 
HETATM    2  N   UNL     1      40.574 -10.739   7.034  1.00  0.00    -0.262 N 
HETATM    3  O   UNL     1      38.328 -11.144   7.106  1.00  0.00    -0.264 OA
HETATM    4  H   UNL     1      41.497 -10.929   6.652  1.00  0.00     0.190 HD
ENDROOT
BRANCH   1   5
HETATM    5  C   UNL     1      39.574 -12.132   5.387  1.00  0.00     0.121 A 
HETATM    6  N   UNL     1      39.959 -13.440   5.463  1.00  0.00    -0.272 N 
HETATM    7  N   UNL     1      40.040 -14.061   4.277  1.00  0.00    -0.174 NA
HETATM    8  H   UNL     1      40.173 -13.965   6.306  1.00  0.00     0.189 HD
HETATM    9  C   UNL     1      39.722 -13.117   3.376  1.00  0.00     0.089 A 
HETATM   10  C   UNL     1      39.416 -11.893   4.036  1.00  0.00     0.071 A 
BRANCH   9  11
HETATM   11  C   UNL     1      39.700 -13.395   1.937  1.00  0.00    -0.005 A 
HETATM   12  C   UNL     1      39.292 -12.410   1.027  1.00  0.00     0.016 A 
HETATM   13  C   UNL     1      39.292 -12.655  -0.352  1.00  0.00     0.037 A 
HETATM   14  C   UNL     1      39.697 -13.895  -0.843  1.00  0.00     0.068 A 
HETATM   15  C   UNL     1      40.087 -14.888   0.058  1.00  0.00     0.037 A 
HETATM   16  C   UNL     1      40.091 -14.642   1.436  1.00  0.00     0.016 A 
BRANCH  14  17
HETATM   17  O   UNL     1      39.752 -14.264  -2.158  1.00  0.00    -0.356 OA
HETATM   18  C   UNL     1      38.556 -14.115  -2.914  1.00  0.00     0.210 C 
ENDBRANCH  14  17
ENDBRANCH   9  11
ENDBRANCH   1   5
BRANCH   2  19
HETATM   19  N   UNL     1      40.543 -10.043   8.246  1.00  0.00    -0.267 N 
HETATM   20  C   UNL     1      40.663  -8.672   8.212  1.00  0.00     0.240 C 
HETATM   21  O   UNL     1      40.779  -8.048   7.160  1.00  0.00    -0.271 OA
HETATM   22  H   UNL     1      40.429 -10.590   9.094  1.00  0.00     0.190 HD
BRANCH  20  23
HETATM   23  C   UNL     1      40.692  -7.942   9.508  1.00  0.00     0.089 A 
HETATM   24  C   UNL     1      41.916  -7.811  10.399  1.00  0.00     0.034 A 
HETATM   25  C   UNL     1      41.364  -6.605   9.674  1.00  0.00     0.025 A 
BRANCH  24  26
HETATM   26  C   UNL     1      43.257  -8.416  10.033  1.00  0.00    -0.031 A 
HETATM   27  C   UNL     1      43.830  -9.486  10.753  1.00  0.00     0.040 A 
HETATM   28 CL   UNL     1      43.019 -10.170  12.120  1.00  0.00    -0.084 Cl
HETATM   29  C   UNL     1      45.072 -10.026  10.402  1.00  0.00     0.024 A 
HETATM   30  C   UNL     1      45.782  -9.500   9.327  1.00  0.00     0.002 A 
HETATM   31  C   UNL     1      45.256  -8.430   8.612  1.00  0.00     0.001 A 
HETATM   32  C   UNL     1      44.015  -7.892   8.967  1.00  0.00     0.009 A 
ENDBRANCH  24  26
ENDBRANCH  20  23
ENDBRANCH   2  19
TORSDOF 6
ENDMDL
