MODEL 1
REMARK VINA RESULT:      -7.2      0.000      0.000
REMARK  4 active torsions:
REMARK  status: ('A' for Active; 'I' for Inactive)
REMARK    1  A    between atoms: C_2  and  O_3 
REMARK    2  A    between atoms: O_3  and  C_4 
REMARK    3  A    between atoms: C_7  and  N_8 
REMARK       I    between atoms: N_8  and  C_9 
REMARK    4  A    between atoms: C_9  and  C_10 
ROOT
HETATM    1  N   UNL     1      42.044 -15.242   1.188  1.00  0.00    -0.323 N 
HETATM    2  C   UNL     1      40.707 -14.892   1.102  1.00  0.00     0.257 C 
HETATM    3  O   UNL     1      39.841 -15.116   1.939  1.00  0.00    -0.267 OA
HETATM    4  H   UNL     1      42.666 -14.918   0.463  1.00  0.00     0.169 HD
ENDROOT
BRANCH   1   5
HETATM    5  C   UNL     1      42.668 -15.988   2.213  1.00  0.00     0.035 A 
HETATM    6  C   UNL     1      42.940 -15.494   3.490  1.00  0.00     0.032 A 
HETATM    7  C   UNL     1      43.543 -16.309   4.456  1.00  0.00     0.039 A 
HETATM    8  C   UNL     1      43.850 -17.634   4.161  1.00  0.00     0.069 A 
HETATM    9  C   UNL     1      43.619 -18.124   2.880  1.00  0.00     0.039 A 
HETATM   10  C   UNL     1      43.026 -17.309   1.912  1.00  0.00     0.032 A 
BRANCH   8  11
HETATM   11  O   UNL     1      44.450 -18.488   5.041  1.00  0.00    -0.347 OA
BRANCH  11  12
HETATM   12  C   UNL     1      43.626 -19.568   5.506  1.00  0.00     0.120 C 
HETATM   13  C   UNL     1      43.355 -19.339   6.989  1.00  0.00     0.040 C 
HETATM   14  C   UNL     1      44.394 -20.868   5.291  1.00  0.00     0.040 C 
ENDBRANCH  11  12
ENDBRANCH   8  11
ENDBRANCH   1   5
BRANCH   2  15
HETATM   15  C   UNL     1      40.304 -14.160  -0.128  1.00  0.00     0.051 A 
HETATM   16  C   UNL     1      40.717 -12.838  -0.274  1.00  0.00     0.133 A 
HETATM   17  N   UNL     1      40.414 -12.061  -1.345  1.00  0.00    -0.271 NA
HETATM   18  C   UNL     1      39.649 -12.624  -2.307  1.00  0.00     0.135 A 
HETATM   19  C   UNL     1      39.175 -13.926  -2.241  1.00  0.00     0.029 A 
HETATM   20 BR   UNL     1      38.101 -14.631  -3.622  1.00  0.00    -0.050 Br
HETATM   21  C   UNL     1      39.500 -14.707  -1.133  1.00  0.00     0.039 A 
ENDBRANCH   2  15
TORSDOF 4
ENDMDL
MODEL 2
REMARK VINA RESULT:      -7.0      1.361      1.612
REMARK  4 active torsions:
REMARK  status: ('A' for Active; 'I' for Inactive)
REMARK    1  A    between atoms: C_2  and  O_3 
REMARK    2  A    between atoms: O_3  and  C_4 
REMARK    3  A    between atoms: C_7  and  N_8 
REMARK       I    between atoms: N_8  and  C_9 
REMARK    4  A    between atoms: C_9  and  C_10 
ROOT
HETATM    1  N   UNL     1      42.053 -15.127   1.195  1.00  0.00    -0.323 N 
HETATM    2  C   UNL     1      40.695 -14.948   0.994  1.00  0.00     0.257 C 
HETATM    3  O   UNL     1      39.792 -15.375   1.704  1.00  0.00    -0.267 OA
HETATM    4  H   UNL     1      42.691 -14.646   0.578  1.00  0.00     0.169 HD
ENDROOT
BRANCH   1   5
HETATM    5  C   UNL     1      42.673 -15.894   2.207  1.00  0.00     0.035 A 
HETATM    6  C   UNL     1      42.943 -15.425   3.494  1.00  0.00     0.032 A 
HETATM    7  C   UNL     1      43.542 -16.259   4.445  1.00  0.00     0.039 A 
HETATM    8  C   UNL     1      43.849 -17.578   4.125  1.00  0.00     0.069 A 
HETATM    9  C   UNL     1      43.621 -18.043   2.834  1.00  0.00     0.039 A 
HETATM   10  C   UNL     1      43.031 -17.209   1.881  1.00  0.00     0.032 A 
BRANCH   8  11
HETATM   11  O   UNL     1      44.447 -18.450   4.991  1.00  0.00    -0.347 OA
BRANCH  11  12
HETATM   12  C   UNL     1      43.616 -19.529   5.444  1.00  0.00     0.120 C 
HETATM   13  C   UNL     1      43.326 -19.302   6.923  1.00  0.00     0.040 C 
HETATM   14  C   UNL     1      44.385 -20.830   5.236  1.00  0.00     0.040 C 
ENDBRANCH  11  12
ENDBRANCH   8  11
ENDBRANCH   1   5
BRANCH   2  15
HETATM   15  C   UNL     1      40.314 -14.144  -0.197  1.00  0.00     0.051 A 
HETATM   16  C   UNL     1      39.483 -14.729  -1.150  1.00  0.00     0.133 A 
HETATM   17  N   UNL     1      39.066 -14.105  -2.281  1.00  0.00    -0.271 NA
HETATM   18  C   UNL     1      39.512 -12.845  -2.479  1.00  0.00     0.135 A 
HETATM   19  C   UNL     1      40.357 -12.187  -1.597  1.00  0.00     0.029 A 
HETATM   20 BR   UNL     1      40.944 -10.431  -1.956  1.00  0.00    -0.050 Br
HETATM   21  C   UNL     1      40.772 -12.845  -0.440  1.00  0.00     0.039 A 
ENDBRANCH   2  15
TORSDOF 4
ENDMDL
MODEL 3
REMARK VINA RESULT:      -6.7      1.945      2.268
REMARK  4 active torsions:
REMARK  status: ('A' for Active; 'I' for Inactive)
REMARK    1  A    between atoms: C_2  and  O_3 
REMARK    2  A    between atoms: O_3  and  C_4 
REMARK    3  A    between atoms: C_7  and  N_8 
REMARK       I    between atoms: N_8  and  C_9 
REMARK    4  A    between atoms: C_9  and  C_10 
ROOT
HETATM    1  N   UNL     1      40.443 -15.320   0.724  1.00  0.00    -0.323 N 
HETATM    2  C   UNL     1      40.362 -14.040   0.203  1.00  0.00     0.257 C 
HETATM    3  O   UNL     1      41.014 -13.066   0.560  1.00  0.00    -0.267 OA
HETATM    4  H   UNL     1      39.908 -16.049   0.275  1.00  0.00     0.169 HD
ENDROOT
BRANCH   1   5
HETATM    5  C   UNL     1      41.231 -15.750   1.816  1.00  0.00     0.035 A 
HETATM    6  C   UNL     1      40.749 -15.912   3.116  1.00  0.00     0.032 A 
HETATM    7  C   UNL     1      41.593 -16.365   4.137  1.00  0.00     0.039 A 
HETATM    8  C   UNL     1      42.918 -16.687   3.859  1.00  0.00     0.069 A 
HETATM    9  C   UNL     1      43.418 -16.491   2.576  1.00  0.00     0.039 A 
HETATM   10  C   UNL     1      42.579 -16.031   1.557  1.00  0.00     0.032 A 
BRANCH   8  11
HETATM   11  O   UNL     1      43.808 -17.120   4.800  1.00  0.00    -0.347 OA
BRANCH  11  12
HETATM   12  C   UNL     1      43.225 -17.567   6.034  1.00  0.00     0.120 C 
HETATM   13  C   UNL     1      43.875 -16.780   7.166  1.00  0.00     0.040 C 
HETATM   14  C   UNL     1      43.516 -19.058   6.174  1.00  0.00     0.040 C 
ENDBRANCH  11  12
ENDBRANCH   8  11
ENDBRANCH   1   5
BRANCH   2  15
HETATM   15  C   UNL     1      39.394 -13.851  -0.910  1.00  0.00     0.051 A 
HETATM   16  C   UNL     1      39.210 -14.898  -1.810  1.00  0.00     0.133 A 
HETATM   17  N   UNL     1      38.360 -14.851  -2.868  1.00  0.00    -0.271 NA
HETATM   18  C   UNL     1      37.675 -13.698  -3.045  1.00  0.00     0.135 A 
HETATM   19  C   UNL     1      37.806 -12.596  -2.213  1.00  0.00     0.029 A 
HETATM   20 BR   UNL     1      36.822 -11.022  -2.540  1.00  0.00    -0.050 Br
HETATM   21  C   UNL     1      38.683 -12.667  -1.131  1.00  0.00     0.039 A 
ENDBRANCH   2  15
TORSDOF 4
ENDMDL
MODEL 4
REMARK VINA RESULT:      -6.7      6.538      8.470
REMARK  4 active torsions:
REMARK  status: ('A' for Active; 'I' for Inactive)
REMARK    1  A    between atoms: C_2  and  O_3 
REMARK    2  A    between atoms: O_3  and  C_4 
REMARK    3  A    between atoms: C_7  and  N_8 
REMARK       I    between atoms: N_8  and  C_9 
REMARK    4  A    between atoms: C_9  and  C_10 
ROOT
HETATM    1  N   UNL     1      43.550 -13.013   7.193  1.00  0.00    -0.323 N 
HETATM    2  C   UNL     1      44.222 -11.852   6.849  1.00  0.00     0.257 C 
HETATM    3  O   UNL     1      44.557 -11.514   5.720  1.00  0.00    -0.267 OA
HETATM    4  H   UNL     1      43.259 -13.125   8.152  1.00  0.00     0.169 HD
ENDROOT
BRANCH   1   5
HETATM    5  C   UNL     1      43.183 -14.075   6.335  1.00  0.00     0.035 A 
HETATM    6  C   UNL     1      42.061 -14.061   5.505  1.00  0.00     0.032 A 
HETATM    7  C   UNL     1      41.780 -15.148   4.668  1.00  0.00     0.039 A 
HETATM    8  C   UNL     1      42.637 -16.244   4.633  1.00  0.00     0.069 A 
HETATM    9  C   UNL     1      43.736 -16.284   5.485  1.00  0.00     0.039 A 
HETATM   10  C   UNL     1      44.012 -15.204   6.328  1.00  0.00     0.032 A 
BRANCH   8  11
HETATM   11  O   UNL     1      42.427 -17.347   3.856  1.00  0.00    -0.347 OA
BRANCH  11  12
HETATM   12  C   UNL     1      43.404 -17.568   2.828  1.00  0.00     0.120 C 
HETATM   13  C   UNL     1      43.206 -16.498   1.762  1.00  0.00     0.040 C 
HETATM   14  C   UNL     1      43.167 -18.960   2.249  1.00  0.00     0.040 C 
ENDBRANCH  11  12
ENDBRANCH   8  11
ENDBRANCH   1   5
BRANCH   2  15
HETATM   15  C   UNL     1      44.545 -10.931   7.970  1.00  0.00     0.051 A 
HETATM   16  C   UNL     1      45.667 -10.114   7.850  1.00  0.00     0.133 A 
HETATM   17  N   UNL     1      46.072  -9.234   8.800  1.00  0.00    -0.271 NA
HETATM   18  C   UNL     1      45.333  -9.179   9.931  1.00  0.00     0.135 A 
HETATM   19  C   UNL     1      44.211  -9.966  10.149  1.00  0.00     0.029 A 
HETATM   20 BR   UNL     1      43.243  -9.835  11.762  1.00  0.00    -0.050 Br
HETATM   21  C   UNL     1      43.811 -10.861   9.158  1.00  0.00     0.039 A 
ENDBRANCH   2  15
TORSDOF 4
ENDMDL
MODEL 5
REMARK VINA RESULT:      -6.6      3.128      8.231
REMARK  4 active torsions:
REMARK  status: ('A' for Active; 'I' for Inactive)
REMARK    1  A    between atoms: C_2  and  O_3 
REMARK    2  A    between atoms: O_3  and  C_4 
REMARK    3  A    between atoms: C_7  and  N_8 
REMARK       I    between atoms: N_8  and  C_9 
REMARK    4  A    between atoms: C_9  and  C_10 
ROOT
HETATM    1  N   UNL     1      41.172 -15.274   1.974  1.00  0.00    -0.323 N 
HETATM    2  C   UNL     1      42.540 -15.297   2.182  1.00  0.00     0.257 C 
HETATM    3  O   UNL     1      43.337 -14.417   1.878  1.00  0.00    -0.267 OA
HETATM    4  H   UNL     1      40.622 -16.030   2.354  1.00  0.00     0.169 HD
ENDROOT
BRANCH   1   5
HETATM    5  C   UNL     1      40.425 -14.276   1.306  1.00  0.00     0.035 A 
HETATM    6  C   UNL     1      39.896 -13.144   1.928  1.00  0.00     0.032 A 
HETATM    7  C   UNL     1      39.185 -12.191   1.187  1.00  0.00     0.039 A 
HETATM    8  C   UNL     1      39.025 -12.350  -0.186  1.00  0.00     0.069 A 
HETATM    9  C   UNL     1      39.514 -13.494  -0.808  1.00  0.00     0.039 A 
HETATM   10  C   UNL     1      40.216 -14.450  -0.068  1.00  0.00     0.032 A 
BRANCH   8  11
HETATM   11  O   UNL     1      38.334 -11.475  -0.976  1.00  0.00    -0.347 OA
BRANCH  11  12
HETATM   12  C   UNL     1      38.288 -11.814  -2.370  1.00  0.00     0.120 C 
HETATM   13  C   UNL     1      38.980 -10.697  -3.142  1.00  0.00     0.040 C 
HETATM   14  C   UNL     1      36.821 -11.923  -2.775  1.00  0.00     0.040 C 
ENDBRANCH  11  12
ENDBRANCH   8  11
ENDBRANCH   1   5
BRANCH   2  15
HETATM   15  C   UNL     1      43.075 -16.509   2.856  1.00  0.00     0.051 A 
HETATM   16  C   UNL     1      43.580 -16.378   4.147  1.00  0.00     0.133 A 
HETATM   17  N   UNL     1      44.099 -17.403   4.869  1.00  0.00    -0.271 NA
HETATM   18  C   UNL     1      44.132 -18.614   4.267  1.00  0.00     0.135 A 
HETATM   19  C   UNL     1      43.670 -18.838   2.978  1.00  0.00     0.029 A 
HETATM   20 BR   UNL     1      43.765 -20.557   2.208  1.00  0.00    -0.050 Br
HETATM   21  C   UNL     1      43.139 -17.771   2.256  1.00  0.00     0.039 A 
ENDBRANCH   2  15
TORSDOF 4
ENDMDL
MODEL 6
REMARK VINA RESULT:      -6.3      3.522      8.388
REMARK  4 active torsions:
REMARK  status: ('A' for Active; 'I' for Inactive)
REMARK    1  A    between atoms: C_2  and  O_3 
REMARK    2  A    between atoms: O_3  and  C_4 
REMARK    3  A    between atoms: C_7  and  N_8 
REMARK       I    between atoms: N_8  and  C_9 
REMARK    4  A    between atoms: C_9  and  C_10 
ROOT
HETATM    1  N   UNL     1      41.700 -15.257   2.292  1.00  0.00    -0.323 N 
HETATM    2  C   UNL     1      42.955 -15.836   2.213  1.00  0.00     0.257 C 
HETATM    3  O   UNL     1      43.786 -15.655   1.331  1.00  0.00    -0.267 OA
HETATM    4  H   UNL     1      41.151 -15.427   3.121  1.00  0.00     0.169 HD
ENDROOT
BRANCH   1   5
HETATM    5  C   UNL     1      41.091 -14.405   1.343  1.00  0.00     0.035 A 
HETATM    6  C   UNL     1      41.263 -13.020   1.306  1.00  0.00     0.032 A 
HETATM    7  C   UNL     1      40.639 -12.250   0.317  1.00  0.00     0.039 A 
HETATM    8  C   UNL     1      39.861 -12.864  -0.661  1.00  0.00     0.069 A 
HETATM    9  C   UNL     1      39.651 -14.238  -0.609  1.00  0.00     0.039 A 
HETATM   10  C   UNL     1      40.266 -15.007   0.382  1.00  0.00     0.032 A 
BRANCH   8  11
HETATM   11  O   UNL     1      39.209 -12.184  -1.649  1.00  0.00    -0.347 OA
BRANCH  11  12
HETATM   12  C   UNL     1      40.013 -11.248  -2.383  1.00  0.00     0.120 C 
HETATM   13  C   UNL     1      39.083 -10.445  -3.286  1.00  0.00     0.040 C 
HETATM   14  C   UNL     1      41.019 -12.042  -3.210  1.00  0.00     0.040 C 
ENDBRANCH  11  12
ENDBRANCH   8  11
ENDBRANCH   1   5
BRANCH   2  15
HETATM   15  C   UNL     1      43.320 -16.752   3.325  1.00  0.00     0.051 A 
HETATM   16  C   UNL     1      43.602 -18.082   3.019  1.00  0.00     0.133 A 
HETATM   17  N   UNL     1      43.944 -19.018   3.940  1.00  0.00    -0.271 NA
HETATM   18  C   UNL     1      43.989 -18.613   5.230  1.00  0.00     0.135 A 
HETATM   19  C   UNL     1      43.705 -17.317   5.633  1.00  0.00     0.029 A 
HETATM   20 BR   UNL     1      43.779 -16.838   7.456  1.00  0.00    -0.050 Br
HETATM   21  C   UNL     1      43.359 -16.370   4.670  1.00  0.00     0.039 A 
ENDBRANCH   2  15
TORSDOF 4
ENDMDL
MODEL 7
REMARK VINA RESULT:      -6.2      7.217      9.178
REMARK  4 active torsions:
REMARK  status: ('A' for Active; 'I' for Inactive)
REMARK    1  A    between atoms: C_2  and  O_3 
REMARK    2  A    between atoms: O_3  and  C_4 
REMARK    3  A    between atoms: C_7  and  N_8 
REMARK       I    between atoms: N_8  and  C_9 
REMARK    4  A    between atoms: C_9  and  C_10 
ROOT
HETATM    1  N   UNL     1      43.159 -11.801   7.502  1.00  0.00    -0.323 N 
HETATM    2  C   UNL     1      44.249 -11.125   8.022  1.00  0.00     0.257 C 
HETATM    3  O   UNL     1      45.414 -11.232   7.657  1.00  0.00    -0.267 OA
HETATM    4  H   UNL     1      42.242 -11.552   7.840  1.00  0.00     0.169 HD
ENDROOT
BRANCH   1   5
HETATM    5  C   UNL     1      43.171 -12.801   6.503  1.00  0.00     0.035 A 
HETATM    6  C   UNL     1      43.292 -14.168   6.762  1.00  0.00     0.032 A 
HETATM    7  C   UNL     1      43.272 -15.096   5.714  1.00  0.00     0.039 A 
HETATM    8  C   UNL     1      43.102 -14.666   4.402  1.00  0.00     0.069 A 
HETATM    9  C   UNL     1      43.020 -13.304   4.129  1.00  0.00     0.039 A 
HETATM   10  C   UNL     1      43.048 -12.376   5.174  1.00  0.00     0.032 A 
BRANCH   8  11
HETATM   11  O   UNL     1      43.086 -15.505   3.324  1.00  0.00    -0.347 OA
BRANCH  11  12
HETATM   12  C   UNL     1      42.185 -16.618   3.427  1.00  0.00     0.120 C 
HETATM   13  C   UNL     1      42.671 -17.699   2.469  1.00  0.00     0.040 C 
HETATM   14  C   UNL     1      40.794 -16.131   3.032  1.00  0.00     0.040 C 
ENDBRANCH  11  12
ENDBRANCH   8  11
ENDBRANCH   1   5
BRANCH   2  15
HETATM   15  C   UNL     1      43.957 -10.168   9.121  1.00  0.00     0.051 A 
HETATM   16  C   UNL     1      43.973 -10.641  10.431  1.00  0.00     0.133 A 
HETATM   17  N   UNL     1      43.721  -9.873  11.521  1.00  0.00    -0.271 NA
HETATM   18  C   UNL     1      43.421  -8.575  11.292  1.00  0.00     0.135 A 
HETATM   19  C   UNL     1      43.362  -8.017  10.024  1.00  0.00     0.029 A 
HETATM   20 BR   UNL     1      42.924  -6.197   9.792  1.00  0.00    -0.050 Br
HETATM   21  C   UNL     1      43.627  -8.824   8.918  1.00  0.00     0.039 A 
ENDBRANCH   2  15
TORSDOF 4
ENDMDL
MODEL 8
REMARK VINA RESULT:      -6.2      6.254      7.702
REMARK  4 active torsions:
REMARK  status: ('A' for Active; 'I' for Inactive)
REMARK    1  A    between atoms: C_2  and  O_3 
REMARK    2  A    between atoms: O_3  and  C_4 
REMARK    3  A    between atoms: C_7  and  N_8 
REMARK       I    between atoms: N_8  and  C_9 
REMARK    4  A    between atoms: C_9  and  C_10 
ROOT
HETATM    1  N   UNL     1      43.372 -12.636   5.089  1.00  0.00    -0.323 N 
HETATM    2  C   UNL     1      43.348 -12.398   3.725  1.00  0.00     0.257 C 
HETATM    3  O   UNL     1      43.737 -11.385   3.157  1.00  0.00    -0.267 OA
HETATM    4  H   UNL     1      43.100 -13.552   5.415  1.00  0.00     0.169 HD
ENDROOT
BRANCH   1   5
HETATM    5  C   UNL     1      43.775 -11.741   6.106  1.00  0.00     0.035 A 
HETATM    6  C   UNL     1      45.049 -11.720   6.674  1.00  0.00     0.032 A 
HETATM    7  C   UNL     1      45.374 -10.784   7.664  1.00  0.00     0.039 A 
HETATM    8  C   UNL     1      44.433  -9.843   8.071  1.00  0.00     0.069 A 
HETATM    9  C   UNL     1      43.148  -9.881   7.540  1.00  0.00     0.039 A 
HETATM   10  C   UNL     1      42.820 -10.820   6.558  1.00  0.00     0.032 A 
BRANCH   8  11
HETATM   11  O   UNL     1      44.665  -8.908   9.039  1.00  0.00    -0.347 OA
BRANCH  11  12
HETATM   12  C   UNL     1      43.538  -8.593   9.870  1.00  0.00     0.120 C 
HETATM   13  C   UNL     1      43.266  -7.099   9.737  1.00  0.00     0.040 C 
HETATM   14  C   UNL     1      43.903  -8.950  11.308  1.00  0.00     0.040 C 
ENDBRANCH  11  12
ENDBRANCH   8  11
ENDBRANCH   1   5
BRANCH   2  15
HETATM   15  C   UNL     1      42.808 -13.498   2.882  1.00  0.00     0.051 A 
HETATM   16  C   UNL     1      41.895 -13.174   1.881  1.00  0.00     0.133 A 
HETATM   17  N   UNL     1      41.327 -14.082   1.048  1.00  0.00    -0.271 NA
HETATM   18  C   UNL     1      41.674 -15.376   1.233  1.00  0.00     0.135 A 
HETATM   19  C   UNL     1      42.559 -15.796   2.214  1.00  0.00     0.029 A 
HETATM   20 BR   UNL     1      42.978 -17.624   2.413  1.00  0.00    -0.050 Br
HETATM   21  C   UNL     1      43.133 -14.846   3.058  1.00  0.00     0.039 A 
ENDBRANCH   2  15
TORSDOF 4
ENDMDL
MODEL 9
REMARK VINA RESULT:      -6.1     16.009     18.004
REMARK  4 active torsions:
REMARK  status: ('A' for Active; 'I' for Inactive)
REMARK    1  A    between atoms: C_2  and  O_3 
REMARK    2  A    between atoms: O_3  and  C_4 
REMARK    3  A    between atoms: C_7  and  N_8 
REMARK       I    between atoms: N_8  and  C_9 
REMARK    4  A    between atoms: C_9  and  C_10 
ROOT
HETATM    1  N   UNL     1      41.163  -8.007  16.770  1.00  0.00    -0.323 N 
HETATM    2  C   UNL     1      40.869  -6.925  17.583  1.00  0.00     0.257 C 
HETATM    3  O   UNL     1      40.982  -5.741  17.288  1.00  0.00    -0.267 OA
HETATM    4  H   UNL     1      40.940  -8.930  17.111  1.00  0.00     0.169 HD
ENDROOT
BRANCH   1   5
HETATM    5  C   UNL     1      41.720  -7.973  15.472  1.00  0.00     0.035 A 
HETATM    6  C   UNL     1      42.771  -7.139  15.089  1.00  0.00     0.032 A 
HETATM    7  C   UNL     1      43.279  -7.184  13.785  1.00  0.00     0.039 A 
HETATM    8  C   UNL     1      42.759  -8.087  12.863  1.00  0.00     0.069 A 
HETATM    9  C   UNL     1      41.685  -8.895  13.222  1.00  0.00     0.039 A 
HETATM   10  C   UNL     1      41.171  -8.844  14.521  1.00  0.00     0.032 A 
BRANCH   8  11
HETATM   11  O   UNL     1      43.189  -8.184  11.570  1.00  0.00    -0.347 OA
BRANCH  11  12
HETATM   12  C   UNL     1      43.085  -9.491  10.986  1.00  0.00     0.120 C 
HETATM   13  C   UNL     1      44.499 -10.037  10.817  1.00  0.00     0.040 C 
HETATM   14  C   UNL     1      42.396  -9.346   9.633  1.00  0.00     0.040 C 
ENDBRANCH  11  12
ENDBRANCH   8  11
ENDBRANCH   1   5
BRANCH   2  15
HETATM   15  C   UNL     1      40.353  -7.252  18.939  1.00  0.00     0.051 A 
HETATM   16  C   UNL     1      39.628  -8.430  19.103  1.00  0.00     0.133 A 
HETATM   17  N   UNL     1      39.101  -8.840  20.285  1.00  0.00    -0.271 NA
HETATM   18  C   UNL     1      39.292  -8.028  21.349  1.00  0.00     0.135 A 
HETATM   19  C   UNL     1      39.983  -6.827  21.279  1.00  0.00     0.029 A 
HETATM   20 BR   UNL     1      40.192  -5.747  22.810  1.00  0.00    -0.050 Br
HETATM   21  C   UNL     1      40.518  -6.426  20.055  1.00  0.00     0.039 A 
ENDBRANCH   2  15
TORSDOF 4
ENDMDL
MODEL 10
REMARK VINA RESULT:      -6.1      3.468      8.505
REMARK  4 active torsions:
REMARK  status: ('A' for Active; 'I' for Inactive)
REMARK    1  A    between atoms: C_2  and  O_3 
REMARK    2  A    between atoms: O_3  and  C_4 
REMARK    3  A    between atoms: C_7  and  N_8 
REMARK       I    between atoms: N_8  and  C_9 
REMARK    4  A    between atoms: C_9  and  C_10 
ROOT
HETATM    1  N   UNL     1      41.518 -15.185   1.177  1.00  0.00    -0.323 N 
HETATM    2  C   UNL     1      41.090 -15.793   2.344  1.00  0.00     0.257 C 
HETATM    3  O   UNL     1      39.971 -15.715   2.837  1.00  0.00    -0.267 OA
HETATM    4  H   UNL     1      42.444 -15.405   0.840  1.00  0.00     0.169 HD
ENDROOT
BRANCH   1   5
HETATM    5  C   UNL     1      40.786 -14.295   0.358  1.00  0.00     0.035 A 
HETATM    6  C   UNL     1      39.787 -14.690  -0.533  1.00  0.00     0.032 A 
HETATM    7  C   UNL     1      39.093 -13.740  -1.292  1.00  0.00     0.039 A 
HETATM    8  C   UNL     1      39.374 -12.385  -1.144  1.00  0.00     0.069 A 
HETATM    9  C   UNL     1      40.395 -11.984  -0.288  1.00  0.00     0.039 A 
HETATM   10  C   UNL     1      41.094 -12.932   0.464  1.00  0.00     0.032 A 
BRANCH   8  11
HETATM   11  O   UNL     1      38.754 -11.399  -1.857  1.00  0.00    -0.347 OA
BRANCH  11  12
HETATM   12  C   UNL     1      37.331 -11.317  -1.680  1.00  0.00     0.120 C 
HETATM   13  C   UNL     1      36.733 -10.780  -2.975  1.00  0.00     0.040 C 
HETATM   14  C   UNL     1      37.058 -10.364  -0.521  1.00  0.00     0.040 C 
ENDBRANCH  11  12
ENDBRANCH   8  11
ENDBRANCH   1   5
BRANCH   2  15
HETATM   15  C   UNL     1      42.096 -16.632   3.048  1.00  0.00     0.051 A 
HETATM   16  C   UNL     1      42.900 -17.476   2.286  1.00  0.00     0.133 A 
HETATM   17  N   UNL     1      43.852 -18.293   2.805  1.00  0.00    -0.271 NA
HETATM   18  C   UNL     1      43.996 -18.279   4.149  1.00  0.00     0.135 A 
HETATM   19  C   UNL     1      43.229 -17.487   4.991  1.00  0.00     0.029 A 
HETATM   20 BR   UNL     1      43.487 -17.538   6.859  1.00  0.00    -0.050 Br
HETATM   21  C   UNL     1      42.259 -16.654   4.436  1.00  0.00     0.039 A 
ENDBRANCH   2  15
TORSDOF 4
ENDMDL
