MODEL 1
REMARK VINA RESULT:      -8.9      0.000      0.000
REMARK  6 active torsions:
REMARK  status: ('A' for Active; 'I' for Inactive)
REMARK    1  A    between atoms: C_2  and  O_3 
REMARK    2  A    between atoms: O_3  and  C_4 
REMARK    3  A    between atoms: C_4  and  C_5 
REMARK    4  A    between atoms: C_10  and  N_11 
REMARK       I    between atoms: N_11  and  C_12 
REMARK    5  A    between atoms: C_12  and  C_13 
REMARK    6  A    between atoms: C_13  and  N_14 
ROOT
HETATM    1  N   UNL     1      42.405 -14.781   4.069  1.00  0.00    -0.322 N 
HETATM    2  C   UNL     1      42.807 -14.112   2.933  1.00  0.00     0.253 C 
HETATM    3  O   UNL     1      43.614 -14.569   2.128  1.00  0.00    -0.271 OA
HETATM    4  H   UNL     1      41.499 -14.575   4.484  1.00  0.00     0.169 HD
ENDROOT
BRANCH   2   5
HETATM    5  C   UNL     1      42.190 -12.692   2.704  1.00  0.00     0.275 C 
HETATM    6  C   UNL     1      43.150 -11.556   3.100  1.00  0.00     0.050 C 
BRANCH   5   7
HETATM    7  N   UNL     1      40.816 -12.392   3.444  1.00  0.00    -0.058 N 
HETATM    8  H   UNL     1      41.000 -12.748   4.391  1.00  0.00     0.281 HD
HETATM    9  C   UNL     1      40.516 -10.903   3.617  1.00  0.00     0.246 C 
HETATM   10  C   UNL     1      39.642 -10.302   2.495  1.00  0.00     0.062 C 
HETATM   11  C   UNL     1      38.343 -11.088   2.377  1.00  0.00     0.020 C 
HETATM   12  C   UNL     1      40.375 -10.271   1.170  1.00  0.00     0.020 A 
HETATM   13  C   UNL     1      38.711 -12.506   1.961  1.00  0.00     0.031 C 
HETATM   14  C   UNL     1      39.331 -12.461   0.566  1.00  0.00     0.138 C 
HETATM   15  C   UNL     1      39.569 -13.165   3.048  1.00  0.00     0.242 C 
HETATM   16  N   UNL     1      40.287 -11.379   0.322  1.00  0.00    -0.317 N 
HETATM   17  C   UNL     1      40.959 -11.431  -0.909  1.00  0.00     0.247 A 
HETATM   18  O   UNL     1      40.908 -12.382  -1.683  1.00  0.00    -0.268 OA
HETATM   19  C   UNL     1      41.789 -10.252  -1.258  1.00  0.00     0.074 A 
HETATM   20  C   UNL     1      41.845  -9.203  -0.430  1.00  0.00     0.007 A 
HETATM   21  C   UNL     1      41.121  -9.210   0.812  1.00  0.00     0.026 A 
ENDBRANCH   5   7
ENDBRANCH   2   5
BRANCH   1  22
HETATM   22  C   UNL     1      42.980 -15.942   4.588  1.00  0.00     0.080 A 
HETATM   23  C   UNL     1      43.483 -15.955   5.883  1.00  0.00     0.137 A 
HETATM   24  N   UNL     1      43.973 -17.216   6.117  1.00  0.00    -0.349 N 
HETATM   25  H   UNL     1      44.393 -17.513   6.990  1.00  0.00     0.166 HD
HETATM   26  C   UNL     1      43.842 -18.006   5.003  1.00  0.00     0.045 A 
HETATM   27  C   UNL     1      43.229 -17.231   4.010  1.00  0.00     0.023 A 
HETATM   28  C   UNL     1      44.236 -19.338   4.809  1.00  0.00     0.033 A 
HETATM   29  C   UNL     1      43.046 -17.827   2.744  1.00  0.00     0.058 A 
HETATM   30  C   UNL     1      43.433 -19.154   2.544  1.00  0.00     0.117 A 
HETATM   31  C   UNL     1      44.014 -19.903   3.554  1.00  0.00     0.044 A 
HETATM   32  F   UNL     1      43.245 -19.714   1.341  1.00  0.00    -0.206 F 
BRANCH  23  33
HETATM   33  C   UNL     1      43.483 -14.884   6.850  1.00  0.00     0.312 C 
HETATM   34  O   UNL     1      43.079 -15.007   8.001  1.00  0.00    -0.258 OA
BRANCH  33  35
HETATM   35  O   UNL     1      43.997 -13.754   6.297  1.00  0.00    -0.317 OA
BRANCH  35  36
HETATM   36  C   UNL     1      43.915 -12.569   7.102  1.00  0.00     0.175 C 
HETATM   37  C   UNL     1      45.035 -11.610   6.743  1.00  0.00     0.034 C 
ENDBRANCH  35  36
ENDBRANCH  33  35
ENDBRANCH  23  33
ENDBRANCH   1  22
TORSDOF 6
ENDMDL
MODEL 2
REMARK VINA RESULT:      -8.7      2.020      3.051
REMARK  6 active torsions:
REMARK  status: ('A' for Active; 'I' for Inactive)
REMARK    1  A    between atoms: C_2  and  O_3 
REMARK    2  A    between atoms: O_3  and  C_4 
REMARK    3  A    between atoms: C_4  and  C_5 
REMARK    4  A    between atoms: C_10  and  N_11 
REMARK       I    between atoms: N_11  and  C_12 
REMARK    5  A    between atoms: C_12  and  C_13 
REMARK    6  A    between atoms: C_13  and  N_14 
ROOT
HETATM    1  N   UNL     1      40.493 -14.469   2.780  1.00  0.00    -0.322 N 
HETATM    2  C   UNL     1      40.983 -13.567   1.862  1.00  0.00     0.253 C 
HETATM    3  O   UNL     1      42.177 -13.441   1.607  1.00  0.00    -0.271 OA
HETATM    4  H   UNL     1      39.539 -14.814   2.692  1.00  0.00     0.169 HD
ENDROOT
BRANCH   2   5
HETATM    5  C   UNL     1      39.929 -12.661   1.141  1.00  0.00     0.275 C 
HETATM    6  C   UNL     1      38.762 -12.260   2.060  1.00  0.00     0.050 C 
BRANCH   5   7
HETATM    7  N   UNL     1      39.272 -13.256  -0.178  1.00  0.00    -0.058 N 
HETATM    8  H   UNL     1      38.915 -14.162   0.151  1.00  0.00     0.281 HD
HETATM    9  C   UNL     1      38.046 -12.483  -0.665  1.00  0.00     0.246 C 
HETATM   10  C   UNL     1      38.360 -11.406  -1.725  1.00  0.00     0.062 C 
HETATM   11  C   UNL     1      39.082 -12.041  -2.906  1.00  0.00     0.020 C 
HETATM   12  C   UNL     1      39.174 -10.269  -1.143  1.00  0.00     0.020 A 
HETATM   13  C   UNL     1      40.411 -12.575  -2.388  1.00  0.00     0.031 C 
HETATM   14  C   UNL     1      41.265 -11.395  -1.926  1.00  0.00     0.138 C 
HETATM   15  C   UNL     1      40.164 -13.665  -1.339  1.00  0.00     0.242 C 
HETATM   16  N   UNL     1      40.569 -10.358  -1.162  1.00  0.00    -0.317 N 
HETATM   17  C   UNL     1      41.388  -9.355  -0.619  1.00  0.00     0.247 A 
HETATM   18  O   UNL     1      42.614  -9.392  -0.616  1.00  0.00    -0.268 OA
HETATM   19  C   UNL     1      40.693  -8.198  -0.004  1.00  0.00     0.074 A 
HETATM   20  C   UNL     1      39.357  -8.137  -0.009  1.00  0.00     0.007 A 
HETATM   21  C   UNL     1      38.578  -9.195  -0.594  1.00  0.00     0.026 A 
ENDBRANCH   5   7
ENDBRANCH   2   5
BRANCH   1  22
HETATM   22  C   UNL     1      41.247 -15.209   3.692  1.00  0.00     0.080 A 
HETATM   23  C   UNL     1      41.343 -14.801   5.017  1.00  0.00     0.137 A 
HETATM   24  N   UNL     1      42.134 -15.715   5.668  1.00  0.00    -0.349 N 
HETATM   25  H   UNL     1      42.365 -15.670   6.653  1.00  0.00     0.166 HD
HETATM   26  C   UNL     1      42.587 -16.676   4.800  1.00  0.00     0.045 A 
HETATM   27  C   UNL     1      42.057 -16.383   3.537  1.00  0.00     0.023 A 
HETATM   28  C   UNL     1      43.435 -17.765   5.048  1.00  0.00     0.033 A 
HETATM   29  C   UNL     1      42.444 -17.215   2.464  1.00  0.00     0.058 A 
HETATM   30  C   UNL     1      43.285 -18.303   2.703  1.00  0.00     0.117 A 
HETATM   31  C   UNL     1      43.772 -18.582   3.970  1.00  0.00     0.044 A 
HETATM   32  F   UNL     1      43.636 -19.093   1.679  1.00  0.00    -0.206 F 
BRANCH  23  33
HETATM   33  C   UNL     1      40.720 -13.662   5.645  1.00  0.00     0.312 C 
HETATM   34  O   UNL     1      39.855 -13.751   6.510  1.00  0.00    -0.258 OA
BRANCH  33  35
HETATM   35  O   UNL     1      41.237 -12.510   5.143  1.00  0.00    -0.317 OA
BRANCH  35  36
HETATM   36  C   UNL     1      42.567 -12.180   5.572  1.00  0.00     0.175 C 
HETATM   37  C   UNL     1      43.388 -11.677   4.399  1.00  0.00     0.034 C 
ENDBRANCH  35  36
ENDBRANCH  33  35
ENDBRANCH  23  33
ENDBRANCH   1  22
TORSDOF 6
ENDMDL
MODEL 3
REMARK VINA RESULT:      -8.7      4.243      7.632
REMARK  6 active torsions:
REMARK  status: ('A' for Active; 'I' for Inactive)
REMARK    1  A    between atoms: C_2  and  O_3 
REMARK    2  A    between atoms: O_3  and  C_4 
REMARK    3  A    between atoms: C_4  and  C_5 
REMARK    4  A    between atoms: C_10  and  N_11 
REMARK       I    between atoms: N_11  and  C_12 
REMARK    5  A    between atoms: C_12  and  C_13 
REMARK    6  A    between atoms: C_13  and  N_14 
ROOT
HETATM    1  N   UNL     1      41.915 -11.015   7.064  1.00  0.00    -0.322 N 
HETATM    2  C   UNL     1      41.975 -11.390   5.740  1.00  0.00     0.253 C 
HETATM    3  O   UNL     1      42.514 -10.713   4.868  1.00  0.00    -0.271 OA
HETATM    4  H   UNL     1      41.824 -11.725   7.788  1.00  0.00     0.169 HD
ENDROOT
BRANCH   2   5
HETATM    5  C   UNL     1      41.293 -12.748   5.366  1.00  0.00     0.275 C 
HETATM    6  C   UNL     1      39.795 -12.594   5.049  1.00  0.00     0.050 C 
BRANCH   5   7
HETATM    7  N   UNL     1      41.403 -13.912   6.442  1.00  0.00    -0.058 N 
HETATM    8  H   UNL     1      41.163 -13.422   7.314  1.00  0.00     0.281 HD
HETATM    9  C   UNL     1      40.347 -15.007   6.284  1.00  0.00     0.246 C 
HETATM   10  C   UNL     1      40.814 -16.214   5.442  1.00  0.00     0.062 C 
HETATM   11  C   UNL     1      42.087 -16.797   6.040  1.00  0.00     0.020 C 
HETATM   12  C   UNL     1      41.023 -15.837   3.990  1.00  0.00     0.020 A 
HETATM   13  C   UNL     1      43.164 -15.725   5.939  1.00  0.00     0.031 C 
HETATM   14  C   UNL     1      43.449 -15.456   4.462  1.00  0.00     0.138 C 
HETATM   15  C   UNL     1      42.765 -14.501   6.771  1.00  0.00     0.242 C 
HETATM   16  N   UNL     1      42.278 -15.372   3.587  1.00  0.00    -0.317 N 
HETATM   17  C   UNL     1      42.538 -14.981   2.263  1.00  0.00     0.247 A 
HETATM   18  O   UNL     1      43.624 -14.568   1.868  1.00  0.00    -0.268 OA
HETATM   19  C   UNL     1      41.402 -15.069   1.314  1.00  0.00     0.074 A 
HETATM   20  C   UNL     1      40.216 -15.527   1.729  1.00  0.00     0.007 A 
HETATM   21  C   UNL     1      40.021 -15.923   3.097  1.00  0.00     0.026 A 
ENDBRANCH   5   7
ENDBRANCH   2   5
BRANCH   1  22
HETATM   22  C   UNL     1      42.249  -9.763   7.582  1.00  0.00     0.080 A 
HETATM   23  C   UNL     1      43.193  -9.654   8.596  1.00  0.00     0.137 A 
HETATM   24  N   UNL     1      43.318  -8.320   8.894  1.00  0.00    -0.349 N 
HETATM   25  H   UNL     1      43.949  -7.948   9.594  1.00  0.00     0.166 HD
HETATM   26  C   UNL     1      42.455  -7.566   8.138  1.00  0.00     0.045 A 
HETATM   27  C   UNL     1      41.752  -8.446   7.305  1.00  0.00     0.023 A 
HETATM   28  C   UNL     1      42.244  -6.180   8.150  1.00  0.00     0.033 A 
HETATM   29  C   UNL     1      40.755  -7.892   6.472  1.00  0.00     0.058 A 
HETATM   30  C   UNL     1      40.542  -6.513   6.476  1.00  0.00     0.117 A 
HETATM   31  C   UNL     1      41.272  -5.665   7.294  1.00  0.00     0.044 A 
HETATM   32  F   UNL     1      39.601  -5.996   5.673  1.00  0.00    -0.206 F 
BRANCH  23  33
HETATM   33  C   UNL     1      43.952 -10.708   9.223  1.00  0.00     0.312 C 
HETATM   34  O   UNL     1      44.035 -10.855  10.438  1.00  0.00    -0.258 OA
BRANCH  33  35
HETATM   35  O   UNL     1      44.535 -11.491   8.279  1.00  0.00    -0.317 OA
BRANCH  35  36
HETATM   36  C   UNL     1      45.701 -10.946   7.642  1.00  0.00     0.175 C 
HETATM   37  C   UNL     1      45.722 -11.322   6.173  1.00  0.00     0.034 C 
ENDBRANCH  35  36
ENDBRANCH  33  35
ENDBRANCH  23  33
ENDBRANCH   1  22
TORSDOF 6
ENDMDL
MODEL 4
REMARK VINA RESULT:      -8.4      2.702      7.147
REMARK  6 active torsions:
REMARK  status: ('A' for Active; 'I' for Inactive)
REMARK    1  A    between atoms: C_2  and  O_3 
REMARK    2  A    between atoms: O_3  and  C_4 
REMARK    3  A    between atoms: C_4  and  C_5 
REMARK    4  A    between atoms: C_10  and  N_11 
REMARK       I    between atoms: N_11  and  C_12 
REMARK    5  A    between atoms: C_12  and  C_13 
REMARK    6  A    between atoms: C_13  and  N_14 
ROOT
HETATM    1  N   UNL     1      41.520 -13.488   0.823  1.00  0.00    -0.322 N 
HETATM    2  C   UNL     1      41.117 -14.036   2.021  1.00  0.00     0.253 C 
HETATM    3  O   UNL     1      39.940 -14.209   2.325  1.00  0.00    -0.271 OA
HETATM    4  H   UNL     1      42.441 -13.707   0.450  1.00  0.00     0.169 HD
ENDROOT
BRANCH   2   5
HETATM    5  C   UNL     1      42.251 -14.428   3.026  1.00  0.00     0.275 C 
HETATM    6  C   UNL     1      43.620 -14.591   2.344  1.00  0.00     0.050 C 
BRANCH   5   7
HETATM    7  N   UNL     1      42.015 -15.752   3.873  1.00  0.00    -0.058 N 
HETATM    8  H   UNL     1      42.046 -16.479   3.147  1.00  0.00     0.281 HD
HETATM    9  C   UNL     1      43.155 -16.085   4.836  1.00  0.00     0.246 C 
HETATM   10  C   UNL     1      42.947 -15.548   6.268  1.00  0.00     0.062 C 
HETATM   11  C   UNL     1      41.626 -16.062   6.824  1.00  0.00     0.020 C 
HETATM   12  C   UNL     1      42.999 -14.035   6.312  1.00  0.00     0.020 A 
HETATM   13  C   UNL     1      40.517 -15.486   5.954  1.00  0.00     0.031 C 
HETATM   14  C   UNL     1      40.507 -13.967   6.116  1.00  0.00     0.138 C 
HETATM   15  C   UNL     1      40.660 -15.998   4.516  1.00  0.00     0.242 C 
HETATM   16  N   UNL     1      41.817 -13.312   6.122  1.00  0.00    -0.317 N 
HETATM   17  C   UNL     1      41.792 -11.909   6.125  1.00  0.00     0.247 A 
HETATM   18  O   UNL     1      40.779 -11.237   5.964  1.00  0.00    -0.268 OA
HETATM   19  C   UNL     1      43.095 -11.227   6.321  1.00  0.00     0.074 A 
HETATM   20  C   UNL     1      44.207 -11.946   6.508  1.00  0.00     0.007 A 
HETATM   21  C   UNL     1      44.159 -13.383   6.506  1.00  0.00     0.026 A 
ENDBRANCH   5   7
ENDBRANCH   2   5
BRANCH   1  22
HETATM   22  C   UNL     1      40.697 -12.866  -0.117  1.00  0.00     0.080 A 
HETATM   23  C   UNL     1      40.608 -11.480  -0.163  1.00  0.00     0.137 A 
HETATM   24  N   UNL     1      39.740 -11.161  -1.177  1.00  0.00    -0.349 N 
HETATM   25  H   UNL     1      39.495 -10.214  -1.442  1.00  0.00     0.166 HD
HETATM   26  C   UNL     1      39.232 -12.294  -1.762  1.00  0.00     0.045 A 
HETATM   27  C   UNL     1      39.804 -13.393  -1.109  1.00  0.00     0.023 A 
HETATM   28  C   UNL     1      38.302 -12.412  -2.804  1.00  0.00     0.033 A 
HETATM   29  C   UNL     1      39.377 -14.678  -1.509  1.00  0.00     0.058 A 
HETATM   30  C   UNL     1      38.453 -14.805  -2.548  1.00  0.00     0.117 A 
HETATM   31  C   UNL     1      37.924 -13.697  -3.192  1.00  0.00     0.044 A 
HETATM   32  F   UNL     1      38.063 -16.029  -2.928  1.00  0.00    -0.206 F 
BRANCH  23  33
HETATM   33  C   UNL     1      41.302 -10.516   0.655  1.00  0.00     0.312 C 
HETATM   34  O   UNL     1      42.135  -9.728   0.219  1.00  0.00    -0.258 OA
BRANCH  33  35
HETATM   35  O   UNL     1      40.889 -10.613   1.946  1.00  0.00    -0.317 OA
BRANCH  35  36
HETATM   36  C   UNL     1      39.627 -10.001   2.249  1.00  0.00     0.175 C 
HETATM   37  C   UNL     1      38.772 -10.940   3.080  1.00  0.00     0.034 C 
ENDBRANCH  35  36
ENDBRANCH  33  35
ENDBRANCH  23  33
ENDBRANCH   1  22
TORSDOF 6
ENDMDL
MODEL 5
REMARK VINA RESULT:      -8.3      3.701      7.540
REMARK  6 active torsions:
REMARK  status: ('A' for Active; 'I' for Inactive)
REMARK    1  A    between atoms: C_2  and  O_3 
REMARK    2  A    between atoms: O_3  and  C_4 
REMARK    3  A    between atoms: C_4  and  C_5 
REMARK    4  A    between atoms: C_10  and  N_11 
REMARK       I    between atoms: N_11  and  C_12 
REMARK    5  A    between atoms: C_12  and  C_13 
REMARK    6  A    between atoms: C_13  and  N_14 
ROOT
HETATM    1  N   UNL     1      42.097 -11.321   5.436  1.00  0.00    -0.322 N 
HETATM    2  C   UNL     1      42.345 -12.674   5.358  1.00  0.00     0.253 C 
HETATM    3  O   UNL     1      42.191 -13.446   6.300  1.00  0.00    -0.271 OA
HETATM    4  H   UNL     1      41.863 -10.799   4.594  1.00  0.00     0.169 HD
ENDROOT
BRANCH   2   5
HETATM    5  C   UNL     1      42.866 -13.211   3.983  1.00  0.00     0.275 C 
HETATM    6  C   UNL     1      43.970 -12.325   3.378  1.00  0.00     0.050 C 
BRANCH   5   7
HETATM    7  N   UNL     1      41.775 -13.404   2.843  1.00  0.00    -0.058 N 
HETATM    8  H   UNL     1      41.756 -12.473   2.406  1.00  0.00     0.281 HD
HETATM    9  C   UNL     1      42.199 -14.369   1.736  1.00  0.00     0.246 C 
HETATM   10  C   UNL     1      41.724 -15.822   1.952  1.00  0.00     0.062 C 
HETATM   11  C   UNL     1      40.211 -15.850   2.121  1.00  0.00     0.020 C 
HETATM   12  C   UNL     1      42.412 -16.465   3.139  1.00  0.00     0.020 A 
HETATM   13  C   UNL     1      39.885 -15.069   3.387  1.00  0.00     0.031 C 
HETATM   14  C   UNL     1      40.480 -15.808   4.584  1.00  0.00     0.138 C 
HETATM   15  C   UNL     1      40.319 -13.608   3.227  1.00  0.00     0.242 C 
HETATM   16  N   UNL     1      41.834 -16.337   4.405  1.00  0.00    -0.317 N 
HETATM   17  C   UNL     1      42.427 -16.885   5.555  1.00  0.00     0.247 A 
HETATM   18  O   UNL     1      41.953 -16.797   6.683  1.00  0.00    -0.268 OA
HETATM   19  C   UNL     1      43.715 -17.593   5.358  1.00  0.00     0.074 A 
HETATM   20  C   UNL     1      44.238 -17.706   4.132  1.00  0.00     0.007 A 
HETATM   21  C   UNL     1      43.571 -17.131   2.995  1.00  0.00     0.026 A 
ENDBRANCH   5   7
ENDBRANCH   2   5
BRANCH   1  22
HETATM   22  C   UNL     1      41.848 -10.595   6.602  1.00  0.00     0.080 A 
HETATM   23  C   UNL     1      40.542 -10.346   7.006  1.00  0.00     0.137 A 
HETATM   24  N   UNL     1      40.608  -9.625   8.173  1.00  0.00    -0.349 N 
HETATM   25  H   UNL     1      39.799  -9.313   8.697  1.00  0.00     0.166 HD
HETATM   26  C   UNL     1      41.911  -9.364   8.514  1.00  0.00     0.045 A 
HETATM   27  C   UNL     1      42.725  -9.951   7.536  1.00  0.00     0.023 A 
HETATM   28  C   UNL     1      42.414  -8.640   9.605  1.00  0.00     0.033 A 
HETATM   29  C   UNL     1      44.119  -9.756   7.652  1.00  0.00     0.058 A 
HETATM   30  C   UNL     1      44.627  -9.040   8.737  1.00  0.00     0.117 A 
HETATM   31  C   UNL     1      43.797  -8.493   9.702  1.00  0.00     0.044 A 
HETATM   32  F   UNL     1      45.952  -8.871   8.844  1.00  0.00    -0.206 F 
BRANCH  23  33
HETATM   33  C   UNL     1      39.318 -10.771   6.374  1.00  0.00     0.312 C 
HETATM   34  O   UNL     1      38.342 -11.185   6.991  1.00  0.00    -0.258 OA
BRANCH  33  35
HETATM   35  O   UNL     1      39.414 -10.635   5.026  1.00  0.00    -0.317 OA
BRANCH  35  36
HETATM   36  C   UNL     1      38.700  -9.529   4.454  1.00  0.00     0.175 C 
HETATM   37  C   UNL     1      38.393  -9.799   2.993  1.00  0.00     0.034 C 
ENDBRANCH  35  36
ENDBRANCH  33  35
ENDBRANCH  23  33
ENDBRANCH   1  22
TORSDOF 6
ENDMDL
MODEL 6
REMARK VINA RESULT:      -8.2      4.063      7.899
REMARK  6 active torsions:
REMARK  status: ('A' for Active; 'I' for Inactive)
REMARK    1  A    between atoms: C_2  and  O_3 
REMARK    2  A    between atoms: O_3  and  C_4 
REMARK    3  A    between atoms: C_4  and  C_5 
REMARK    4  A    between atoms: C_10  and  N_11 
REMARK       I    between atoms: N_11  and  C_12 
REMARK    5  A    between atoms: C_12  and  C_13 
REMARK    6  A    between atoms: C_13  and  N_14 
ROOT
HETATM    1  N   UNL     1      42.612 -11.414   6.380  1.00  0.00    -0.322 N 
HETATM    2  C   UNL     1      43.097 -11.849   5.166  1.00  0.00     0.253 C 
HETATM    3  O   UNL     1      43.815 -11.168   4.440  1.00  0.00    -0.271 OA
HETATM    4  H   UNL     1      42.366 -12.090   7.100  1.00  0.00     0.169 HD
ENDROOT
BRANCH   2   5
HETATM    5  C   UNL     1      42.671 -13.288   4.719  1.00  0.00     0.275 C 
HETATM    6  C   UNL     1      43.071 -13.603   3.268  1.00  0.00     0.050 C 
BRANCH   5   7
HETATM    7  N   UNL     1      41.124 -13.635   4.840  1.00  0.00    -0.058 N 
HETATM    8  H   UNL     1      40.684 -12.746   4.568  1.00  0.00     0.281 HD
HETATM    9  C   UNL     1      40.637 -14.664   3.819  1.00  0.00     0.246 C 
HETATM   10  C   UNL     1      40.647 -16.118   4.337  1.00  0.00     0.062 C 
HETATM   11  C   UNL     1      39.822 -16.215   5.614  1.00  0.00     0.020 C 
HETATM   12  C   UNL     1      42.057 -16.621   4.567  1.00  0.00     0.020 A 
HETATM   13  C   UNL     1      40.511 -15.351   6.662  1.00  0.00     0.031 C 
HETATM   14  C   UNL     1      41.880 -15.954   6.970  1.00  0.00     0.138 C 
HETATM   15  C   UNL     1      40.518 -13.886   6.211  1.00  0.00     0.242 C 
HETATM   16  N   UNL     1      42.652 -16.421   5.816  1.00  0.00    -0.317 N 
HETATM   17  C   UNL     1      43.963 -16.838   6.093  1.00  0.00     0.247 A 
HETATM   18  O   UNL     1      44.522 -16.683   7.175  1.00  0.00    -0.268 OA
HETATM   19  C   UNL     1      44.697 -17.488   4.980  1.00  0.00     0.074 A 
HETATM   20  C   UNL     1      44.098 -17.673   3.799  1.00  0.00     0.007 A 
HETATM   21  C   UNL     1      42.746 -17.232   3.586  1.00  0.00     0.026 A 
ENDBRANCH   5   7
ENDBRANCH   2   5
BRANCH   1  22
HETATM   22  C   UNL     1      42.672 -10.109   6.871  1.00  0.00     0.080 A 
HETATM   23  C   UNL     1      43.588  -9.774   7.860  1.00  0.00     0.137 A 
HETATM   24  N   UNL     1      43.422  -8.439   8.135  1.00  0.00    -0.349 N 
HETATM   25  H   UNL     1      43.969  -7.923   8.814  1.00  0.00     0.166 HD
HETATM   26  C   UNL     1      42.400  -7.909   7.387  1.00  0.00     0.045 A 
HETATM   27  C   UNL     1      41.893  -8.939   6.584  1.00  0.00     0.023 A 
HETATM   28  C   UNL     1      41.890  -6.603   7.382  1.00  0.00     0.033 A 
HETATM   29  C   UNL     1      40.783  -8.635   5.766  1.00  0.00     0.058 A 
HETATM   30  C   UNL     1      40.271  -7.336   5.753  1.00  0.00     0.117 A 
HETATM   31  C   UNL     1      40.812  -6.332   6.541  1.00  0.00     0.044 A 
HETATM   32  F   UNL     1      39.225  -7.055   4.964  1.00  0.00    -0.206 F 
BRANCH  23  33
HETATM   33  C   UNL     1      44.572 -10.622   8.487  1.00  0.00     0.312 C 
HETATM   34  O   UNL     1      45.108 -11.572   7.925  1.00  0.00    -0.258 OA
BRANCH  33  35
HETATM   35  O   UNL     1      44.808 -10.205   9.759  1.00  0.00    -0.317 OA
BRANCH  35  36
HETATM   36  C   UNL     1      43.854 -10.627  10.744  1.00  0.00     0.175 C 
HETATM   37  C   UNL     1      43.473  -9.463  11.640  1.00  0.00     0.034 C 
ENDBRANCH  35  36
ENDBRANCH  33  35
ENDBRANCH  23  33
ENDBRANCH   1  22
TORSDOF 6
ENDMDL
MODEL 7
REMARK VINA RESULT:      -8.1      4.515      8.049
REMARK  6 active torsions:
REMARK  status: ('A' for Active; 'I' for Inactive)
REMARK    1  A    between atoms: C_2  and  O_3 
REMARK    2  A    between atoms: O_3  and  C_4 
REMARK    3  A    between atoms: C_4  and  C_5 
REMARK    4  A    between atoms: C_10  and  N_11 
REMARK       I    between atoms: N_11  and  C_12 
REMARK    5  A    between atoms: C_12  and  C_13 
REMARK    6  A    between atoms: C_13  and  N_14 
ROOT
HETATM    1  N   UNL     1      40.854 -10.866   7.114  1.00  0.00    -0.322 N 
HETATM    2  C   UNL     1      41.602 -11.431   6.105  1.00  0.00     0.253 C 
HETATM    3  O   UNL     1      42.590 -10.893   5.612  1.00  0.00    -0.271 OA
HETATM    4  H   UNL     1      40.316 -11.462   7.741  1.00  0.00     0.169 HD
ENDROOT
BRANCH   2   5
HETATM    5  C   UNL     1      41.123 -12.824   5.576  1.00  0.00     0.275 C 
HETATM    6  C   UNL     1      39.648 -12.819   5.139  1.00  0.00     0.050 C 
BRANCH   5   7
HETATM    7  N   UNL     1      41.290 -14.052   6.572  1.00  0.00    -0.058 N 
HETATM    8  H   UNL     1      41.011 -13.637   7.470  1.00  0.00     0.281 HD
HETATM    9  C   UNL     1      40.303 -15.192   6.321  1.00  0.00     0.246 C 
HETATM   10  C   UNL     1      40.850 -16.309   5.406  1.00  0.00     0.062 C 
HETATM   11  C   UNL     1      42.149 -16.857   5.983  1.00  0.00     0.020 C 
HETATM   12  C   UNL     1      41.054 -15.821   3.987  1.00  0.00     0.020 A 
HETATM   13  C   UNL     1      43.161 -15.720   5.973  1.00  0.00     0.031 C 
HETATM   14  C   UNL     1      43.447 -15.332   4.523  1.00  0.00     0.138 C 
HETATM   15  C   UNL     1      42.680 -14.581   6.880  1.00  0.00     0.242 C 
HETATM   16  N   UNL     1      42.283 -15.256   3.637  1.00  0.00    -0.317 N 
HETATM   17  C   UNL     1      42.536 -14.759   2.348  1.00  0.00     0.247 A 
HETATM   18  O   UNL     1      43.600 -14.258   1.999  1.00  0.00    -0.268 OA
HETATM   19  C   UNL     1      41.418 -14.848   1.377  1.00  0.00     0.074 A 
HETATM   20  C   UNL     1      40.257 -15.402   1.740  1.00  0.00     0.007 A 
HETATM   21  C   UNL     1      40.069 -15.903   3.075  1.00  0.00     0.026 A 
ENDBRANCH   5   7
ENDBRANCH   2   5
BRANCH   1  22
HETATM   22  C   UNL     1      40.955  -9.554   7.580  1.00  0.00     0.080 A 
HETATM   23  C   UNL     1      40.186  -8.547   7.009  1.00  0.00     0.137 A 
HETATM   24  N   UNL     1      40.489  -7.381   7.666  1.00  0.00    -0.349 N 
HETATM   25  H   UNL     1      40.066  -6.484   7.462  1.00  0.00     0.166 HD
HETATM   26  C   UNL     1      41.458  -7.592   8.615  1.00  0.00     0.045 A 
HETATM   27  C   UNL     1      41.787  -8.953   8.581  1.00  0.00     0.023 A 
HETATM   28  C   UNL     1      42.067  -6.671   9.480  1.00  0.00     0.033 A 
HETATM   29  C   UNL     1      42.817  -9.392   9.442  1.00  0.00     0.058 A 
HETATM   30  C   UNL     1      43.427  -8.482  10.308  1.00  0.00     0.117 A 
HETATM   31  C   UNL     1      43.061  -7.146  10.335  1.00  0.00     0.044 A 
HETATM   32  F   UNL     1      44.395  -8.911  11.128  1.00  0.00    -0.206 F 
BRANCH  23  33
HETATM   33  C   UNL     1      39.215  -8.660   5.948  1.00  0.00     0.312 C 
HETATM   34  O   UNL     1      38.228  -9.385   6.005  1.00  0.00    -0.258 OA
BRANCH  33  35
HETATM   35  O   UNL     1      39.558  -7.852   4.911  1.00  0.00    -0.317 OA
BRANCH  35  36
HETATM   36  C   UNL     1      40.704  -8.260   4.149  1.00  0.00     0.175 C 
HETATM   37  C   UNL     1      40.341  -9.410   3.228  1.00  0.00     0.034 C 
ENDBRANCH  35  36
ENDBRANCH  33  35
ENDBRANCH  23  33
ENDBRANCH   1  22
TORSDOF 6
ENDMDL
MODEL 8
REMARK VINA RESULT:      -8.0      4.638      8.006
REMARK  6 active torsions:
REMARK  status: ('A' for Active; 'I' for Inactive)
REMARK    1  A    between atoms: C_2  and  O_3 
REMARK    2  A    between atoms: O_3  and  C_4 
REMARK    3  A    between atoms: C_4  and  C_5 
REMARK    4  A    between atoms: C_10  and  N_11 
REMARK       I    between atoms: N_11  and  C_12 
REMARK    5  A    between atoms: C_12  and  C_13 
REMARK    6  A    between atoms: C_13  and  N_14 
ROOT
HETATM    1  N   UNL     1      40.913 -11.538   6.827  1.00  0.00    -0.322 N 
HETATM    2  C   UNL     1      40.968 -10.162   6.798  1.00  0.00     0.253 C 
HETATM    3  O   UNL     1      41.048  -9.508   5.762  1.00  0.00    -0.271 OA
HETATM    4  H   UNL     1      40.474 -12.011   7.613  1.00  0.00     0.169 HD
ENDROOT
BRANCH   2   5
HETATM    5  C   UNL     1      40.942  -9.433   8.183  1.00  0.00     0.275 C 
HETATM    6  C   UNL     1      39.630  -9.664   8.952  1.00  0.00     0.050 C 
BRANCH   5   7
HETATM    7  N   UNL     1      41.172  -7.860   8.157  1.00  0.00    -0.058 N 
HETATM    8  H   UNL     1      40.506  -7.559   7.433  1.00  0.00     0.281 HD
HETATM    9  C   UNL     1      40.738  -7.147   9.438  1.00  0.00     0.246 C 
HETATM   10  C   UNL     1      41.875  -6.946  10.462  1.00  0.00     0.062 C 
HETATM   11  C   UNL     1      43.028  -6.195   9.810  1.00  0.00     0.020 C 
HETATM   12  C   UNL     1      42.347  -8.263  11.041  1.00  0.00     0.020 A 
HETATM   13  C   UNL     1      43.569  -7.080   8.695  1.00  0.00     0.031 C 
HETATM   14  C   UNL     1      44.157  -8.346   9.317  1.00  0.00     0.138 C 
HETATM   15  C   UNL     1      42.487  -7.305   7.633  1.00  0.00     0.242 C 
HETATM   16  N   UNL     1      43.373  -8.957  10.393  1.00  0.00    -0.317 N 
HETATM   17  C   UNL     1      43.846 -10.195  10.857  1.00  0.00     0.247 A 
HETATM   18  O   UNL     1      44.743 -10.836  10.321  1.00  0.00    -0.268 OA
HETATM   19  C   UNL     1      43.183 -10.741  12.067  1.00  0.00     0.074 A 
HETATM   20  C   UNL     1      42.210 -10.049  12.669  1.00  0.00     0.007 A 
HETATM   21  C   UNL     1      41.783  -8.779  12.147  1.00  0.00     0.026 A 
ENDBRANCH   5   7
ENDBRANCH   2   5
BRANCH   1  22
HETATM   22  C   UNL     1      41.146 -12.394   5.750  1.00  0.00     0.080 A 
HETATM   23  C   UNL     1      42.242 -13.249   5.758  1.00  0.00     0.137 A 
HETATM   24  N   UNL     1      42.209 -13.965   4.587  1.00  0.00    -0.349 N 
HETATM   25  H   UNL     1      42.887 -14.673   4.332  1.00  0.00     0.166 HD
HETATM   26  C   UNL     1      41.153 -13.572   3.803  1.00  0.00     0.045 A 
HETATM   27  C   UNL     1      40.465 -12.571   4.500  1.00  0.00     0.023 A 
HETATM   28  C   UNL     1      40.779 -14.024   2.530  1.00  0.00     0.033 A 
HETATM   29  C   UNL     1      39.364 -11.970   3.850  1.00  0.00     0.058 A 
HETATM   30  C   UNL     1      38.983 -12.417   2.584  1.00  0.00     0.117 A 
HETATM   31  C   UNL     1      39.670 -13.428   1.931  1.00  0.00     0.044 A 
HETATM   32  F   UNL     1      37.930 -11.848   1.981  1.00  0.00    -0.206 F 
BRANCH  23  33
HETATM   33  C   UNL     1      43.234 -13.415   6.792  1.00  0.00     0.312 C 
HETATM   34  O   UNL     1      43.525 -14.499   7.288  1.00  0.00    -0.258 OA
BRANCH  33  35
HETATM   35  O   UNL     1      43.783 -12.214   7.111  1.00  0.00    -0.317 OA
BRANCH  35  36
HETATM   36  C   UNL     1      44.804 -11.735   6.222  1.00  0.00     0.175 C 
HETATM   37  C   UNL     1      45.839 -10.936   6.991  1.00  0.00     0.034 C 
ENDBRANCH  35  36
ENDBRANCH  33  35
ENDBRANCH  23  33
ENDBRANCH   1  22
TORSDOF 6
ENDMDL
MODEL 9
REMARK VINA RESULT:      -8.0      2.905      5.240
REMARK  6 active torsions:
REMARK  status: ('A' for Active; 'I' for Inactive)
REMARK    1  A    between atoms: C_2  and  O_3 
REMARK    2  A    between atoms: O_3  and  C_4 
REMARK    3  A    between atoms: C_4  and  C_5 
REMARK    4  A    between atoms: C_10  and  N_11 
REMARK       I    between atoms: N_11  and  C_12 
REMARK    5  A    between atoms: C_12  and  C_13 
REMARK    6  A    between atoms: C_13  and  N_14 
ROOT
HETATM    1  N   UNL     1      41.096 -12.515   2.396  1.00  0.00    -0.322 N 
HETATM    2  C   UNL     1      39.750 -12.224   2.362  1.00  0.00     0.253 C 
HETATM    3  O   UNL     1      39.004 -12.358   3.328  1.00  0.00    -0.271 OA
HETATM    4  H   UNL     1      41.732 -12.051   1.750  1.00  0.00     0.169 HD
ENDROOT
BRANCH   2   5
HETATM    5  C   UNL     1      39.180 -11.715   0.996  1.00  0.00     0.275 C 
HETATM    6  C   UNL     1      37.915 -10.855   1.163  1.00  0.00     0.050 C 
BRANCH   5   7
HETATM    7  N   UNL     1      38.821 -12.831  -0.078  1.00  0.00    -0.058 N 
HETATM    8  H   UNL     1      38.313 -13.520   0.491  1.00  0.00     0.281 HD
HETATM    9  C   UNL     1      37.829 -12.369  -1.146  1.00  0.00     0.246 C 
HETATM   10  C   UNL     1      38.493 -11.837  -2.434  1.00  0.00     0.062 C 
HETATM   11  C   UNL     1      39.425 -12.896  -3.008  1.00  0.00     0.020 C 
HETATM   12  C   UNL     1      39.237 -10.541  -2.186  1.00  0.00     0.020 A 
HETATM   13  C   UNL     1      40.530 -13.126  -1.985  1.00  0.00     0.031 C 
HETATM   14  C   UNL     1      41.346 -11.841  -1.849  1.00  0.00     0.138 C 
HETATM   15  C   UNL     1      39.933 -13.672  -0.683  1.00  0.00     0.242 C 
HETATM   16  N   UNL     1      40.579 -10.595  -1.798  1.00  0.00    -0.317 N 
HETATM   17  C   UNL     1      41.325  -9.436  -1.527  1.00  0.00     0.247 A 
HETATM   18  O   UNL     1      42.503  -9.439  -1.186  1.00  0.00    -0.268 OA
HETATM   19  C   UNL     1      40.605  -8.145  -1.656  1.00  0.00     0.074 A 
HETATM   20  C   UNL     1      39.324  -8.126  -2.038  1.00  0.00     0.007 A 
HETATM   21  C   UNL     1      38.623  -9.351  -2.312  1.00  0.00     0.026 A 
ENDBRANCH   5   7
ENDBRANCH   2   5
BRANCH   1  22
HETATM   22  C   UNL     1      41.769 -13.185   3.419  1.00  0.00     0.080 A 
HETATM   23  C   UNL     1      41.795 -14.574   3.449  1.00  0.00     0.137 A 
HETATM   24  N   UNL     1      42.525 -14.944   4.551  1.00  0.00    -0.349 N 
HETATM   25  H   UNL     1      42.715 -15.904   4.814  1.00  0.00     0.166 HD
HETATM   26  C   UNL     1      42.937 -13.842   5.258  1.00  0.00     0.045 A 
HETATM   27  C   UNL     1      42.467 -12.711   4.579  1.00  0.00     0.023 A 
HETATM   28  C   UNL     1      43.674 -13.778   6.449  1.00  0.00     0.033 A 
HETATM   29  C   UNL     1      42.724 -11.452   5.164  1.00  0.00     0.058 A 
HETATM   30  C   UNL     1      43.460 -11.379   6.348  1.00  0.00     0.117 A 
HETATM   31  C   UNL     1      43.934 -12.517   6.982  1.00  0.00     0.044 A 
HETATM   32  F   UNL     1      43.709 -10.178   6.889  1.00  0.00    -0.206 F 
BRANCH  23  33
HETATM   33  C   UNL     1      41.210 -15.496   2.507  1.00  0.00     0.312 C 
HETATM   34  O   UNL     1      40.004 -15.585   2.301  1.00  0.00    -0.258 OA
BRANCH  33  35
HETATM   35  O   UNL     1      42.183 -16.221   1.896  1.00  0.00    -0.317 OA
BRANCH  35  36
HETATM   36  C   UNL     1      42.251 -17.610   2.255  1.00  0.00     0.175 C 
HETATM   37  C   UNL     1      43.620 -17.941   2.818  1.00  0.00     0.034 C 
ENDBRANCH  35  36
ENDBRANCH  33  35
ENDBRANCH  23  33
ENDBRANCH   1  22
TORSDOF 6
ENDMDL
MODEL 10
REMARK VINA RESULT:      -7.9      4.587      7.517
REMARK  6 active torsions:
REMARK  status: ('A' for Active; 'I' for Inactive)
REMARK    1  A    between atoms: C_2  and  O_3 
REMARK    2  A    between atoms: O_3  and  C_4 
REMARK    3  A    between atoms: C_4  and  C_5 
REMARK    4  A    between atoms: C_10  and  N_11 
REMARK       I    between atoms: N_11  and  C_12 
REMARK    5  A    between atoms: C_12  and  C_13 
REMARK    6  A    between atoms: C_13  and  N_14 
ROOT
HETATM    1  N   UNL     1      41.686 -11.955   6.559  1.00  0.00    -0.322 N 
HETATM    2  C   UNL     1      42.799 -11.197   6.849  1.00  0.00     0.253 C 
HETATM    3  O   UNL     1      43.930 -11.478   6.460  1.00  0.00    -0.271 OA
HETATM    4  H   UNL     1      40.766 -11.521   6.552  1.00  0.00     0.169 HD
ENDROOT
BRANCH   2   5
HETATM    5  C   UNL     1      42.570  -9.930   7.739  1.00  0.00     0.275 C 
HETATM    6  C   UNL     1      42.181  -8.689   6.917  1.00  0.00     0.050 C 
BRANCH   5   7
HETATM    7  N   UNL     1      43.784  -9.489   8.665  1.00  0.00    -0.058 N 
HETATM    8  H   UNL     1      44.594  -9.679   8.061  1.00  0.00     0.281 HD
HETATM    9  C   UNL     1      43.830  -7.989   8.956  1.00  0.00     0.246 C 
HETATM   10  C   UNL     1      43.133  -7.581  10.271  1.00  0.00     0.062 C 
HETATM   11  C   UNL     1      43.733  -8.359  11.435  1.00  0.00     0.020 C 
HETATM   12  C   UNL     1      41.635  -7.789  10.198  1.00  0.00     0.020 A 
HETATM   13  C   UNL     1      43.430  -9.832  11.195  1.00  0.00     0.031 C 
HETATM   14  C   UNL     1      41.917 -10.037  11.255  1.00  0.00     0.138 C 
HETATM   15  C   UNL     1      44.113 -10.304   9.906  1.00  0.00     0.242 C 
HETATM   16  N   UNL     1      41.104  -9.025  10.577  1.00  0.00    -0.317 N 
HETATM   17  C   UNL     1      39.728  -9.299  10.512  1.00  0.00     0.247 A 
HETATM   18  O   UNL     1      39.222 -10.368  10.835  1.00  0.00    -0.268 OA
HETATM   19  C   UNL     1      38.863  -8.208  10.000  1.00  0.00     0.074 A 
HETATM   20  C   UNL     1      39.399  -7.033   9.655  1.00  0.00     0.007 A 
HETATM   21  C   UNL     1      40.817  -6.815   9.758  1.00  0.00     0.026 A 
ENDBRANCH   5   7
ENDBRANCH   2   5
BRANCH   1  22
HETATM   22  C   UNL     1      41.682 -13.226   5.983  1.00  0.00     0.080 A 
HETATM   23  C   UNL     1      40.989 -13.458   4.801  1.00  0.00     0.137 A 
HETATM   24  N   UNL     1      41.168 -14.780   4.476  1.00  0.00    -0.349 N 
HETATM   25  H   UNL     1      40.780 -15.223   3.652  1.00  0.00     0.166 HD
HETATM   26  C   UNL     1      41.918 -15.421   5.430  1.00  0.00     0.045 A 
HETATM   27  C   UNL     1      42.251 -14.473   6.407  1.00  0.00     0.023 A 
HETATM   28  C   UNL     1      42.304 -16.767   5.497  1.00  0.00     0.033 A 
HETATM   29  C   UNL     1      42.978 -14.928   7.528  1.00  0.00     0.058 A 
HETATM   30  C   UNL     1      43.369 -16.266   7.600  1.00  0.00     0.117 A 
HETATM   31  C   UNL     1      43.046 -17.174   6.605  1.00  0.00     0.044 A 
HETATM   32  F   UNL     1      44.069 -16.684   8.664  1.00  0.00    -0.206 F 
BRANCH  23  33
HETATM   33  C   UNL     1      40.239 -12.514   4.009  1.00  0.00     0.312 C 
HETATM   34  O   UNL     1      39.103 -12.724   3.596  1.00  0.00    -0.258 OA
BRANCH  33  35
HETATM   35  O   UNL     1      40.969 -11.386   3.808  1.00  0.00    -0.317 OA
BRANCH  35  36
HETATM   36  C   UNL     1      41.841 -11.397   2.668  1.00  0.00     0.175 C 
HETATM   37  C   UNL     1      43.286 -11.524   3.113  1.00  0.00     0.034 C 
ENDBRANCH  35  36
ENDBRANCH  33  35
ENDBRANCH  23  33
ENDBRANCH   1  22
TORSDOF 6
ENDMDL
