MODEL 1
REMARK VINA RESULT:      -8.8      0.000      0.000
REMARK  3 active torsions:
REMARK  status: ('A' for Active; 'I' for Inactive)
REMARK    1  A    between atoms: C_9  and  N_10 
REMARK       I    between atoms: N_10  and  C_11 
REMARK    2  A    between atoms: C_11  and  C_12 
REMARK    3  A    between atoms: C_15  and  C_16 
REMARK       I    between atoms: C_16  and  N_17 
ROOT
HETATM    1  N   UNL     1      43.547 -14.747   4.790  1.00  0.00    -0.322 N 
HETATM    2  C   UNL     1      42.523 -14.034   5.390  1.00  0.00     0.263 C 
HETATM    3  O   UNL     1      41.340 -14.361   5.371  1.00  0.00    -0.267 OA
HETATM    4  H   UNL     1      44.470 -14.341   4.892  1.00  0.00     0.169 HD
ENDROOT
BRANCH   1   5
HETATM    5  C   UNL     1      43.472 -15.958   4.076  1.00  0.00     0.035 A 
HETATM    6  C   UNL     1      43.060 -16.059   2.749  1.00  0.00     0.030 A 
HETATM    7  C   UNL     1      43.005 -17.307   2.116  1.00  0.00     0.014 A 
HETATM    8  C   UNL     1      43.360 -18.478   2.799  1.00  0.00    -0.026 A 
HETATM    9  C   UNL     1      43.305 -19.736   2.177  1.00  0.00     0.012 A 
HETATM   10  C   UNL     1      43.781 -18.388   4.143  1.00  0.00    -0.024 A 
HETATM   11  C   UNL     1      43.661 -20.892   2.872  1.00  0.00     0.001 A 
HETATM   12  C   UNL     1      44.078 -20.804   4.197  1.00  0.00     0.001 A 
HETATM   13  C   UNL     1      44.139 -19.561   4.829  1.00  0.00     0.012 A 
HETATM   14  C   UNL     1      43.831 -17.126   4.763  1.00  0.00     0.042 A 
ENDBRANCH   1   5
BRANCH   2  15
HETATM   15  C   UNL     1      42.950 -12.816   6.084  1.00  0.00     0.073 A 
HETATM   16  S   UNL     1      41.984 -11.407   6.163  1.00  0.00    -0.096 SA
HETATM   17  C   UNL     1      43.163 -10.567   7.067  1.00  0.00     0.067 A 
HETATM   18  C   UNL     1      44.295 -11.321   7.326  1.00  0.00     0.039 A 
HETATM   19  C   UNL     1      44.151 -12.629   6.748  1.00  0.00     0.042 A 
BRANCH  18  20
HETATM   20  C   UNL     1      45.418 -10.777   8.085  1.00  0.00     0.249 C 
HETATM   21  N   UNL     1      46.421 -10.205   7.361  1.00  0.00    -0.366 N 
HETATM   22  H   UNL     1      46.431 -10.147   6.355  1.00  0.00     0.159 HD
HETATM   23  H   UNL     1      47.204  -9.828   7.876  1.00  0.00     0.159 HD
HETATM   24  O   UNL     1      45.484 -10.817   9.310  1.00  0.00    -0.268 OA
ENDBRANCH  18  20
ENDBRANCH   2  15
TORSDOF 3
ENDMDL
MODEL 2
REMARK VINA RESULT:      -8.7      4.582      6.945
REMARK  3 active torsions:
REMARK  status: ('A' for Active; 'I' for Inactive)
REMARK    1  A    between atoms: C_9  and  N_10 
REMARK       I    between atoms: N_10  and  C_11 
REMARK    2  A    between atoms: C_11  and  C_12 
REMARK    3  A    between atoms: C_15  and  C_16 
REMARK       I    between atoms: C_16  and  N_17 
ROOT
HETATM    1  N   UNL     1      41.992 -15.570   1.541  1.00  0.00    -0.322 N 
HETATM    2  C   UNL     1      40.666 -15.191   1.416  1.00  0.00     0.263 C 
HETATM    3  O   UNL     1      39.752 -15.603   2.124  1.00  0.00    -0.267 OA
HETATM    4  H   UNL     1      42.626 -15.143   0.876  1.00  0.00     0.169 HD
ENDROOT
BRANCH   1   5
HETATM    5  C   UNL     1      42.567 -16.454   2.475  1.00  0.00     0.035 A 
HETATM    6  C   UNL     1      43.024 -16.073   3.735  1.00  0.00     0.030 A 
HETATM    7  C   UNL     1      43.593 -17.016   4.599  1.00  0.00     0.014 A 
HETATM    8  C   UNL     1      43.716 -18.360   4.219  1.00  0.00    -0.026 A 
HETATM    9  C   UNL     1      44.289 -19.315   5.075  1.00  0.00     0.012 A 
HETATM   10  C   UNL     1      43.255 -18.758   2.946  1.00  0.00    -0.024 A 
HETATM   11  C   UNL     1      44.405 -20.647   4.680  1.00  0.00     0.001 A 
HETATM   12  C   UNL     1      43.950 -21.042   3.425  1.00  0.00     0.001 A 
HETATM   13  C   UNL     1      43.378 -20.104   2.564  1.00  0.00     0.012 A 
HETATM   14  C   UNL     1      42.686 -17.797   2.090  1.00  0.00     0.042 A 
ENDBRANCH   1   5
BRANCH   2  15
HETATM   15  C   UNL     1      40.405 -14.224   0.347  1.00  0.00     0.073 A 
HETATM   16  S   UNL     1      40.932 -12.598   0.418  1.00  0.00    -0.096 SA
HETATM   17  C   UNL     1      40.244 -12.237  -1.101  1.00  0.00     0.067 A 
HETATM   18  C   UNL     1      39.611 -13.320  -1.687  1.00  0.00     0.039 A 
HETATM   19  C   UNL     1      39.718 -14.468  -0.830  1.00  0.00     0.042 A 
BRANCH  18  20
HETATM   20  C   UNL     1      38.958 -13.210  -2.989  1.00  0.00     0.249 C 
HETATM   21  N   UNL     1      38.420 -11.996  -3.299  1.00  0.00    -0.366 N 
HETATM   22  H   UNL     1      38.441 -11.195  -2.689  1.00  0.00     0.159 HD
HETATM   23  H   UNL     1      37.963 -11.910  -4.197  1.00  0.00     0.159 HD
HETATM   24  O   UNL     1      38.883 -14.141  -3.785  1.00  0.00    -0.268 OA
ENDBRANCH  18  20
ENDBRANCH   2  15
TORSDOF 3
ENDMDL
MODEL 3
REMARK VINA RESULT:      -8.0      4.795      6.390
REMARK  3 active torsions:
REMARK  status: ('A' for Active; 'I' for Inactive)
REMARK    1  A    between atoms: C_9  and  N_10 
REMARK       I    between atoms: N_10  and  C_11 
REMARK    2  A    between atoms: C_11  and  C_12 
REMARK    3  A    between atoms: C_15  and  C_16 
REMARK       I    between atoms: C_16  and  N_17 
ROOT
HETATM    1  N   UNL     1      42.000 -15.021   1.176  1.00  0.00    -0.322 N 
HETATM    2  C   UNL     1      40.692 -14.919   0.733  1.00  0.00     0.263 C 
HETATM    3  O   UNL     1      39.767 -15.628   1.119  1.00  0.00    -0.267 OA
HETATM    4  H   UNL     1      42.649 -14.366   0.757  1.00  0.00     0.169 HD
ENDROOT
BRANCH   1   5
HETATM    5  C   UNL     1      42.535 -15.903   2.135  1.00  0.00     0.035 A 
HETATM    6  C   UNL     1      42.961 -15.515   3.404  1.00  0.00     0.030 A 
HETATM    7  C   UNL     1      43.490 -16.457   4.294  1.00  0.00     0.014 A 
HETATM    8  C   UNL     1      43.605 -17.806   3.932  1.00  0.00    -0.026 A 
HETATM    9  C   UNL     1      44.139 -18.760   4.814  1.00  0.00     0.012 A 
HETATM   10  C   UNL     1      43.176 -18.211   2.650  1.00  0.00    -0.024 A 
HETATM   11  C   UNL     1      44.247 -20.098   4.436  1.00  0.00     0.001 A 
HETATM   12  C   UNL     1      43.822 -20.500   3.173  1.00  0.00     0.001 A 
HETATM   13  C   UNL     1      43.290 -19.564   2.286  1.00  0.00     0.012 A 
HETATM   14  C   UNL     1      42.645 -17.252   1.768  1.00  0.00     0.042 A 
ENDBRANCH   1   5
BRANCH   2  15
HETATM   15  C   UNL     1      40.464 -13.867  -0.261  1.00  0.00     0.073 A 
HETATM   16  S   UNL     1      39.356 -14.037  -1.553  1.00  0.00    -0.096 SA
HETATM   17  C   UNL     1      39.716 -12.482  -2.156  1.00  0.00     0.067 A 
HETATM   18  C   UNL     1      40.666 -11.809  -1.406  1.00  0.00     0.039 A 
HETATM   19  C   UNL     1      41.087 -12.631  -0.305  1.00  0.00     0.042 A 
BRANCH  18  20
HETATM   20  C   UNL     1      41.109 -10.464  -1.763  1.00  0.00     0.249 C 
HETATM   21  N   UNL     1      40.562  -9.923  -2.889  1.00  0.00    -0.366 N 
HETATM   22  H   UNL     1      39.893 -10.393  -3.476  1.00  0.00     0.159 HD
HETATM   23  H   UNL     1      40.864  -8.993  -3.147  1.00  0.00     0.159 HD
HETATM   24  O   UNL     1      41.928  -9.829  -1.106  1.00  0.00    -0.268 OA
ENDBRANCH  18  20
ENDBRANCH   2  15
TORSDOF 3
ENDMDL
MODEL 4
REMARK VINA RESULT:      -7.9      5.167      7.620
REMARK  3 active torsions:
REMARK  status: ('A' for Active; 'I' for Inactive)
REMARK    1  A    between atoms: C_9  and  N_10 
REMARK       I    between atoms: N_10  and  C_11 
REMARK    2  A    between atoms: C_11  and  C_12 
REMARK    3  A    between atoms: C_15  and  C_16 
REMARK       I    between atoms: C_16  and  N_17 
ROOT
HETATM    1  N   UNL     1      40.863 -15.249   1.258  1.00  0.00    -0.322 N 
HETATM    2  C   UNL     1      40.943 -13.913   0.902  1.00  0.00     0.263 C 
HETATM    3  O   UNL     1      41.777 -13.124   1.336  1.00  0.00    -0.267 OA
HETATM    4  H   UNL     1      40.114 -15.768   0.815  1.00  0.00     0.169 HD
ENDROOT
BRANCH   1   5
HETATM    5  C   UNL     1      41.690 -15.974   2.137  1.00  0.00     0.035 A 
HETATM    6  C   UNL     1      42.740 -16.793   1.728  1.00  0.00     0.030 A 
HETATM    7  C   UNL     1      43.508 -17.487   2.670  1.00  0.00     0.014 A 
HETATM    8  C   UNL     1      43.241 -17.375   4.042  1.00  0.00    -0.026 A 
HETATM    9  C   UNL     1      44.000 -18.070   4.997  1.00  0.00     0.012 A 
HETATM   10  C   UNL     1      42.181 -16.546   4.469  1.00  0.00    -0.024 A 
HETATM   11  C   UNL     1      43.719 -17.947   6.358  1.00  0.00     0.001 A 
HETATM   12  C   UNL     1      42.676 -17.129   6.781  1.00  0.00     0.001 A 
HETATM   13  C   UNL     1      41.912 -16.432   5.843  1.00  0.00     0.012 A 
HETATM   14  C   UNL     1      41.420 -15.856   3.508  1.00  0.00     0.042 A 
ENDBRANCH   1   5
BRANCH   2  15
HETATM   15  C   UNL     1      39.936 -13.477  -0.067  1.00  0.00     0.073 A 
HETATM   16  S   UNL     1      39.078 -12.005   0.084  1.00  0.00    -0.096 SA
HETATM   17  C   UNL     1      38.193 -12.294  -1.346  1.00  0.00     0.067 A 
HETATM   18  C   UNL     1      38.521 -13.490  -1.961  1.00  0.00     0.039 A 
HETATM   19  C   UNL     1      39.540 -14.163  -1.203  1.00  0.00     0.042 A 
BRANCH  18  20
HETATM   20  C   UNL     1      37.869 -13.917  -3.197  1.00  0.00     0.249 C 
HETATM   21  N   UNL     1      36.681 -13.320  -3.495  1.00  0.00    -0.366 N 
HETATM   22  H   UNL     1      36.236 -12.625  -2.918  1.00  0.00     0.159 HD
HETATM   23  H   UNL     1      36.220 -13.611  -4.347  1.00  0.00     0.159 HD
HETATM   24  O   UNL     1      38.342 -14.765  -3.948  1.00  0.00    -0.268 OA
ENDBRANCH  18  20
ENDBRANCH   2  15
TORSDOF 3
ENDMDL
MODEL 5
REMARK VINA RESULT:      -7.8      5.946      8.096
REMARK  3 active torsions:
REMARK  status: ('A' for Active; 'I' for Inactive)
REMARK    1  A    between atoms: C_9  and  N_10 
REMARK       I    between atoms: N_10  and  C_11 
REMARK    2  A    between atoms: C_11  and  C_12 
REMARK    3  A    between atoms: C_15  and  C_16 
REMARK       I    between atoms: C_16  and  N_17 
ROOT
HETATM    1  N   UNL     1      39.870 -15.031   0.916  1.00  0.00    -0.322 N 
HETATM    2  C   UNL     1      40.170 -13.944   0.113  1.00  0.00     0.263 C 
HETATM    3  O   UNL     1      41.140 -13.208   0.267  1.00  0.00    -0.267 OA
HETATM    4  H   UNL     1      39.029 -15.535   0.660  1.00  0.00     0.169 HD
ENDROOT
BRANCH   1   5
HETATM    5  C   UNL     1      40.584 -15.527   2.024  1.00  0.00     0.035 A 
HETATM    6  C   UNL     1      40.381 -15.108   3.337  1.00  0.00     0.030 A 
HETATM    7  C   UNL     1      41.143 -15.647   4.380  1.00  0.00     0.014 A 
HETATM    8  C   UNL     1      42.124 -16.616   4.130  1.00  0.00    -0.026 A 
HETATM    9  C   UNL     1      42.899 -17.162   5.166  1.00  0.00     0.012 A 
HETATM   10  C   UNL     1      42.338 -17.050   2.804  1.00  0.00    -0.024 A 
HETATM   11  C   UNL     1      43.872 -18.124   4.898  1.00  0.00     0.001 A 
HETATM   12  C   UNL     1      44.083 -18.554   3.592  1.00  0.00     0.001 A 
HETATM   13  C   UNL     1      43.321 -18.022   2.551  1.00  0.00     0.012 A 
HETATM   14  C   UNL     1      41.563 -16.498   1.767  1.00  0.00     0.042 A 
ENDBRANCH   1   5
BRANCH   2  15
HETATM   15  C   UNL     1      39.225 -13.714  -0.983  1.00  0.00     0.073 A 
HETATM   16  S   UNL     1      38.988 -14.834  -2.254  1.00  0.00    -0.096 SA
HETATM   17  C   UNL     1      37.829 -13.835  -3.010  1.00  0.00     0.067 A 
HETATM   18  C   UNL     1      37.598 -12.652  -2.329  1.00  0.00     0.039 A 
HETATM   19  C   UNL     1      38.418 -12.601  -1.150  1.00  0.00     0.042 A 
BRANCH  18  20
HETATM   20  C   UNL     1      36.641 -11.663  -2.820  1.00  0.00     0.249 C 
HETATM   21  N   UNL     1      35.740 -12.097  -3.746  1.00  0.00    -0.366 N 
HETATM   22  H   UNL     1      35.707 -13.036  -4.107  1.00  0.00     0.159 HD
HETATM   23  H   UNL     1      35.075 -11.419  -4.094  1.00  0.00     0.159 HD
HETATM   24  O   UNL     1      36.623 -10.497  -2.437  1.00  0.00    -0.268 OA
ENDBRANCH  18  20
ENDBRANCH   2  15
TORSDOF 3
ENDMDL
MODEL 6
REMARK VINA RESULT:      -7.7      1.895      2.166
REMARK  3 active torsions:
REMARK  status: ('A' for Active; 'I' for Inactive)
REMARK    1  A    between atoms: C_9  and  N_10 
REMARK       I    between atoms: N_10  and  C_11 
REMARK    2  A    between atoms: C_11  and  C_12 
REMARK    3  A    between atoms: C_15  and  C_16 
REMARK       I    between atoms: C_16  and  N_17 
ROOT
HETATM    1  N   UNL     1      43.260 -14.646   4.738  1.00  0.00    -0.322 N 
HETATM    2  C   UNL     1      42.177 -13.796   4.889  1.00  0.00     0.263 C 
HETATM    3  O   UNL     1      41.054 -14.008   4.438  1.00  0.00    -0.267 OA
HETATM    4  H   UNL     1      44.121 -14.325   5.165  1.00  0.00     0.169 HD
ENDROOT
BRANCH   1   5
HETATM    5  C   UNL     1      43.312 -15.892   4.085  1.00  0.00     0.035 A 
HETATM    6  C   UNL     1      43.060 -16.076   2.727  1.00  0.00     0.030 A 
HETATM    7  C   UNL     1      43.125 -17.354   2.159  1.00  0.00     0.014 A 
HETATM    8  C   UNL     1      43.443 -18.474   2.939  1.00  0.00    -0.026 A 
HETATM    9  C   UNL     1      43.507 -19.762   2.383  1.00  0.00     0.012 A 
HETATM   10  C   UNL     1      43.703 -18.300   4.315  1.00  0.00    -0.024 A 
HETATM   11  C   UNL     1      43.824 -20.866   3.174  1.00  0.00     0.001 A 
HETATM   12  C   UNL     1      44.083 -20.696   4.531  1.00  0.00     0.001 A 
HETATM   13  C   UNL     1      44.023 -19.422   5.099  1.00  0.00     0.012 A 
HETATM   14  C   UNL     1      43.634 -17.009   4.870  1.00  0.00     0.042 A 
ENDBRANCH   1   5
BRANCH   2  15
HETATM   15  C   UNL     1      42.457 -12.579   5.653  1.00  0.00     0.073 A 
HETATM   16  S   UNL     1      43.890 -12.362   6.561  1.00  0.00    -0.096 SA
HETATM   17  C   UNL     1      43.409 -10.810   7.081  1.00  0.00     0.067 A 
HETATM   18  C   UNL     1      42.173 -10.426   6.587  1.00  0.00     0.039 A 
HETATM   19  C   UNL     1      41.636 -11.468   5.756  1.00  0.00     0.042 A 
BRANCH  18  20
HETATM   20  C   UNL     1      41.587  -9.130   6.921  1.00  0.00     0.249 C 
HETATM   21  N   UNL     1      42.290  -8.351   7.791  1.00  0.00    -0.366 N 
HETATM   22  H   UNL     1      43.165  -8.619   8.211  1.00  0.00     0.159 HD
HETATM   23  H   UNL     1      41.891  -7.454   8.031  1.00  0.00     0.159 HD
HETATM   24  O   UNL     1      40.520  -8.736   6.460  1.00  0.00    -0.268 OA
ENDBRANCH  18  20
ENDBRANCH   2  15
TORSDOF 3
ENDMDL
MODEL 7
REMARK VINA RESULT:      -7.5      2.831      3.938
REMARK  3 active torsions:
REMARK  status: ('A' for Active; 'I' for Inactive)
REMARK    1  A    between atoms: C_9  and  N_10 
REMARK       I    between atoms: N_10  and  C_11 
REMARK    2  A    between atoms: C_11  and  C_12 
REMARK    3  A    between atoms: C_15  and  C_16 
REMARK       I    between atoms: C_16  and  N_17 
ROOT
HETATM    1  N   UNL     1      43.369 -12.286   7.226  1.00  0.00    -0.322 N 
HETATM    2  C   UNL     1      44.449 -11.478   7.540  1.00  0.00     0.263 C 
HETATM    3  O   UNL     1      45.555 -11.554   7.013  1.00  0.00    -0.267 OA
HETATM    4  H   UNL     1      42.525 -12.101   7.755  1.00  0.00     0.169 HD
ENDROOT
BRANCH   1   5
HETATM    5  C   UNL     1      43.293 -13.314   6.266  1.00  0.00     0.035 A 
HETATM    6  C   UNL     1      42.814 -13.139   4.970  1.00  0.00     0.030 A 
HETATM    7  C   UNL     1      42.764 -14.219   4.080  1.00  0.00     0.014 A 
HETATM    8  C   UNL     1      43.190 -15.496   4.471  1.00  0.00    -0.026 A 
HETATM    9  C   UNL     1      43.140 -16.589   3.590  1.00  0.00     0.012 A 
HETATM   10  C   UNL     1      43.679 -15.684   5.782  1.00  0.00    -0.024 A 
HETATM   11  C   UNL     1      43.568 -17.852   3.997  1.00  0.00     0.001 A 
HETATM   12  C   UNL     1      44.052 -18.040   5.288  1.00  0.00     0.001 A 
HETATM   13  C   UNL     1      44.108 -16.964   6.175  1.00  0.00     0.012 A 
HETATM   14  C   UNL     1      43.724 -14.588   6.662  1.00  0.00     0.042 A 
ENDBRANCH   1   5
BRANCH   2  15
HETATM   15  C   UNL     1      44.183 -10.479   8.578  1.00  0.00     0.073 A 
HETATM   16  S   UNL     1      44.423  -8.803   8.336  1.00  0.00    -0.096 SA
HETATM   17  C   UNL     1      43.920  -8.431   9.923  1.00  0.00     0.067 A 
HETATM   18  C   UNL     1      43.563  -9.548  10.660  1.00  0.00     0.039 A 
HETATM   19  C   UNL     1      43.721 -10.730   9.859  1.00  0.00     0.042 A 
BRANCH  18  20
HETATM   20  C   UNL     1      43.107  -9.436  12.043  1.00  0.00     0.249 C 
HETATM   21  N   UNL     1      42.385 -10.484  12.532  1.00  0.00    -0.366 N 
HETATM   22  H   UNL     1      42.147 -11.305  11.999  1.00  0.00     0.159 HD
HETATM   23  H   UNL     1      42.062 -10.416  13.487  1.00  0.00     0.159 HD
HETATM   24  O   UNL     1      43.346  -8.465  12.754  1.00  0.00    -0.268 OA
ENDBRANCH  18  20
ENDBRANCH   2  15
TORSDOF 3
ENDMDL
MODEL 8
REMARK VINA RESULT:      -7.2      2.662      8.175
REMARK  3 active torsions:
REMARK  status: ('A' for Active; 'I' for Inactive)
REMARK    1  A    between atoms: C_9  and  N_10 
REMARK       I    between atoms: N_10  and  C_11 
REMARK    2  A    between atoms: C_11  and  C_12 
REMARK    3  A    between atoms: C_15  and  C_16 
REMARK       I    between atoms: C_16  and  N_17 
ROOT
HETATM    1  N   UNL     1      42.989 -13.613   5.221  1.00  0.00    -0.322 N 
HETATM    2  C   UNL     1      42.892 -13.775   3.849  1.00  0.00     0.263 C 
HETATM    3  O   UNL     1      42.917 -12.858   3.034  1.00  0.00    -0.267 OA
HETATM    4  H   UNL     1      42.947 -14.471   5.759  1.00  0.00     0.169 HD
ENDROOT
BRANCH   1   5
HETATM    5  C   UNL     1      43.150 -12.422   5.954  1.00  0.00     0.035 A 
HETATM    6  C   UNL     1      42.110 -11.550   6.268  1.00  0.00     0.030 A 
HETATM    7  C   UNL     1      42.360 -10.379   6.995  1.00  0.00     0.014 A 
HETATM    8  C   UNL     1      43.656 -10.058   7.422  1.00  0.00    -0.026 A 
HETATM    9  C   UNL     1      43.921  -8.886   8.147  1.00  0.00     0.012 A 
HETATM   10  C   UNL     1      44.717 -10.936   7.111  1.00  0.00    -0.024 A 
HETATM   11  C   UNL     1      45.217  -8.581   8.563  1.00  0.00     0.001 A 
HETATM   12  C   UNL     1      46.264  -9.446   8.259  1.00  0.00     0.001 A 
HETATM   13  C   UNL     1      46.017 -10.616   7.539  1.00  0.00     0.012 A 
HETATM   14  C   UNL     1      44.448 -12.108   6.381  1.00  0.00     0.042 A 
ENDBRANCH   1   5
BRANCH   2  15
HETATM   15  C   UNL     1      42.758 -15.165   3.406  1.00  0.00     0.073 A 
HETATM   16  S   UNL     1      41.524 -15.684   2.341  1.00  0.00    -0.096 SA
HETATM   17  C   UNL     1      42.076 -17.298   2.377  1.00  0.00     0.067 A 
HETATM   18  C   UNL     1      43.189 -17.478   3.181  1.00  0.00     0.039 A 
HETATM   19  C   UNL     1      43.573 -16.224   3.769  1.00  0.00     0.042 A 
BRANCH  18  20
HETATM   20  C   UNL     1      43.809 -18.791   3.344  1.00  0.00     0.249 C 
HETATM   21  N   UNL     1      43.532 -19.717   2.383  1.00  0.00    -0.366 N 
HETATM   22  H   UNL     1      42.930 -19.551   1.593  1.00  0.00     0.159 HD
HETATM   23  H   UNL     1      43.954 -20.630   2.487  1.00  0.00     0.159 HD
HETATM   24  O   UNL     1      44.546 -19.075   4.283  1.00  0.00    -0.268 OA
ENDBRANCH  18  20
ENDBRANCH   2  15
TORSDOF 3
ENDMDL
MODEL 9
REMARK VINA RESULT:      -7.2      2.795      3.882
REMARK  3 active torsions:
REMARK  status: ('A' for Active; 'I' for Inactive)
REMARK    1  A    between atoms: C_9  and  N_10 
REMARK       I    between atoms: N_10  and  C_11 
REMARK    2  A    between atoms: C_11  and  C_12 
REMARK    3  A    between atoms: C_15  and  C_16 
REMARK       I    between atoms: C_16  and  N_17 
ROOT
HETATM    1  N   UNL     1      42.693 -13.410   6.221  1.00  0.00    -0.322 N 
HETATM    2  C   UNL     1      43.257 -12.167   5.986  1.00  0.00     0.263 C 
HETATM    3  O   UNL     1      44.297 -11.978   5.361  1.00  0.00    -0.267 OA
HETATM    4  H   UNL     1      41.835 -13.398   6.759  1.00  0.00     0.169 HD
ENDROOT
BRANCH   1   5
HETATM    5  C   UNL     1      43.150 -14.674   5.801  1.00  0.00     0.035 A 
HETATM    6  C   UNL     1      44.032 -15.468   6.530  1.00  0.00     0.030 A 
HETATM    7  C   UNL     1      44.444 -16.711   6.033  1.00  0.00     0.014 A 
HETATM    8  C   UNL     1      43.981 -17.183   4.797  1.00  0.00    -0.026 A 
HETATM    9  C   UNL     1      44.390 -18.425   4.285  1.00  0.00     0.012 A 
HETATM   10  C   UNL     1      43.086 -16.387   4.051  1.00  0.00    -0.024 A 
HETATM   11  C   UNL     1      43.920 -18.878   3.052  1.00  0.00     0.001 A 
HETATM   12  C   UNL     1      43.036 -18.095   2.316  1.00  0.00     0.001 A 
HETATM   13  C   UNL     1      42.620 -16.858   2.811  1.00  0.00     0.012 A 
HETATM   14  C   UNL     1      42.682 -15.141   4.565  1.00  0.00     0.042 A 
ENDBRANCH   1   5
BRANCH   2  15
HETATM   15  C   UNL     1      42.507 -11.040   6.546  1.00  0.00     0.073 A 
HETATM   16  S   UNL     1      43.211  -9.886   7.594  1.00  0.00    -0.096 SA
HETATM   17  C   UNL     1      41.744  -9.026   7.745  1.00  0.00     0.067 A 
HETATM   18  C   UNL     1      40.706  -9.583   7.017  1.00  0.00     0.039 A 
HETATM   19  C   UNL     1      41.171 -10.752   6.323  1.00  0.00     0.042 A 
BRANCH  18  20
HETATM   20  C   UNL     1      39.370  -8.992   7.018  1.00  0.00     0.249 C 
HETATM   21  N   UNL     1      39.185  -7.909   7.825  1.00  0.00    -0.366 N 
HETATM   22  H   UNL     1      39.901  -7.511   8.411  1.00  0.00     0.159 HD
HETATM   23  H   UNL     1      38.263  -7.495   7.835  1.00  0.00     0.159 HD
HETATM   24  O   UNL     1      38.443  -9.425   6.341  1.00  0.00    -0.268 OA
ENDBRANCH  18  20
ENDBRANCH   2  15
TORSDOF 3
ENDMDL
MODEL 10
REMARK VINA RESULT:      -6.9     10.514     15.321
REMARK  3 active torsions:
REMARK  status: ('A' for Active; 'I' for Inactive)
REMARK    1  A    between atoms: C_9  and  N_10 
REMARK       I    between atoms: N_10  and  C_11 
REMARK    2  A    between atoms: C_11  and  C_12 
REMARK    3  A    between atoms: C_15  and  C_16 
REMARK       I    between atoms: C_16  and  N_17 
ROOT
HETATM    1  N   UNL     1      41.298  -8.076  16.140  1.00  0.00    -0.322 N 
HETATM    2  C   UNL     1      40.724  -7.670  14.947  1.00  0.00     0.263 C 
HETATM    3  O   UNL     1      39.982  -6.700  14.823  1.00  0.00    -0.267 OA
HETATM    4  H   UNL     1      41.883  -8.901  16.077  1.00  0.00     0.169 HD
ENDROOT
BRANCH   1   5
HETATM    5  C   UNL     1      41.184  -7.486  17.414  1.00  0.00     0.035 A 
HETATM    6  C   UNL     1      41.848  -6.324  17.800  1.00  0.00     0.030 A 
HETATM    7  C   UNL     1      41.685  -5.809  19.092  1.00  0.00     0.014 A 
HETATM    8  C   UNL     1      40.855  -6.448  20.023  1.00  0.00    -0.026 A 
HETATM    9  C   UNL     1      40.687  -5.945  21.324  1.00  0.00     0.012 A 
HETATM   10  C   UNL     1      40.176  -7.625  19.643  1.00  0.00    -0.024 A 
HETATM   11  C   UNL     1      39.858  -6.595  22.238  1.00  0.00     0.001 A 
HETATM   12  C   UNL     1      39.186  -7.755  21.864  1.00  0.00     0.001 A 
HETATM   13  C   UNL     1      39.343  -8.267  20.575  1.00  0.00     0.012 A 
HETATM   14  C   UNL     1      40.350  -8.128  18.340  1.00  0.00     0.042 A 
ENDBRANCH   1   5
BRANCH   2  15
HETATM   15  C   UNL     1      41.071  -8.497  13.789  1.00  0.00     0.073 A 
HETATM   16  S   UNL     1      39.974  -8.820  12.517  1.00  0.00    -0.096 SA
HETATM   17  C   UNL     1      41.114  -9.780  11.685  1.00  0.00     0.067 A 
HETATM   18  C   UNL     1      42.330  -9.876  12.340  1.00  0.00     0.039 A 
HETATM   19  C   UNL     1      42.287  -9.121  13.561  1.00  0.00     0.042 A 
BRANCH  18  20
HETATM   20  C   UNL     1      43.435 -10.657  11.788  1.00  0.00     0.249 C 
HETATM   21  N   UNL     1      43.650 -11.883  12.344  1.00  0.00    -0.366 N 
HETATM   22  H   UNL     1      43.107 -12.264  13.102  1.00  0.00     0.159 HD
HETATM   23  H   UNL     1      44.414 -12.430  11.971  1.00  0.00     0.159 HD
HETATM   24  O   UNL     1      44.148 -10.259  10.872  1.00  0.00    -0.268 OA
ENDBRANCH  18  20
ENDBRANCH   2  15
TORSDOF 3
ENDMDL
