MODEL 1
REMARK VINA RESULT:      -8.8      0.000      0.000
REMARK  5 active torsions:
REMARK  status: ('A' for Active; 'I' for Inactive)
REMARK    1  A    between atoms: O_1  and  C_2 
REMARK    2  A    between atoms: C_6  and  C_7 
REMARK    3  A    between atoms: C_7  and  N_8 
REMARK       I    between atoms: N_8  and  C_9 
REMARK    4  A    between atoms: C_9  and  C_11 
REMARK    5  A    between atoms: C_14  and  C_17 
ROOT
HETATM    1  N   UNL     1      43.019 -12.477   6.216  1.00  0.00    -0.353 N 
HETATM    2  C   UNL     1      42.737 -12.894   4.933  1.00  0.00     0.251 C 
HETATM    3  O   UNL     1      42.272 -12.162   4.067  1.00  0.00    -0.268 OA
HETATM    4  H   UNL     1      43.203 -13.164   6.931  1.00  0.00     0.163 HD
ENDROOT
BRANCH   2   5
HETATM    5  C   UNL     1      42.982 -14.333   4.636  1.00  0.00     0.032 A 
HETATM    6  C   UNL     1      42.892 -14.757   3.307  1.00  0.00     0.018 A 
HETATM    7  C   UNL     1      43.091 -16.103   2.978  1.00  0.00     0.013 A 
HETATM    8  C   UNL     1      43.396 -17.053   3.967  1.00  0.00    -0.026 A 
HETATM    9  C   UNL     1      43.508 -16.605   5.295  1.00  0.00     0.013 A 
HETATM   10  C   UNL     1      43.307 -15.260   5.630  1.00  0.00     0.018 A 
BRANCH   8  11
HETATM   11  C   UNL     1      43.589 -18.474   3.621  1.00  0.00    -0.023 A 
HETATM   12  C   UNL     1      43.333 -18.951   2.329  1.00  0.00     0.031 A 
HETATM   13  C   UNL     1      43.520 -20.298   2.056  1.00  0.00     0.117 A 
HETATM   14  N   UNL     1      43.941 -21.197   2.968  1.00  0.00    -0.273 NA
HETATM   15  C   UNL     1      44.185 -20.728   4.208  1.00  0.00     0.117 A 
HETATM   16  C   UNL     1      44.027 -19.400   4.576  1.00  0.00     0.031 A 
ENDBRANCH   8  11
ENDBRANCH   2   5
BRANCH   1  17
HETATM   17  C   UNL     1      42.687 -11.144   6.669  1.00  0.00     0.161 C 
BRANCH  17  18
HETATM   18  C   UNL     1      43.905 -10.449   7.223  1.00  0.00    -0.038 A 
HETATM   19  C   UNL     1      43.767  -9.318   8.042  1.00  0.00     0.009 A 
HETATM   20  C   UNL     1      44.893  -8.678   8.566  1.00  0.00     0.003 A 
HETATM   21  C   UNL     1      46.169  -9.157   8.274  1.00  0.00     0.036 A 
HETATM   22  C   UNL     1      46.307 -10.277   7.460  1.00  0.00     0.066 A 
HETATM   23  C   UNL     1      45.192 -10.925   6.937  1.00  0.00     0.045 A 
BRANCH  22  24
HETATM   24  O   UNL     1      47.536 -10.778   7.145  1.00  0.00    -0.361 OA
HETATM   25  H   UNL     1      47.419 -11.668   6.775  1.00  0.00     0.217 HD
ENDBRANCH  22  24
ENDBRANCH  17  18
ENDBRANCH   1  17
TORSDOF 5
ENDMDL
MODEL 2
REMARK VINA RESULT:      -8.5      4.231      6.414
REMARK  5 active torsions:
REMARK  status: ('A' for Active; 'I' for Inactive)
REMARK    1  A    between atoms: O_1  and  C_2 
REMARK    2  A    between atoms: C_6  and  C_7 
REMARK    3  A    between atoms: C_7  and  N_8 
REMARK       I    between atoms: N_8  and  C_9 
REMARK    4  A    between atoms: C_9  and  C_11 
REMARK    5  A    between atoms: C_14  and  C_17 
ROOT
HETATM    1  N   UNL     1      41.370 -12.417   1.385  1.00  0.00    -0.353 N 
HETATM    2  C   UNL     1      42.374 -12.643   2.300  1.00  0.00     0.251 C 
HETATM    3  O   UNL     1      43.022 -11.750   2.834  1.00  0.00    -0.268 OA
HETATM    4  H   UNL     1      41.019 -13.186   0.833  1.00  0.00     0.163 HD
ENDROOT
BRANCH   2   5
HETATM    5  C   UNL     1      42.692 -14.068   2.596  1.00  0.00     0.032 A 
HETATM    6  C   UNL     1      42.840 -14.950   1.521  1.00  0.00     0.018 A 
HETATM    7  C   UNL     1      43.116 -16.302   1.747  1.00  0.00     0.013 A 
HETATM    8  C   UNL     1      43.263 -16.805   3.051  1.00  0.00    -0.026 A 
HETATM    9  C   UNL     1      43.137 -15.900   4.120  1.00  0.00     0.013 A 
HETATM   10  C   UNL     1      42.857 -14.546   3.900  1.00  0.00     0.018 A 
BRANCH   8  11
HETATM   11  C   UNL     1      43.537 -18.234   3.289  1.00  0.00    -0.023 A 
HETATM   12  C   UNL     1      43.345 -19.191   2.283  1.00  0.00     0.031 A 
HETATM   13  C   UNL     1      43.608 -20.524   2.558  1.00  0.00     0.117 A 
HETATM   14  N   UNL     1      44.046 -20.971   3.752  1.00  0.00    -0.273 NA
HETATM   15  C   UNL     1      44.229 -20.044   4.713  1.00  0.00     0.117 A 
HETATM   16  C   UNL     1      43.993 -18.689   4.532  1.00  0.00     0.031 A 
ENDBRANCH   8  11
ENDBRANCH   2   5
BRANCH   1  17
HETATM   17  C   UNL     1      41.069 -11.086   0.903  1.00  0.00     0.161 C 
BRANCH  17  18
HETATM   18  C   UNL     1      41.003 -11.065  -0.602  1.00  0.00    -0.038 A 
HETATM   19  C   UNL     1      40.746  -9.866  -1.286  1.00  0.00     0.009 A 
HETATM   20  C   UNL     1      40.695  -9.841  -2.682  1.00  0.00     0.003 A 
HETATM   21  C   UNL     1      40.895 -11.012  -3.411  1.00  0.00     0.036 A 
HETATM   22  C   UNL     1      41.147 -12.202  -2.735  1.00  0.00     0.066 A 
HETATM   23  C   UNL     1      41.205 -12.237  -1.344  1.00  0.00     0.045 A 
BRANCH  22  24
HETATM   24  O   UNL     1      41.345 -13.372  -3.407  1.00  0.00    -0.361 OA
HETATM   25  H   UNL     1      41.025 -13.262  -4.316  1.00  0.00     0.217 HD
ENDBRANCH  22  24
ENDBRANCH  17  18
ENDBRANCH   1  17
TORSDOF 5
ENDMDL
MODEL 3
REMARK VINA RESULT:      -8.4      4.886      8.514
REMARK  5 active torsions:
REMARK  status: ('A' for Active; 'I' for Inactive)
REMARK    1  A    between atoms: O_1  and  C_2 
REMARK    2  A    between atoms: C_6  and  C_7 
REMARK    3  A    between atoms: C_7  and  N_8 
REMARK       I    between atoms: N_8  and  C_9 
REMARK    4  A    between atoms: C_9  and  C_11 
REMARK    5  A    between atoms: C_14  and  C_17 
ROOT
HETATM    1  N   UNL     1      43.338 -16.316   3.871  1.00  0.00    -0.353 N 
HETATM    2  C   UNL     1      41.994 -16.025   3.943  1.00  0.00     0.251 C 
HETATM    3  O   UNL     1      41.284 -16.323   4.897  1.00  0.00    -0.268 OA
HETATM    4  H   UNL     1      43.817 -16.231   2.987  1.00  0.00     0.163 HD
ENDROOT
BRANCH   2   5
HETATM    5  C   UNL     1      41.396 -15.353   2.755  1.00  0.00     0.032 A 
HETATM    6  C   UNL     1      40.498 -16.079   1.967  1.00  0.00     0.018 A 
HETATM    7  C   UNL     1      39.928 -15.500   0.829  1.00  0.00     0.013 A 
HETATM    8  C   UNL     1      40.230 -14.180   0.456  1.00  0.00    -0.026 A 
HETATM    9  C   UNL     1      41.115 -13.454   1.274  1.00  0.00     0.013 A 
HETATM   10  C   UNL     1      41.692 -14.030   2.413  1.00  0.00     0.018 A 
BRANCH   8  11
HETATM   11  C   UNL     1      39.641 -13.577  -0.753  1.00  0.00    -0.023 A 
HETATM   12  C   UNL     1      39.362 -14.346  -1.890  1.00  0.00     0.031 A 
HETATM   13  C   UNL     1      38.817 -13.731  -3.007  1.00  0.00     0.117 A 
HETATM   14  N   UNL     1      38.530 -12.416  -3.074  1.00  0.00    -0.273 NA
HETATM   15  C   UNL     1      38.801 -11.684  -1.975  1.00  0.00     0.117 A 
HETATM   16  C   UNL     1      39.345 -12.209  -0.813  1.00  0.00     0.031 A 
ENDBRANCH   8  11
ENDBRANCH   2   5
BRANCH   1  17
HETATM   17  C   UNL     1      44.001 -17.096   4.893  1.00  0.00     0.161 C 
BRANCH  17  18
HETATM   18  C   UNL     1      43.954 -18.564   4.558  1.00  0.00    -0.038 A 
HETATM   19  C   UNL     1      44.013 -19.528   5.577  1.00  0.00     0.009 A 
HETATM   20  C   UNL     1      43.958 -20.890   5.272  1.00  0.00     0.003 A 
HETATM   21  C   UNL     1      43.848 -21.306   3.946  1.00  0.00     0.036 A 
HETATM   22  C   UNL     1      43.791 -20.352   2.935  1.00  0.00     0.066 A 
HETATM   23  C   UNL     1      43.840 -18.993   3.228  1.00  0.00     0.045 A 
BRANCH  22  24
HETATM   24  O   UNL     1      43.687 -20.713   1.624  1.00  0.00    -0.361 OA
HETATM   25  H   UNL     1      44.282 -20.151   1.102  1.00  0.00     0.217 HD
ENDBRANCH  22  24
ENDBRANCH  17  18
ENDBRANCH   1  17
TORSDOF 5
ENDMDL
MODEL 4
REMARK VINA RESULT:      -8.0      2.512      8.826
REMARK  5 active torsions:
REMARK  status: ('A' for Active; 'I' for Inactive)
REMARK    1  A    between atoms: O_1  and  C_2 
REMARK    2  A    between atoms: C_6  and  C_7 
REMARK    3  A    between atoms: C_7  and  N_8 
REMARK       I    between atoms: N_8  and  C_9 
REMARK    4  A    between atoms: C_9  and  C_11 
REMARK    5  A    between atoms: C_14  and  C_17 
ROOT
HETATM    1  N   UNL     1      43.378 -15.853   3.320  1.00  0.00    -0.353 N 
HETATM    2  C   UNL     1      42.444 -14.997   3.860  1.00  0.00     0.251 C 
HETATM    3  O   UNL     1      41.242 -15.070   3.632  1.00  0.00    -0.268 OA
HETATM    4  H   UNL     1      44.358 -15.619   3.380  1.00  0.00     0.163 HD
ENDROOT
BRANCH   2   5
HETATM    5  C   UNL     1      42.969 -13.906   4.728  1.00  0.00     0.032 A 
HETATM    6  C   UNL     1      43.038 -12.614   4.197  1.00  0.00     0.018 A 
HETATM    7  C   UNL     1      43.545 -11.560   4.964  1.00  0.00     0.013 A 
HETATM    8  C   UNL     1      43.982 -11.766   6.283  1.00  0.00    -0.026 A 
HETATM    9  C   UNL     1      43.881 -13.065   6.811  1.00  0.00     0.013 A 
HETATM   10  C   UNL     1      43.378 -14.126   6.047  1.00  0.00     0.018 A 
BRANCH   8  11
HETATM   11  C   UNL     1      44.531 -10.657   7.085  1.00  0.00    -0.023 A 
HETATM   12  C   UNL     1      45.912 -10.499   7.261  1.00  0.00     0.031 A 
HETATM   13  C   UNL     1      46.379  -9.445   8.033  1.00  0.00     0.117 A 
HETATM   14  N   UNL     1      45.578  -8.544   8.635  1.00  0.00    -0.273 NA
HETATM   15  C   UNL     1      44.251  -8.704   8.459  1.00  0.00     0.117 A 
HETATM   16  C   UNL     1      43.691  -9.724   7.706  1.00  0.00     0.031 A 
ENDBRANCH   8  11
ENDBRANCH   2   5
BRANCH   1  17
HETATM   17  C   UNL     1      43.011 -16.859   2.347  1.00  0.00     0.161 C 
BRANCH  17  18
HETATM   18  C   UNL     1      43.324 -18.240   2.863  1.00  0.00    -0.038 A 
HETATM   19  C   UNL     1      43.376 -19.333   1.983  1.00  0.00     0.009 A 
HETATM   20  C   UNL     1      43.677 -20.612   2.456  1.00  0.00     0.003 A 
HETATM   21  C   UNL     1      43.925 -20.817   3.813  1.00  0.00     0.036 A 
HETATM   22  C   UNL     1      43.872 -19.735   4.686  1.00  0.00     0.066 A 
HETATM   23  C   UNL     1      43.578 -18.455   4.225  1.00  0.00     0.045 A 
BRANCH  22  24
HETATM   24  O   UNL     1      44.105 -19.889   6.021  1.00  0.00    -0.361 OA
HETATM   25  H   UNL     1      43.266 -19.769   6.495  1.00  0.00     0.217 HD
ENDBRANCH  22  24
ENDBRANCH  17  18
ENDBRANCH   1  17
TORSDOF 5
ENDMDL
MODEL 5
REMARK VINA RESULT:      -8.0      2.704      3.817
REMARK  5 active torsions:
REMARK  status: ('A' for Active; 'I' for Inactive)
REMARK    1  A    between atoms: O_1  and  C_2 
REMARK    2  A    between atoms: C_6  and  C_7 
REMARK    3  A    between atoms: C_7  and  N_8 
REMARK       I    between atoms: N_8  and  C_9 
REMARK    4  A    between atoms: C_9  and  C_11 
REMARK    5  A    between atoms: C_14  and  C_17 
ROOT
HETATM    1  N   UNL     1      43.018 -12.027   4.549  1.00  0.00    -0.353 N 
HETATM    2  C   UNL     1      42.837 -12.589   3.305  1.00  0.00     0.251 C 
HETATM    3  O   UNL     1      42.521 -11.950   2.308  1.00  0.00    -0.268 OA
HETATM    4  H   UNL     1      43.074 -12.624   5.361  1.00  0.00     0.163 HD
ENDROOT
BRANCH   2   5
HETATM    5  C   UNL     1      42.996 -14.068   3.217  1.00  0.00     0.032 A 
HETATM    6  C   UNL     1      42.964 -14.808   4.403  1.00  0.00     0.018 A 
HETATM    7  C   UNL     1      43.132 -16.196   4.376  1.00  0.00     0.013 A 
HETATM    8  C   UNL     1      43.323 -16.881   3.164  1.00  0.00    -0.026 A 
HETATM    9  C   UNL     1      43.326 -16.125   1.978  1.00  0.00     0.013 A 
HETATM   10  C   UNL     1      43.163 -14.734   2.000  1.00  0.00     0.018 A 
BRANCH   8  11
HETATM   11  C   UNL     1      43.516 -18.343   3.139  1.00  0.00    -0.023 A 
HETATM   12  C   UNL     1      43.221 -19.097   1.996  1.00  0.00     0.031 A 
HETATM   13  C   UNL     1      43.409 -20.470   2.025  1.00  0.00     0.117 A 
HETATM   14  N   UNL     1      43.869 -21.142   3.099  1.00  0.00    -0.273 NA
HETATM   15  C   UNL     1      44.151 -20.408   4.194  1.00  0.00     0.117 A 
HETATM   16  C   UNL     1      43.995 -19.032   4.260  1.00  0.00     0.031 A 
ENDBRANCH   8  11
ENDBRANCH   2   5
BRANCH   1  17
HETATM   17  C   UNL     1      42.748 -10.627   4.795  1.00  0.00     0.161 C 
BRANCH  17  18
HETATM   18  C   UNL     1      41.301 -10.419   5.165  1.00  0.00    -0.038 A 
HETATM   19  C   UNL     1      40.433  -9.748   4.291  1.00  0.00     0.009 A 
HETATM   20  C   UNL     1      39.089  -9.563   4.625  1.00  0.00     0.003 A 
HETATM   21  C   UNL     1      38.598 -10.044   5.839  1.00  0.00     0.036 A 
HETATM   22  C   UNL     1      39.458 -10.708   6.708  1.00  0.00     0.066 A 
HETATM   23  C   UNL     1      40.798 -10.901   6.381  1.00  0.00     0.045 A 
BRANCH  22  24
HETATM   24  O   UNL     1      39.023 -11.191   7.906  1.00  0.00    -0.361 OA
HETATM   25  H   UNL     1      38.412 -10.544   8.295  1.00  0.00     0.217 HD
ENDBRANCH  22  24
ENDBRANCH  17  18
ENDBRANCH   1  17
TORSDOF 5
ENDMDL
MODEL 6
REMARK VINA RESULT:      -7.8      2.423      3.340
REMARK  5 active torsions:
REMARK  status: ('A' for Active; 'I' for Inactive)
REMARK    1  A    between atoms: O_1  and  C_2 
REMARK    2  A    between atoms: C_6  and  C_7 
REMARK    3  A    between atoms: C_7  and  N_8 
REMARK       I    between atoms: N_8  and  C_9 
REMARK    4  A    between atoms: C_9  and  C_11 
REMARK    5  A    between atoms: C_14  and  C_17 
ROOT
HETATM    1  N   UNL     1      43.914 -10.341   7.419  1.00  0.00    -0.353 N 
HETATM    2  C   UNL     1      42.877 -10.869   6.683  1.00  0.00     0.251 C 
HETATM    3  O   UNL     1      41.824 -10.279   6.469  1.00  0.00    -0.268 OA
HETATM    4  H   UNL     1      44.660 -10.945   7.731  1.00  0.00     0.163 HD
ENDROOT
BRANCH   2   5
HETATM    5  C   UNL     1      43.066 -12.257   6.174  1.00  0.00     0.032 A 
HETATM    6  C   UNL     1      42.685 -12.536   4.858  1.00  0.00     0.018 A 
HETATM    7  C   UNL     1      42.821 -13.829   4.341  1.00  0.00     0.013 A 
HETATM    8  C   UNL     1      43.351 -14.870   5.121  1.00  0.00    -0.026 A 
HETATM    9  C   UNL     1      43.753 -14.567   6.434  1.00  0.00     0.013 A 
HETATM   10  C   UNL     1      43.616 -13.276   6.958  1.00  0.00     0.018 A 
BRANCH   8  11
HETATM   11  C   UNL     1      43.478 -16.236   4.580  1.00  0.00    -0.023 A 
HETATM   12  C   UNL     1      44.073 -17.263   5.325  1.00  0.00     0.031 A 
HETATM   13  C   UNL     1      44.179 -18.529   4.769  1.00  0.00     0.117 A 
HETATM   14  N   UNL     1      43.738 -18.845   3.535  1.00  0.00    -0.273 NA
HETATM   15  C   UNL     1      43.167 -17.851   2.826  1.00  0.00     0.117 A 
HETATM   16  C   UNL     1      43.016 -16.556   3.297  1.00  0.00     0.031 A 
ENDBRANCH   8  11
ENDBRANCH   2   5
BRANCH   1  17
HETATM   17  C   UNL     1      43.794  -9.064   8.090  1.00  0.00     0.161 C 
BRANCH  17  18
HETATM   18  C   UNL     1      43.594  -9.256   9.572  1.00  0.00    -0.038 A 
HETATM   19  C   UNL     1      43.220  -8.175  10.385  1.00  0.00     0.009 A 
HETATM   20  C   UNL     1      43.023  -8.351  11.756  1.00  0.00     0.003 A 
HETATM   21  C   UNL     1      43.201  -9.608  12.333  1.00  0.00     0.036 A 
HETATM   22  C   UNL     1      43.574 -10.680  11.529  1.00  0.00     0.066 A 
HETATM   23  C   UNL     1      43.768 -10.517  10.160  1.00  0.00     0.045 A 
BRANCH  22  24
HETATM   24  O   UNL     1      43.762 -11.927  12.050  1.00  0.00    -0.361 OA
HETATM   25  H   UNL     1      43.323 -11.968  12.915  1.00  0.00     0.217 HD
ENDBRANCH  22  24
ENDBRANCH  17  18
ENDBRANCH   1  17
TORSDOF 5
ENDMDL
MODEL 7
REMARK VINA RESULT:      -7.8      4.287      6.548
REMARK  5 active torsions:
REMARK  status: ('A' for Active; 'I' for Inactive)
REMARK    1  A    between atoms: O_1  and  C_2 
REMARK    2  A    between atoms: C_6  and  C_7 
REMARK    3  A    between atoms: C_7  and  N_8 
REMARK       I    between atoms: N_8  and  C_9 
REMARK    4  A    between atoms: C_9  and  C_11 
REMARK    5  A    between atoms: C_14  and  C_17 
ROOT
HETATM    1  N   UNL     1      41.539 -12.390   1.364  1.00  0.00    -0.353 N 
HETATM    2  C   UNL     1      42.463 -12.704   2.336  1.00  0.00     0.251 C 
HETATM    3  O   UNL     1      43.091 -11.866   2.972  1.00  0.00    -0.268 OA
HETATM    4  H   UNL     1      41.210 -13.112   0.740  1.00  0.00     0.163 HD
ENDROOT
BRANCH   2   5
HETATM    5  C   UNL     1      42.719 -14.154   2.564  1.00  0.00     0.032 A 
HETATM    6  C   UNL     1      42.817 -14.609   3.882  1.00  0.00     0.018 A 
HETATM    7  C   UNL     1      43.079 -15.957   4.148  1.00  0.00     0.013 A 
HETATM    8  C   UNL     1      43.237 -16.885   3.106  1.00  0.00    -0.026 A 
HETATM    9  C   UNL     1      43.108 -16.417   1.786  1.00  0.00     0.013 A 
HETATM   10  C   UNL     1      42.850 -15.067   1.513  1.00  0.00     0.018 A 
BRANCH   8  11
HETATM   11  C   UNL     1      43.529 -18.303   3.388  1.00  0.00    -0.023 A 
HETATM   12  C   UNL     1      43.954 -18.721   4.655  1.00  0.00     0.031 A 
HETATM   13  C   UNL     1      44.226 -20.064   4.869  1.00  0.00     0.117 A 
HETATM   14  N   UNL     1      44.106 -21.014   3.919  1.00  0.00    -0.273 NA
HETATM   15  C   UNL     1      43.695 -20.601   2.703  1.00  0.00     0.117 A 
HETATM   16  C   UNL     1      43.400 -19.282   2.395  1.00  0.00     0.031 A 
ENDBRANCH   8  11
ENDBRANCH   2   5
BRANCH   1  17
HETATM   17  C   UNL     1      41.311 -11.024   0.947  1.00  0.00     0.161 C 
BRANCH  17  18
HETATM   18  C   UNL     1      41.160 -10.940  -0.550  1.00  0.00    -0.038 A 
HETATM   19  C   UNL     1      40.939 -12.101  -1.308  1.00  0.00     0.009 A 
HETATM   20  C   UNL     1      40.787 -12.027  -2.695  1.00  0.00     0.003 A 
HETATM   21  C   UNL     1      40.858 -10.793  -3.341  1.00  0.00     0.036 A 
HETATM   22  C   UNL     1      41.079  -9.642  -2.592  1.00  0.00     0.066 A 
HETATM   23  C   UNL     1      41.227  -9.705  -1.209  1.00  0.00     0.045 A 
BRANCH  22  24
HETATM   24  O   UNL     1      41.159  -8.415  -3.182  1.00  0.00    -0.361 OA
HETATM   25  H   UNL     1      41.747  -8.482  -3.952  1.00  0.00     0.217 HD
ENDBRANCH  22  24
ENDBRANCH  17  18
ENDBRANCH   1  17
TORSDOF 5
ENDMDL
MODEL 8
REMARK VINA RESULT:      -7.7      2.641      8.815
REMARK  5 active torsions:
REMARK  status: ('A' for Active; 'I' for Inactive)
REMARK    1  A    between atoms: O_1  and  C_2 
REMARK    2  A    between atoms: C_6  and  C_7 
REMARK    3  A    between atoms: C_7  and  N_8 
REMARK       I    between atoms: N_8  and  C_9 
REMARK    4  A    between atoms: C_9  and  C_11 
REMARK    5  A    between atoms: C_14  and  C_17 
ROOT
HETATM    1  N   UNL     1      42.355 -15.273   3.714  1.00  0.00    -0.353 N 
HETATM    2  C   UNL     1      42.898 -14.045   3.405  1.00  0.00     0.251 C 
HETATM    3  O   UNL     1      43.188 -13.698   2.266  1.00  0.00    -0.268 OA
HETATM    4  H   UNL     1      42.330 -15.576   4.676  1.00  0.00     0.163 HD
ENDROOT
BRANCH   2   5
HETATM    5  C   UNL     1      43.175 -13.136   4.551  1.00  0.00     0.032 A 
HETATM    6  C   UNL     1      43.393 -13.705   5.809  1.00  0.00     0.018 A 
HETATM    7  C   UNL     1      43.635 -12.893   6.922  1.00  0.00     0.013 A 
HETATM    8  C   UNL     1      43.678 -11.494   6.804  1.00  0.00    -0.026 A 
HETATM    9  C   UNL     1      43.483 -10.938   5.527  1.00  0.00     0.013 A 
HETATM   10  C   UNL     1      43.237 -11.746   4.410  1.00  0.00     0.018 A 
BRANCH   8  11
HETATM   11  C   UNL     1      43.917 -10.638   7.981  1.00  0.00    -0.023 A 
HETATM   12  C   UNL     1      42.905  -9.827   8.510  1.00  0.00     0.031 A 
HETATM   13  C   UNL     1      43.182  -9.032   9.612  1.00  0.00     0.117 A 
HETATM   14  N   UNL     1      44.383  -8.987  10.222  1.00  0.00    -0.273 NA
HETATM   15  C   UNL     1      45.350  -9.772   9.706  1.00  0.00     0.117 A 
HETATM   16  C   UNL     1      45.169 -10.599   8.608  1.00  0.00     0.031 A 
ENDBRANCH   8  11
ENDBRANCH   2   5
BRANCH   1  17
HETATM   17  C   UNL     1      42.177 -16.298   2.709  1.00  0.00     0.161 C 
BRANCH  17  18
HETATM   18  C   UNL     1      42.886 -17.567   3.109  1.00  0.00    -0.038 A 
HETATM   19  C   UNL     1      43.473 -17.683   4.379  1.00  0.00     0.009 A 
HETATM   20  C   UNL     1      44.122 -18.861   4.758  1.00  0.00     0.003 A 
HETATM   21  C   UNL     1      44.195 -19.935   3.872  1.00  0.00     0.036 A 
HETATM   22  C   UNL     1      43.615 -19.821   2.612  1.00  0.00     0.066 A 
HETATM   23  C   UNL     1      42.963 -18.653   2.227  1.00  0.00     0.045 A 
BRANCH  22  24
HETATM   24  O   UNL     1      43.666 -20.844   1.712  1.00  0.00    -0.361 OA
HETATM   25  H   UNL     1      44.190 -21.565   2.096  1.00  0.00     0.217 HD
ENDBRANCH  22  24
ENDBRANCH  17  18
ENDBRANCH   1  17
TORSDOF 5
ENDMDL
MODEL 9
REMARK VINA RESULT:      -7.4      5.196      7.323
REMARK  5 active torsions:
REMARK  status: ('A' for Active; 'I' for Inactive)
REMARK    1  A    between atoms: O_1  and  C_2 
REMARK    2  A    between atoms: C_6  and  C_7 
REMARK    3  A    between atoms: C_7  and  N_8 
REMARK       I    between atoms: N_8  and  C_9 
REMARK    4  A    between atoms: C_9  and  C_11 
REMARK    5  A    between atoms: C_14  and  C_17 
ROOT
HETATM    1  N   UNL     1      40.953 -13.329  -1.063  1.00  0.00    -0.353 N 
HETATM    2  C   UNL     1      40.267 -14.362  -0.463  1.00  0.00     0.251 C 
HETATM    3  O   UNL     1      39.265 -14.881  -0.942  1.00  0.00    -0.268 OA
HETATM    4  H   UNL     1      41.637 -12.813  -0.530  1.00  0.00     0.163 HD
ENDROOT
BRANCH   2   5
HETATM    5  C   UNL     1      40.775 -14.814   0.862  1.00  0.00     0.032 A 
HETATM    6  C   UNL     1      41.917 -14.193   1.379  1.00  0.00     0.018 A 
HETATM    7  C   UNL     1      42.446 -14.597   2.609  1.00  0.00     0.013 A 
HETATM    8  C   UNL     1      41.843 -15.621   3.358  1.00  0.00    -0.026 A 
HETATM    9  C   UNL     1      40.681 -16.217   2.837  1.00  0.00     0.013 A 
HETATM   10  C   UNL     1      40.148 -15.819   1.604  1.00  0.00     0.018 A 
BRANCH   8  11
HETATM   11  C   UNL     1      42.412 -16.057   4.647  1.00  0.00    -0.023 A 
HETATM   12  C   UNL     1      41.689 -15.938   5.841  1.00  0.00     0.031 A 
HETATM   13  C   UNL     1      42.271 -16.353   7.029  1.00  0.00     0.117 A 
HETATM   14  N   UNL     1      43.511 -16.874   7.115  1.00  0.00    -0.273 NA
HETATM   15  C   UNL     1      44.199 -16.985   5.960  1.00  0.00     0.117 A 
HETATM   16  C   UNL     1      43.701 -16.598   4.726  1.00  0.00     0.031 A 
ENDBRANCH   8  11
ENDBRANCH   2   5
BRANCH   1  17
HETATM   17  C   UNL     1      40.473 -12.704  -2.276  1.00  0.00     0.161 C 
BRANCH  17  18
HETATM   18  C   UNL     1      40.873 -11.251  -2.322  1.00  0.00    -0.038 A 
HETATM   19  C   UNL     1      40.560 -10.463  -3.441  1.00  0.00     0.009 A 
HETATM   20  C   UNL     1      40.919  -9.114  -3.483  1.00  0.00     0.003 A 
HETATM   21  C   UNL     1      41.599  -8.537  -2.411  1.00  0.00     0.036 A 
HETATM   22  C   UNL     1      41.911  -9.317  -1.302  1.00  0.00     0.066 A 
HETATM   23  C   UNL     1      41.554 -10.661  -1.248  1.00  0.00     0.045 A 
BRANCH  22  24
HETATM   24  O   UNL     1      42.578  -8.796  -0.233  1.00  0.00    -0.361 OA
HETATM   25  H   UNL     1      43.258  -8.186  -0.561  1.00  0.00     0.217 HD
ENDBRANCH  22  24
ENDBRANCH  17  18
ENDBRANCH   1  17
TORSDOF 5
ENDMDL
MODEL 10
REMARK VINA RESULT:      -7.3      2.530      8.918
REMARK  5 active torsions:
REMARK  status: ('A' for Active; 'I' for Inactive)
REMARK    1  A    between atoms: O_1  and  C_2 
REMARK    2  A    between atoms: C_6  and  C_7 
REMARK    3  A    between atoms: C_7  and  N_8 
REMARK       I    between atoms: N_8  and  C_9 
REMARK    4  A    between atoms: C_9  and  C_11 
REMARK    5  A    between atoms: C_14  and  C_17 
ROOT
HETATM    1  N   UNL     1      42.827 -13.552   3.987  1.00  0.00    -0.353 N 
HETATM    2  C   UNL     1      43.406 -12.305   4.063  1.00  0.00     0.251 C 
HETATM    3  O   UNL     1      43.931 -11.740   3.110  1.00  0.00    -0.268 OA
HETATM    4  H   UNL     1      42.599 -14.046   4.838  1.00  0.00     0.163 HD
ENDROOT
BRANCH   2   5
HETATM    5  C   UNL     1      43.418 -11.660   5.406  1.00  0.00     0.032 A 
HETATM    6  C   UNL     1      42.563 -10.575   5.626  1.00  0.00     0.018 A 
HETATM    7  C   UNL     1      42.553  -9.921   6.862  1.00  0.00     0.013 A 
HETATM    8  C   UNL     1      43.386 -10.341   7.912  1.00  0.00    -0.026 A 
HETATM    9  C   UNL     1      44.220 -11.450   7.684  1.00  0.00     0.013 A 
HETATM   10  C   UNL     1      44.238 -12.107   6.446  1.00  0.00     0.018 A 
BRANCH   8  11
HETATM   11  C   UNL     1      43.387  -9.640   9.210  1.00  0.00    -0.023 A 
HETATM   12  C   UNL     1      43.643 -10.322  10.406  1.00  0.00     0.031 A 
HETATM   13  C   UNL     1      43.622  -9.621  11.602  1.00  0.00     0.117 A 
HETATM   14  N   UNL     1      43.368  -8.301  11.694  1.00  0.00    -0.273 NA
HETATM   15  C   UNL     1      43.123  -7.653  10.537  1.00  0.00     0.117 A 
HETATM   16  C   UNL     1      43.122  -8.268   9.294  1.00  0.00     0.031 A 
ENDBRANCH   8  11
ENDBRANCH   2   5
BRANCH   1  17
HETATM   17  C   UNL     1      42.884 -14.342   2.777  1.00  0.00     0.161 C 
BRANCH  17  18
HETATM   18  C   UNL     1      43.186 -15.784   3.095  1.00  0.00    -0.038 A 
HETATM   19  C   UNL     1      43.166 -16.755   2.081  1.00  0.00     0.009 A 
HETATM   20  C   UNL     1      43.457 -18.091   2.369  1.00  0.00     0.003 A 
HETATM   21  C   UNL     1      43.766 -18.474   3.674  1.00  0.00     0.036 A 
HETATM   22  C   UNL     1      43.783 -17.513   4.680  1.00  0.00     0.066 A 
HETATM   23  C   UNL     1      43.500 -16.179   4.403  1.00  0.00     0.045 A 
BRANCH  22  24
HETATM   24  O   UNL     1      44.076 -17.843   5.971  1.00  0.00    -0.361 OA
HETATM   25  H   UNL     1      43.928 -18.795   6.086  1.00  0.00     0.217 HD
ENDBRANCH  22  24
ENDBRANCH  17  18
ENDBRANCH   1  17
TORSDOF 5
ENDMDL
