MODEL 1
REMARK VINA RESULT:      -8.5      0.000      0.000
REMARK  8 active torsions:
REMARK  status: ('A' for Active; 'I' for Inactive)
REMARK    1  A    between atoms: C_2  and  N_3 
REMARK       I    between atoms: N_3  and  C_4 
REMARK    2  A    between atoms: C_4  and  C_5 
REMARK    3  A    between atoms: C_5  and  C_6 
REMARK    4  A    between atoms: C_10  and  C_11 
REMARK    5  A    between atoms: C_11  and  O_12 
REMARK    6  A    between atoms: C_14  and  O_15 
REMARK    7  A    between atoms: C_22  and  N_23 
REMARK       I    between atoms: N_23  and  C_24 
REMARK    8  A    between atoms: C_24  and  C_25 
ROOT
HETATM    1  C   UNL     1      42.426 -14.497   4.071  1.00  0.00     0.056 C 
HETATM    2  C   UNL     1      42.410 -14.369   2.482  1.00  0.00    -0.030 C 
HETATM    3  C   UNL     1      43.869 -14.138   1.965  1.00  0.00     0.016 C 
HETATM    4  C   UNL     1      41.540 -13.142   1.965  1.00  0.00     0.012 C 
HETATM    5  C   UNL     1      39.969 -13.338   1.833  1.00  0.00     0.008 C 
HETATM    6  C   UNL     1      39.512 -12.463   0.623  1.00  0.00     0.020 C 
HETATM    7  C   UNL     1      39.609 -14.814   1.477  1.00  0.00     0.128 C 
HETATM    8  C   UNL     1      40.783 -15.566   0.857  1.00  0.00     0.033 C 
HETATM    9  C   UNL     1      41.921 -15.715   1.862  1.00  0.00     0.013 C 
HETATM   10  C   UNL     1      41.964 -11.795   2.611  1.00  0.00     0.055 C 
HETATM   11  C   UNL     1      42.275 -11.950   4.053  1.00  0.00     0.012 A 
HETATM   12  C   UNL     1      42.531 -13.133   4.715  1.00  0.00     0.056 A 
HETATM   13  N   UNL     1      42.863 -12.985   6.054  1.00  0.00    -0.227 NA
HETATM   14  C   UNL     1      42.790 -11.719   6.374  1.00  0.00     0.174 A 
HETATM   15  S   UNL     1      42.391 -10.630   5.121  1.00  0.00    -0.055 SA
ENDROOT
BRANCH  14  16
HETATM   16  N   UNL     1      42.980 -11.112   7.578  1.00  0.00    -0.300 N 
HETATM   17  C   UNL     1      44.212 -10.968   8.165  1.00  0.00     0.281 C 
HETATM   18  O   UNL     1      45.287 -11.279   7.664  1.00  0.00    -0.265 OA
HETATM   19  H   UNL     1      42.165 -10.780   8.072  1.00  0.00     0.171 HD
BRANCH  17  20
HETATM   20  C   UNL     1      44.118 -10.374   9.488  1.00  0.00     0.142 A 
HETATM   21  O   UNL     1      43.714 -11.149  10.547  1.00  0.00    -0.317 OA
HETATM   22  C   UNL     1      43.727 -10.359  11.650  1.00  0.00     0.143 A 
HETATM   23  C   UNL     1      44.127  -9.084  11.327  1.00  0.00     0.027 A 
HETATM   24  C   UNL     1      44.379  -9.092   9.933  1.00  0.00     0.045 A 
ENDBRANCH  17  20
ENDBRANCH  14  16
BRANCH   1  25
HETATM   25  C   UNL     1      43.515 -15.462   4.584  1.00  0.00     0.114 C 
BRANCH  25  26
HETATM   26  C   UNL     1      43.050 -16.901   4.705  1.00  0.00     0.218 C 
HETATM   27  N   UNL     1      43.863 -17.827   4.106  1.00  0.00    -0.357 N 
HETATM   28  H   UNL     1      44.772 -17.512   3.757  1.00  0.00     0.162 HD
HETATM   29  O   UNL     1      41.988 -17.173   5.263  1.00  0.00    -0.274 OA
BRANCH  27  30
HETATM   30  C   UNL     1      43.542 -19.235   3.934  1.00  0.00     0.076 C 
HETATM   31  C   UNL     1      44.289 -20.109   4.941  1.00  0.00     0.032 C 
HETATM   32  C   UNL     1      43.751 -19.723   2.503  1.00  0.00     0.032 C 
ENDBRANCH  27  30
ENDBRANCH  25  26
ENDBRANCH   1  25
BRANCH   5  33
HETATM   33  C   UNL     1      39.131 -12.832   3.037  1.00  0.00     0.176 C 
BRANCH  33  34
HETATM   34  O   UNL     1      39.343 -13.583   4.217  1.00  0.00    -0.400 OA
HETATM   35  H   UNL     1      38.589 -14.211   4.260  1.00  0.00     0.209 HD
ENDBRANCH  33  34
ENDBRANCH   5  33
BRANCH   7  36
HETATM   36  O   UNL     1      39.167 -15.533   2.634  1.00  0.00    -0.395 OA
HETATM   37  H   UNL     1      38.634 -14.919   3.175  1.00  0.00     0.210 HD
ENDBRANCH   7  36
TORSDOF 8
ENDMDL
MODEL 2
REMARK VINA RESULT:      -8.3      2.654      7.357
REMARK  8 active torsions:
REMARK  status: ('A' for Active; 'I' for Inactive)
REMARK    1  A    between atoms: C_2  and  N_3 
REMARK       I    between atoms: N_3  and  C_4 
REMARK    2  A    between atoms: C_4  and  C_5 
REMARK    3  A    between atoms: C_5  and  C_6 
REMARK    4  A    between atoms: C_10  and  C_11 
REMARK    5  A    between atoms: C_11  and  O_12 
REMARK    6  A    between atoms: C_14  and  O_15 
REMARK    7  A    between atoms: C_22  and  N_23 
REMARK       I    between atoms: N_23  and  C_24 
REMARK    8  A    between atoms: C_24  and  C_25 
ROOT
HETATM    1  C   UNL     1      41.577 -12.104   4.314  1.00  0.00     0.056 C 
HETATM    2  C   UNL     1      40.269 -11.232   4.046  1.00  0.00    -0.030 C 
HETATM    3  C   UNL     1      39.263 -11.427   5.229  1.00  0.00     0.016 C 
HETATM    4  C   UNL     1      39.502 -11.653   2.717  1.00  0.00     0.012 C 
HETATM    5  C   UNL     1      40.018 -11.065   1.334  1.00  0.00     0.008 C 
HETATM    6  C   UNL     1      38.758 -10.891   0.427  1.00  0.00     0.020 C 
HETATM    7  C   UNL     1      40.636  -9.643   1.517  1.00  0.00     0.128 C 
HETATM    8  C   UNL     1      40.160  -8.963   2.797  1.00  0.00     0.033 C 
HETATM    9  C   UNL     1      40.653  -9.720   4.027  1.00  0.00     0.013 C 
HETATM   10  C   UNL     1      39.159 -13.167   2.679  1.00  0.00     0.055 C 
HETATM   11  C   UNL     1      40.269 -13.996   3.210  1.00  0.00     0.012 A 
HETATM   12  C   UNL     1      41.328 -13.556   3.977  1.00  0.00     0.056 A 
HETATM   13  N   UNL     1      42.191 -14.558   4.399  1.00  0.00    -0.227 NA
HETATM   14  C   UNL     1      41.798 -15.700   3.894  1.00  0.00     0.174 A 
HETATM   15  S   UNL     1      40.373 -15.675   2.954  1.00  0.00    -0.055 SA
ENDROOT
BRANCH  14  16
HETATM   16  N   UNL     1      42.359 -16.936   3.994  1.00  0.00    -0.300 N 
HETATM   17  C   UNL     1      43.170 -17.477   3.028  1.00  0.00     0.281 C 
HETATM   18  O   UNL     1      43.557 -16.908   2.014  1.00  0.00    -0.265 OA
HETATM   19  H   UNL     1      42.140 -17.488   4.810  1.00  0.00     0.171 HD
BRANCH  17  20
HETATM   20  C   UNL     1      43.553 -18.843   3.344  1.00  0.00     0.142 A 
HETATM   21  O   UNL     1      44.006 -19.142   4.606  1.00  0.00    -0.317 OA
HETATM   22  C   UNL     1      44.276 -20.471   4.631  1.00  0.00     0.143 A 
HETATM   23  C   UNL     1      44.013 -21.041   3.408  1.00  0.00     0.027 A 
HETATM   24  C   UNL     1      43.546 -19.994   2.577  1.00  0.00     0.045 A 
ENDBRANCH  17  20
ENDBRANCH  14  16
BRANCH   1  25
HETATM   25  C   UNL     1      42.130 -11.929   5.744  1.00  0.00     0.114 C 
BRANCH  25  26
HETATM   26  C   UNL     1      43.496 -11.274   5.795  1.00  0.00     0.218 C 
HETATM   27  N   UNL     1      43.860 -10.784   7.022  1.00  0.00    -0.357 N 
HETATM   28  H   UNL     1      43.270 -11.016   7.825  1.00  0.00     0.162 HD
HETATM   29  O   UNL     1      44.179 -11.163   4.778  1.00  0.00    -0.274 OA
BRANCH  27  30
HETATM   30  C   UNL     1      45.034  -9.964   7.281  1.00  0.00     0.076 C 
HETATM   31  C   UNL     1      46.283 -10.820   7.487  1.00  0.00     0.032 C 
HETATM   32  C   UNL     1      44.831  -8.980   8.430  1.00  0.00     0.032 C 
ENDBRANCH  27  30
ENDBRANCH  25  26
ENDBRANCH   1  25
BRANCH   5  33
HETATM   33  C   UNL     1      40.970 -11.989   0.530  1.00  0.00     0.176 C 
BRANCH  33  34
HETATM   34  O   UNL     1      41.282 -11.485  -0.754  1.00  0.00    -0.400 OA
HETATM   35  H   UNL     1      41.798 -12.199  -1.191  1.00  0.00     0.209 HD
ENDBRANCH  33  34
ENDBRANCH   5  33
BRANCH   7  36
HETATM   36  O   UNL     1      42.066  -9.698   1.533  1.00  0.00    -0.395 OA
HETATM   37  H   UNL     1      42.378  -9.032   2.174  1.00  0.00     0.210 HD
ENDBRANCH   7  36
TORSDOF 8
ENDMDL
MODEL 3
REMARK VINA RESULT:      -7.9      3.064      7.635
REMARK  8 active torsions:
REMARK  status: ('A' for Active; 'I' for Inactive)
REMARK    1  A    between atoms: C_2  and  N_3 
REMARK       I    between atoms: N_3  and  C_4 
REMARK    2  A    between atoms: C_4  and  C_5 
REMARK    3  A    between atoms: C_5  and  C_6 
REMARK    4  A    between atoms: C_10  and  C_11 
REMARK    5  A    between atoms: C_11  and  O_12 
REMARK    6  A    between atoms: C_14  and  O_15 
REMARK    7  A    between atoms: C_22  and  N_23 
REMARK       I    between atoms: N_23  and  C_24 
REMARK    8  A    between atoms: C_24  and  C_25 
ROOT
HETATM    1  C   UNL     1      41.845 -14.601   4.598  1.00  0.00     0.056 C 
HETATM    2  C   UNL     1      41.681 -13.888   6.014  1.00  0.00    -0.030 C 
HETATM    3  C   UNL     1      40.454 -14.503   6.766  1.00  0.00     0.016 C 
HETATM    4  C   UNL     1      41.410 -12.324   5.896  1.00  0.00     0.012 C 
HETATM    5  C   UNL     1      42.657 -11.359   5.701  1.00  0.00     0.008 C 
HETATM    6  C   UNL     1      42.302 -10.023   6.429  1.00  0.00     0.020 C 
HETATM    7  C   UNL     1      43.929 -11.926   6.406  1.00  0.00     0.128 C 
HETATM    8  C   UNL     1      43.588 -12.941   7.493  1.00  0.00     0.033 C 
HETATM    9  C   UNL     1      42.938 -14.183   6.889  1.00  0.00     0.013 C 
HETATM   10  C   UNL     1      40.199 -11.996   4.980  1.00  0.00     0.055 C 
HETATM   11  C   UNL     1      40.165 -12.865   3.779  1.00  0.00     0.012 A 
HETATM   12  C   UNL     1      40.850 -14.050   3.603  1.00  0.00     0.056 A 
HETATM   13  N   UNL     1      40.582 -14.699   2.406  1.00  0.00    -0.227 NA
HETATM   14  C   UNL     1      39.763 -13.966   1.697  1.00  0.00     0.174 A 
HETATM   15  S   UNL     1      39.215 -12.515   2.411  1.00  0.00    -0.055 SA
ENDROOT
BRANCH  14  16
HETATM   16  N   UNL     1      39.268 -14.175   0.446  1.00  0.00    -0.300 N 
HETATM   17  C   UNL     1      39.782 -13.578  -0.678  1.00  0.00     0.281 C 
HETATM   18  O   UNL     1      40.778 -12.865  -0.722  1.00  0.00    -0.265 OA
HETATM   19  H   UNL     1      38.464 -14.777   0.352  1.00  0.00     0.171 HD
BRANCH  17  20
HETATM   20  C   UNL     1      39.006 -13.897  -1.865  1.00  0.00     0.142 A 
HETATM   21  O   UNL     1      37.844 -13.209  -2.115  1.00  0.00    -0.317 OA
HETATM   22  C   UNL     1      37.335 -13.691  -3.277  1.00  0.00     0.143 A 
HETATM   23  C   UNL     1      38.141 -14.683  -3.783  1.00  0.00     0.027 A 
HETATM   24  C   UNL     1      39.218 -14.817  -2.875  1.00  0.00     0.045 A 
ENDBRANCH  17  20
ENDBRANCH  14  16
BRANCH   1  25
HETATM   25  C   UNL     1      41.777 -16.140   4.691  1.00  0.00     0.114 C 
BRANCH  25  26
HETATM   26  C   UNL     1      43.075 -16.834   4.326  1.00  0.00     0.218 C 
HETATM   27  N   UNL     1      42.931 -18.034   3.680  1.00  0.00    -0.357 N 
HETATM   28  H   UNL     1      41.994 -18.302   3.369  1.00  0.00     0.162 HD
HETATM   29  O   UNL     1      44.159 -16.349   4.647  1.00  0.00    -0.274 OA
BRANCH  27  30
HETATM   30  C   UNL     1      44.013 -18.962   3.389  1.00  0.00     0.076 C 
HETATM   31  C   UNL     1      43.682 -19.852   2.192  1.00  0.00     0.032 C 
HETATM   32  C   UNL     1      44.434 -19.786   4.603  1.00  0.00     0.032 C 
ENDBRANCH  27  30
ENDBRANCH  25  26
ENDBRANCH   1  25
BRANCH   5  33
HETATM   33  C   UNL     1      42.963 -10.952   4.236  1.00  0.00     0.176 C 
BRANCH  33  34
HETATM   34  O   UNL     1      42.429  -9.690   3.885  1.00  0.00    -0.400 OA
HETATM   35  H   UNL     1      41.812  -9.871   3.142  1.00  0.00     0.209 HD
ENDBRANCH  33  34
ENDBRANCH   5  33
BRANCH   7  36
HETATM   36  O   UNL     1      44.810 -12.546   5.462  1.00  0.00    -0.395 OA
HETATM   37  H   UNL     1      44.834 -11.980   4.668  1.00  0.00     0.210 HD
ENDBRANCH   7  36
TORSDOF 8
ENDMDL
MODEL 4
REMARK VINA RESULT:      -7.6      3.313      7.553
REMARK  8 active torsions:
REMARK  status: ('A' for Active; 'I' for Inactive)
REMARK    1  A    between atoms: C_2  and  N_3 
REMARK       I    between atoms: N_3  and  C_4 
REMARK    2  A    between atoms: C_4  and  C_5 
REMARK    3  A    between atoms: C_5  and  C_6 
REMARK    4  A    between atoms: C_10  and  C_11 
REMARK    5  A    between atoms: C_11  and  O_12 
REMARK    6  A    between atoms: C_14  and  O_15 
REMARK    7  A    between atoms: C_22  and  N_23 
REMARK       I    between atoms: N_23  and  C_24 
REMARK    8  A    between atoms: C_24  and  C_25 
ROOT
HETATM    1  C   UNL     1      40.108 -11.372   1.642  1.00  0.00     0.056 C 
HETATM    2  C   UNL     1      38.971 -10.817   0.673  1.00  0.00    -0.030 C 
HETATM    3  C   UNL     1      37.566 -11.138   1.282  1.00  0.00     0.016 C 
HETATM    4  C   UNL     1      39.006 -11.481  -0.773  1.00  0.00     0.012 C 
HETATM    5  C   UNL     1      40.023 -10.895  -1.844  1.00  0.00     0.008 C 
HETATM    6  C   UNL     1      39.339 -11.054  -3.239  1.00  0.00     0.020 C 
HETATM    7  C   UNL     1      40.251  -9.365  -1.631  1.00  0.00     0.128 C 
HETATM    8  C   UNL     1      39.124  -8.714  -0.835  1.00  0.00     0.033 C 
HETATM    9  C   UNL     1      39.079  -9.263   0.588  1.00  0.00     0.013 C 
HETATM   10  C   UNL     1      38.961 -13.033  -0.719  1.00  0.00     0.055 C 
HETATM   11  C   UNL     1      39.795 -13.569   0.384  1.00  0.00     0.012 A 
HETATM   12  C   UNL     1      40.277 -12.864   1.468  1.00  0.00     0.056 A 
HETATM   13  N   UNL     1      40.976 -13.629   2.390  1.00  0.00    -0.227 NA
HETATM   14  C   UNL     1      41.053 -14.860   1.953  1.00  0.00     0.174 A 
HETATM   15  S   UNL     1      40.265 -15.202   0.478  1.00  0.00    -0.055 SA
ENDROOT
BRANCH  14  16
HETATM   16  N   UNL     1      41.681 -15.939   2.495  1.00  0.00    -0.300 N 
HETATM   17  C   UNL     1      42.973 -16.290   2.195  1.00  0.00     0.281 C 
HETATM   18  O   UNL     1      43.744 -15.654   1.486  1.00  0.00    -0.265 OA
HETATM   19  H   UNL     1      41.152 -16.523   3.127  1.00  0.00     0.171 HD
BRANCH  17  20
HETATM   20  C   UNL     1      43.360 -17.536   2.836  1.00  0.00     0.142 A 
HETATM   21  O   UNL     1      43.221 -18.718   2.151  1.00  0.00    -0.317 OA
HETATM   22  C   UNL     1      43.663 -19.709   2.966  1.00  0.00     0.143 A 
HETATM   23  C   UNL     1      44.082 -19.194   4.169  1.00  0.00     0.027 A 
HETATM   24  C   UNL     1      43.888 -17.793   4.087  1.00  0.00     0.045 A 
ENDBRANCH  17  20
ENDBRANCH  14  16
BRANCH   1  25
HETATM   25  C   UNL     1      39.877 -10.986   3.119  1.00  0.00     0.114 C 
BRANCH  25  26
HETATM   26  C   UNL     1      41.070 -10.313   3.769  1.00  0.00     0.218 C 
HETATM   27  N   UNL     1      41.869 -11.140   4.513  1.00  0.00    -0.357 N 
HETATM   28  H   UNL     1      41.697 -12.147   4.462  1.00  0.00     0.162 HD
HETATM   29  O   UNL     1      41.246  -9.101   3.656  1.00  0.00    -0.274 OA
BRANCH  27  30
HETATM   30  C   UNL     1      42.961 -10.701   5.369  1.00  0.00     0.076 C 
HETATM   31  C   UNL     1      44.133 -11.680   5.332  1.00  0.00     0.032 C 
HETATM   32  C   UNL     1      42.516 -10.411   6.800  1.00  0.00     0.032 C 
ENDBRANCH  27  30
ENDBRANCH  25  26
ENDBRANCH   1  25
BRANCH   5  33
HETATM   33  C   UNL     1      41.372 -11.650  -1.966  1.00  0.00     0.176 C 
BRANCH  33  34
HETATM   34  O   UNL     1      41.469 -12.430  -3.142  1.00  0.00    -0.400 OA
HETATM   35  H   UNL     1      40.634 -12.947  -3.176  1.00  0.00     0.209 HD
ENDBRANCH  33  34
ENDBRANCH   5  33
BRANCH   7  36
HETATM   36  O   UNL     1      41.489  -9.115  -0.957  1.00  0.00    -0.395 OA
HETATM   37  H   UNL     1      41.454  -9.576  -0.098  1.00  0.00     0.210 HD
ENDBRANCH   7  36
TORSDOF 8
ENDMDL
MODEL 5
REMARK VINA RESULT:      -7.4      3.266      7.671
REMARK  8 active torsions:
REMARK  status: ('A' for Active; 'I' for Inactive)
REMARK    1  A    between atoms: C_2  and  N_3 
REMARK       I    between atoms: N_3  and  C_4 
REMARK    2  A    between atoms: C_4  and  C_5 
REMARK    3  A    between atoms: C_5  and  C_6 
REMARK    4  A    between atoms: C_10  and  C_11 
REMARK    5  A    between atoms: C_11  and  O_12 
REMARK    6  A    between atoms: C_14  and  O_15 
REMARK    7  A    between atoms: C_22  and  N_23 
REMARK       I    between atoms: N_23  and  C_24 
REMARK    8  A    between atoms: C_24  and  C_25 
ROOT
HETATM    1  C   UNL     1      41.270 -13.720   4.005  1.00  0.00     0.056 C 
HETATM    2  C   UNL     1      41.369 -13.369   5.557  1.00  0.00    -0.030 C 
HETATM    3  C   UNL     1      40.255 -14.141   6.337  1.00  0.00     0.016 C 
HETATM    4  C   UNL     1      41.153 -11.822   5.860  1.00  0.00     0.012 C 
HETATM    5  C   UNL     1      42.394 -10.843   5.692  1.00  0.00     0.008 C 
HETATM    6  C   UNL     1      42.223  -9.721   6.765  1.00  0.00     0.020 C 
HETATM    7  C   UNL     1      43.738 -11.570   6.018  1.00  0.00     0.128 C 
HETATM    8  C   UNL     1      43.532 -12.815   6.875  1.00  0.00     0.033 C 
HETATM    9  C   UNL     1      42.738 -13.872   6.112  1.00  0.00     0.013 C 
HETATM   10  C   UNL     1      39.826 -11.276   5.266  1.00  0.00     0.055 C 
HETATM   11  C   UNL     1      39.558 -11.830   3.917  1.00  0.00     0.012 A 
HETATM   12  C   UNL     1      40.151 -12.941   3.352  1.00  0.00     0.056 A 
HETATM   13  N   UNL     1      39.664 -13.281   2.098  1.00  0.00    -0.227 NA
HETATM   14  C   UNL     1      38.775 -12.395   1.731  1.00  0.00     0.174 A 
HETATM   15  S   UNL     1      38.416 -11.156   2.850  1.00  0.00    -0.055 SA
ENDROOT
BRANCH  14  16
HETATM   16  N   UNL     1      38.074 -12.293   0.568  1.00  0.00    -0.300 N 
HETATM   17  C   UNL     1      38.612 -11.809  -0.597  1.00  0.00     0.281 C 
HETATM   18  O   UNL     1      39.783 -11.491  -0.770  1.00  0.00    -0.265 OA
HETATM   19  H   UNL     1      37.101 -12.563   0.579  1.00  0.00     0.171 HD
BRANCH  17  20
HETATM   20  C   UNL     1      37.621 -11.718  -1.657  1.00  0.00     0.142 A 
HETATM   21  O   UNL     1      37.251 -12.856  -2.332  1.00  0.00    -0.317 OA
HETATM   22  C   UNL     1      36.316 -12.493  -3.245  1.00  0.00     0.143 A 
HETATM   23  C   UNL     1      36.075 -11.142  -3.181  1.00  0.00     0.027 A 
HETATM   24  C   UNL     1      36.916 -10.640  -2.157  1.00  0.00     0.045 A 
ENDBRANCH  17  20
ENDBRANCH  14  16
BRANCH   1  25
HETATM   25  C   UNL     1      41.148 -15.236   3.741  1.00  0.00     0.114 C 
BRANCH  25  26
HETATM   26  C   UNL     1      42.424 -15.871   3.224  1.00  0.00     0.218 C 
HETATM   27  N   UNL     1      42.466 -17.238   3.302  1.00  0.00    -0.357 N 
HETATM   28  H   UNL     1      41.606 -17.731   3.560  1.00  0.00     0.162 HD
HETATM   29  O   UNL     1      43.352 -15.175   2.816  1.00  0.00    -0.274 OA
BRANCH  27  30
HETATM   30  C   UNL     1      43.639 -18.056   3.037  1.00  0.00     0.076 C 
HETATM   31  C   UNL     1      43.293 -19.277   2.186  1.00  0.00     0.032 C 
HETATM   32  C   UNL     1      44.390 -18.450   4.306  1.00  0.00     0.032 C 
ENDBRANCH  27  30
ENDBRANCH  25  26
ENDBRANCH   1  25
BRANCH   5  33
HETATM   33  C   UNL     1      42.477 -10.097   4.335  1.00  0.00     0.176 C 
BRANCH  33  34
HETATM   34  O   UNL     1      41.950  -8.785   4.389  1.00  0.00    -0.400 OA
HETATM   35  H   UNL     1      41.004  -8.899   4.630  1.00  0.00     0.209 HD
ENDBRANCH  33  34
ENDBRANCH   5  33
BRANCH   7  36
HETATM   36  O   UNL     1      44.425 -11.948   4.820  1.00  0.00    -0.395 OA
HETATM   37  H   UNL     1      45.378 -11.802   4.970  1.00  0.00     0.210 HD
ENDBRANCH   7  36
TORSDOF 8
ENDMDL
MODEL 6
REMARK VINA RESULT:      -7.4      3.191      7.430
REMARK  8 active torsions:
REMARK  status: ('A' for Active; 'I' for Inactive)
REMARK    1  A    between atoms: C_2  and  N_3 
REMARK       I    between atoms: N_3  and  C_4 
REMARK    2  A    between atoms: C_4  and  C_5 
REMARK    3  A    between atoms: C_5  and  C_6 
REMARK    4  A    between atoms: C_10  and  C_11 
REMARK    5  A    between atoms: C_11  and  O_12 
REMARK    6  A    between atoms: C_14  and  O_15 
REMARK    7  A    between atoms: C_22  and  N_23 
REMARK       I    between atoms: N_23  and  C_24 
REMARK    8  A    between atoms: C_24  and  C_25 
ROOT
HETATM    1  C   UNL     1      40.810 -10.528   4.957  1.00  0.00     0.056 C 
HETATM    2  C   UNL     1      39.460  -9.710   4.727  1.00  0.00    -0.030 C 
HETATM    3  C   UNL     1      38.324 -10.325   5.610  1.00  0.00     0.016 C 
HETATM    4  C   UNL     1      38.950  -9.761   3.221  1.00  0.00     0.012 C 
HETATM    5  C   UNL     1      39.588  -8.748   2.177  1.00  0.00     0.008 C 
HETATM    6  C   UNL     1      38.462  -8.396   1.154  1.00  0.00     0.020 C 
HETATM    7  C   UNL     1      40.000  -7.408   2.865  1.00  0.00     0.128 C 
HETATM    8  C   UNL     1      39.265  -7.183   4.184  1.00  0.00     0.033 C 
HETATM    9  C   UNL     1      39.661  -8.240   5.211  1.00  0.00     0.013 C 
HETATM   10  C   UNL     1      38.799 -11.213   2.690  1.00  0.00     0.055 C 
HETATM   11  C   UNL     1      39.910 -12.084   3.145  1.00  0.00     0.012 A 
HETATM   12  C   UNL     1      40.787 -11.824   4.179  1.00  0.00     0.056 A 
HETATM   13  N   UNL     1      41.691 -12.844   4.438  1.00  0.00    -0.227 NA
HETATM   14  C   UNL     1      41.515 -13.803   3.567  1.00  0.00     0.174 A 
HETATM   15  S   UNL     1      40.249 -13.595   2.440  1.00  0.00    -0.055 SA
ENDROOT
BRANCH  14  16
HETATM   16  N   UNL     1      42.198 -14.969   3.404  1.00  0.00    -0.300 N 
HETATM   17  C   UNL     1      41.854 -16.140   4.031  1.00  0.00     0.281 C 
HETATM   18  O   UNL     1      40.867 -16.314   4.736  1.00  0.00    -0.265 OA
HETATM   19  H   UNL     1      43.016 -14.957   2.812  1.00  0.00     0.171 HD
BRANCH  17  20
HETATM   20  C   UNL     1      42.807 -17.203   3.758  1.00  0.00     0.142 A 
HETATM   21  O   UNL     1      43.566 -17.708   4.786  1.00  0.00    -0.317 OA
HETATM   22  C   UNL     1      44.350 -18.684   4.263  1.00  0.00     0.143 A 
HETATM   23  C   UNL     1      44.119 -18.820   2.915  1.00  0.00     0.027 A 
HETATM   24  C   UNL     1      43.125 -17.866   2.587  1.00  0.00     0.045 A 
ENDBRANCH  17  20
ENDBRANCH  14  16
BRANCH   1  25
HETATM   25  C   UNL     1      41.124 -10.757   6.450  1.00  0.00     0.114 C 
BRANCH  25  26
HETATM   26  C   UNL     1      42.365 -10.031   6.932  1.00  0.00     0.218 C 
HETATM   27  N   UNL     1      43.503 -10.794   6.981  1.00  0.00    -0.357 N 
HETATM   28  H   UNL     1      43.472 -11.728   6.564  1.00  0.00     0.162 HD
HETATM   29  O   UNL     1      42.306  -8.856   7.292  1.00  0.00    -0.274 OA
BRANCH  27  30
HETATM   30  C   UNL     1      44.765 -10.377   7.570  1.00  0.00     0.076 C 
HETATM   31  C   UNL     1      45.948 -11.117   6.947  1.00  0.00     0.032 C 
HETATM   32  C   UNL     1      44.775 -10.482   9.093  1.00  0.00     0.032 C 
ENDBRANCH  27  30
ENDBRANCH  25  26
ENDBRANCH   1  25
BRANCH   5  33
HETATM   33  C   UNL     1      40.750  -9.316   1.320  1.00  0.00     0.176 C 
BRANCH  33  34
HETATM   34  O   UNL     1      41.436  -8.322   0.584  1.00  0.00    -0.400 OA
HETATM   35  H   UNL     1      42.366  -8.368   0.897  1.00  0.00     0.209 HD
ENDBRANCH  33  34
ENDBRANCH   5  33
BRANCH   7  36
HETATM   36  O   UNL     1      41.409  -7.365   3.114  1.00  0.00    -0.395 OA
HETATM   37  H   UNL     1      41.859  -7.338   2.249  1.00  0.00     0.210 HD
ENDBRANCH   7  36
TORSDOF 8
ENDMDL
MODEL 7
REMARK VINA RESULT:      -7.4     16.800     20.137
REMARK  8 active torsions:
REMARK  status: ('A' for Active; 'I' for Inactive)
REMARK    1  A    between atoms: C_2  and  N_3 
REMARK       I    between atoms: N_3  and  C_4 
REMARK    2  A    between atoms: C_4  and  C_5 
REMARK    3  A    between atoms: C_5  and  C_6 
REMARK    4  A    between atoms: C_10  and  C_11 
REMARK    5  A    between atoms: C_11  and  O_12 
REMARK    6  A    between atoms: C_14  and  O_15 
REMARK    7  A    between atoms: C_22  and  N_23 
REMARK       I    between atoms: N_23  and  C_24 
REMARK    8  A    between atoms: C_24  and  C_25 
ROOT
HETATM    1  C   UNL     1      46.667 -31.392   0.236  1.00  0.00     0.056 C 
HETATM    2  C   UNL     1      45.173 -31.517  -0.309  1.00  0.00    -0.030 C 
HETATM    3  C   UNL     1      44.713 -33.010  -0.225  1.00  0.00     0.016 C 
HETATM    4  C   UNL     1      45.027 -31.076  -1.831  1.00  0.00     0.012 C 
HETATM    5  C   UNL     1      44.876 -29.527  -2.153  1.00  0.00     0.008 C 
HETATM    6  C   UNL     1      43.960 -29.423  -3.413  1.00  0.00     0.020 C 
HETATM    7  C   UNL     1      44.137 -28.777  -1.000  1.00  0.00     0.128 C 
HETATM    8  C   UNL     1      43.313 -29.720  -0.128  1.00  0.00     0.033 C 
HETATM    9  C   UNL     1      44.219 -30.699   0.615  1.00  0.00     0.013 C 
HETATM   10  C   UNL     1      46.009 -31.830  -2.768  1.00  0.00     0.055 C 
HETATM   11  C   UNL     1      47.347 -31.990  -2.149  1.00  0.00     0.012 A 
HETATM   12  C   UNL     1      47.656 -31.847  -0.812  1.00  0.00     0.056 A 
HETATM   13  N   UNL     1      48.979 -32.122  -0.493  1.00  0.00    -0.227 NA
HETATM   14  C   UNL     1      49.634 -32.400  -1.590  1.00  0.00     0.174 A 
HETATM   15  S   UNL     1      48.733 -32.415  -3.041  1.00  0.00    -0.055 SA
ENDROOT
BRANCH  14  16
HETATM   16  N   UNL     1      50.954 -32.680  -1.770  1.00  0.00    -0.300 N 
HETATM   17  C   UNL     1      51.909 -31.717  -1.978  1.00  0.00     0.281 C 
HETATM   18  O   UNL     1      51.725 -30.505  -1.947  1.00  0.00    -0.265 OA
HETATM   19  H   UNL     1      51.232 -33.651  -1.778  1.00  0.00     0.171 HD
BRANCH  17  20
HETATM   20  C   UNL     1      53.217 -32.295  -2.236  1.00  0.00     0.142 A 
HETATM   21  O   UNL     1      53.655 -32.420  -3.532  1.00  0.00    -0.317 OA
HETATM   22  C   UNL     1      54.894 -32.970  -3.485  1.00  0.00     0.143 A 
HETATM   23  C   UNL     1      55.268 -33.210  -2.185  1.00  0.00     0.027 A 
HETATM   24  C   UNL     1      54.188 -32.776  -1.378  1.00  0.00     0.045 A 
ENDBRANCH  17  20
ENDBRANCH  14  16
BRANCH   1  25
HETATM   25  C   UNL     1      46.876 -32.118   1.581  1.00  0.00     0.114 C 
BRANCH  25  26
HETATM   26  C   UNL     1      47.274 -31.197   2.718  1.00  0.00     0.218 C 
HETATM   27  N   UNL     1      48.594 -30.831   2.735  1.00  0.00    -0.357 N 
HETATM   28  H   UNL     1      49.170 -31.077   1.925  1.00  0.00     0.162 HD
HETATM   29  O   UNL     1      46.455 -30.864   3.574  1.00  0.00    -0.274 OA
BRANCH  27  30
HETATM   30  C   UNL     1      49.248 -30.106   3.813  1.00  0.00     0.076 C 
HETATM   31  C   UNL     1      49.019 -28.600   3.698  1.00  0.00     0.032 C 
HETATM   32  C   UNL     1      50.732 -30.441   3.941  1.00  0.00     0.032 C 
ENDBRANCH  27  30
ENDBRANCH  25  26
ENDBRANCH   1  25
BRANCH   5  33
HETATM   33  C   UNL     1      46.187 -28.797  -2.545  1.00  0.00     0.176 C 
BRANCH  33  34
HETATM   34  O   UNL     1      45.963 -27.582  -3.233  1.00  0.00    -0.400 OA
HETATM   35  H   UNL     1      44.986 -27.479  -3.259  1.00  0.00     0.209 HD
ENDBRANCH  33  34
ENDBRANCH   5  33
BRANCH   7  36
HETATM   36  O   UNL     1      45.062 -28.072  -0.165  1.00  0.00    -0.395 OA
HETATM   37  H   UNL     1      45.920 -28.052  -0.630  1.00  0.00     0.210 HD
ENDBRANCH   7  36
TORSDOF 8
ENDMDL
MODEL 8
REMARK VINA RESULT:      -7.3      4.696      7.590
REMARK  8 active torsions:
REMARK  status: ('A' for Active; 'I' for Inactive)
REMARK    1  A    between atoms: C_2  and  N_3 
REMARK       I    between atoms: N_3  and  C_4 
REMARK    2  A    between atoms: C_4  and  C_5 
REMARK    3  A    between atoms: C_5  and  C_6 
REMARK    4  A    between atoms: C_10  and  C_11 
REMARK    5  A    between atoms: C_11  and  O_12 
REMARK    6  A    between atoms: C_14  and  O_15 
REMARK    7  A    between atoms: C_22  and  N_23 
REMARK       I    between atoms: N_23  and  C_24 
REMARK    8  A    between atoms: C_24  and  C_25 
ROOT
HETATM    1  C   UNL     1      40.594 -11.455  -0.356  1.00  0.00     0.056 C 
HETATM    2  C   UNL     1      40.392  -9.900  -0.068  1.00  0.00    -0.030 C 
HETATM    3  C   UNL     1      41.753  -9.154  -0.262  1.00  0.00     0.016 C 
HETATM    4  C   UNL     1      39.913  -9.601   1.420  1.00  0.00     0.012 C 
HETATM    5  C   UNL     1      38.364  -9.731   1.751  1.00  0.00     0.008 C 
HETATM    6  C   UNL     1      38.053  -8.661   2.846  1.00  0.00     0.020 C 
HETATM    7  C   UNL     1      37.487  -9.368   0.511  1.00  0.00     0.128 C 
HETATM    8  C   UNL     1      38.243  -8.519  -0.508  1.00  0.00     0.033 C 
HETATM    9  C   UNL     1      39.400  -9.307  -1.115  1.00  0.00     0.013 C 
HETATM   10  C   UNL     1      40.848 -10.232   2.487  1.00  0.00     0.055 C 
HETATM   11  C   UNL     1      41.296 -11.590   2.093  1.00  0.00     0.012 A 
HETATM   12  C   UNL     1      41.238 -12.139   0.828  1.00  0.00     0.056 A 
HETATM   13  N   UNL     1      41.791 -13.407   0.723  1.00  0.00    -0.227 NA
HETATM   14  C   UNL     1      42.190 -13.798   1.907  1.00  0.00     0.174 A 
HETATM   15  S   UNL     1      41.997 -12.687   3.189  1.00  0.00    -0.055 SA
ENDROOT
BRANCH  14  16
HETATM   16  N   UNL     1      42.742 -14.980   2.293  1.00  0.00    -0.300 N 
HETATM   17  C   UNL     1      42.040 -16.158   2.355  1.00  0.00     0.281 C 
HETATM   18  O   UNL     1      40.878 -16.320   2.002  1.00  0.00    -0.265 OA
HETATM   19  H   UNL     1      43.712 -14.977   2.575  1.00  0.00     0.171 HD
BRANCH  17  20
HETATM   20  C   UNL     1      42.845 -17.243   2.891  1.00  0.00     0.142 A 
HETATM   21  O   UNL     1      42.989 -18.398   2.162  1.00  0.00    -0.317 OA
HETATM   22  C   UNL     1      43.789 -19.228   2.878  1.00  0.00     0.143 A 
HETATM   23  C   UNL     1      44.164 -18.635   4.060  1.00  0.00     0.027 A 
HETATM   24  C   UNL     1      43.556 -17.356   4.071  1.00  0.00     0.045 A 
ENDBRANCH  17  20
ENDBRANCH  14  16
BRANCH   1  25
HETATM   25  C   UNL     1      41.364 -11.725  -1.667  1.00  0.00     0.114 C 
BRANCH  25  26
HETATM   26  C   UNL     1      40.627 -12.633  -2.632  1.00  0.00     0.218 C 
HETATM   27  N   UNL     1      39.294 -12.806  -2.367  1.00  0.00    -0.357 N 
HETATM   28  H   UNL     1      38.868 -12.216  -1.647  1.00  0.00     0.162 HD
HETATM   29  O   UNL     1      41.227 -13.197  -3.547  1.00  0.00    -0.274 OA
BRANCH  27  30
HETATM   30  C   UNL     1      38.424 -13.759  -3.037  1.00  0.00     0.076 C 
HETATM   31  C   UNL     1      36.952 -13.376  -2.889  1.00  0.00     0.032 C 
HETATM   32  C   UNL     1      38.675 -15.201  -2.605  1.00  0.00     0.032 C 
ENDBRANCH  27  30
ENDBRANCH  25  26
ENDBRANCH   1  25
BRANCH   5  33
HETATM   33  C   UNL     1      37.925 -11.083   2.370  1.00  0.00     0.176 C 
BRANCH  33  34
HETATM   34  O   UNL     1      37.953 -12.154   1.446  1.00  0.00    -0.400 OA
HETATM   35  H   UNL     1      38.549 -12.824   1.848  1.00  0.00     0.209 HD
ENDBRANCH  33  34
ENDBRANCH   5  33
BRANCH   7  36
HETATM   36  O   UNL     1      37.005 -10.546  -0.144  1.00  0.00    -0.395 OA
HETATM   37  H   UNL     1      37.334 -10.527  -1.062  1.00  0.00     0.210 HD
ENDBRANCH   7  36
TORSDOF 8
ENDMDL
MODEL 9
REMARK VINA RESULT:      -7.3      3.732      8.947
REMARK  8 active torsions:
REMARK  status: ('A' for Active; 'I' for Inactive)
REMARK    1  A    between atoms: C_2  and  N_3 
REMARK       I    between atoms: N_3  and  C_4 
REMARK    2  A    between atoms: C_4  and  C_5 
REMARK    3  A    between atoms: C_5  and  C_6 
REMARK    4  A    between atoms: C_10  and  C_11 
REMARK    5  A    between atoms: C_11  and  O_12 
REMARK    6  A    between atoms: C_14  and  O_15 
REMARK    7  A    between atoms: C_22  and  N_23 
REMARK       I    between atoms: N_23  and  C_24 
REMARK    8  A    between atoms: C_24  and  C_25 
ROOT
HETATM    1  C   UNL     1      41.118 -12.050   3.733  1.00  0.00     0.056 C 
HETATM    2  C   UNL     1      42.550 -12.603   4.165  1.00  0.00    -0.030 C 
HETATM    3  C   UNL     1      43.662 -11.837   3.374  1.00  0.00     0.016 C 
HETATM    4  C   UNL     1      42.743 -14.150   3.845  1.00  0.00     0.012 C 
HETATM    5  C   UNL     1      42.167 -15.208   4.881  1.00  0.00     0.008 C 
HETATM    6  C   UNL     1      43.131 -16.437   4.843  1.00  0.00     0.020 C 
HETATM    7  C   UNL     1      42.209 -14.654   6.340  1.00  0.00     0.128 C 
HETATM    8  C   UNL     1      43.210 -13.513   6.500  1.00  0.00     0.033 C 
HETATM    9  C   UNL     1      42.785 -12.301   5.677  1.00  0.00     0.013 C 
HETATM   10  C   UNL     1      42.456 -14.493   2.357  1.00  0.00     0.055 C 
HETATM   11  C   UNL     1      41.282 -13.750   1.838  1.00  0.00     0.012 A 
HETATM   12  C   UNL     1      40.698 -12.636   2.405  1.00  0.00     0.056 A 
HETATM   13  N   UNL     1      39.650 -12.097   1.672  1.00  0.00    -0.227 NA
HETATM   14  C   UNL     1      39.436 -12.845   0.620  1.00  0.00     0.174 A 
HETATM   15  S   UNL     1      40.481 -14.177   0.398  1.00  0.00    -0.055 SA
ENDROOT
BRANCH  14  16
HETATM   16  N   UNL     1      38.487 -12.735  -0.349  1.00  0.00    -0.300 N 
HETATM   17  C   UNL     1      38.640 -11.959  -1.471  1.00  0.00     0.281 C 
HETATM   18  O   UNL     1      39.652 -11.345  -1.787  1.00  0.00    -0.265 OA
HETATM   19  H   UNL     1      37.617 -13.229  -0.215  1.00  0.00     0.171 HD
BRANCH  17  20
HETATM   20  C   UNL     1      37.439 -11.945  -2.289  1.00  0.00     0.142 A 
HETATM   21  O   UNL     1      36.801 -10.752  -2.529  1.00  0.00    -0.317 OA
HETATM   22  C   UNL     1      35.732 -11.021  -3.321  1.00  0.00     0.143 A 
HETATM   23  C   UNL     1      35.660 -12.366  -3.595  1.00  0.00     0.027 A 
HETATM   24  C   UNL     1      36.759 -12.963  -2.931  1.00  0.00     0.045 A 
ENDBRANCH  17  20
ENDBRANCH  14  16
BRANCH   1  25
HETATM   25  C   UNL     1      41.047 -10.509   3.734  1.00  0.00     0.114 C 
BRANCH  25  26
HETATM   26  C   UNL     1      39.980  -9.946   4.653  1.00  0.00     0.218 C 
HETATM   27  N   UNL     1      40.453  -9.290   5.759  1.00  0.00    -0.357 N 
HETATM   28  H   UNL     1      41.458  -9.103   5.812  1.00  0.00     0.162 HD
HETATM   29  O   UNL     1      38.787 -10.130   4.418  1.00  0.00    -0.274 OA
BRANCH  27  30
HETATM   30  C   UNL     1      39.636  -8.823   6.868  1.00  0.00     0.076 C 
HETATM   31  C   UNL     1      40.199  -7.540   7.479  1.00  0.00     0.032 C 
HETATM   32  C   UNL     1      39.403  -9.895   7.929  1.00  0.00     0.032 C 
ENDBRANCH  27  30
ENDBRANCH  25  26
ENDBRANCH   1  25
BRANCH   5  33
HETATM   33  C   UNL     1      40.767 -15.781   4.541  1.00  0.00     0.176 C 
BRANCH  33  34
HETATM   34  O   UNL     1      40.196 -16.524   5.601  1.00  0.00    -0.400 OA
HETATM   35  H   UNL     1      40.529 -16.096   6.421  1.00  0.00     0.209 HD
ENDBRANCH  33  34
ENDBRANCH   5  33
BRANCH   7  36
HETATM   36  O   UNL     1      40.920 -14.192   6.756  1.00  0.00    -0.395 OA
HETATM   37  H   UNL     1      40.265 -14.858   6.474  1.00  0.00     0.210 HD
ENDBRANCH   7  36
TORSDOF 8
ENDMDL
MODEL 10
REMARK VINA RESULT:      -7.2     16.930     18.877
REMARK  8 active torsions:
REMARK  status: ('A' for Active; 'I' for Inactive)
REMARK    1  A    between atoms: C_2  and  N_3 
REMARK       I    between atoms: N_3  and  C_4 
REMARK    2  A    between atoms: C_4  and  C_5 
REMARK    3  A    between atoms: C_5  and  C_6 
REMARK    4  A    between atoms: C_10  and  C_11 
REMARK    5  A    between atoms: C_11  and  O_12 
REMARK    6  A    between atoms: C_14  and  O_15 
REMARK    7  A    between atoms: C_22  and  N_23 
REMARK       I    between atoms: N_23  and  C_24 
REMARK    8  A    between atoms: C_24  and  C_25 
ROOT
HETATM    1  C   UNL     1      48.079 -29.986  -0.761  1.00  0.00     0.056 C 
HETATM    2  C   UNL     1      46.918 -28.979  -1.185  1.00  0.00    -0.030 C 
HETATM    3  C   UNL     1      47.521 -27.551  -1.396  1.00  0.00     0.016 C 
HETATM    4  C   UNL     1      45.781 -28.839  -0.080  1.00  0.00     0.012 C 
HETATM    5  C   UNL     1      44.634 -29.938  -0.039  1.00  0.00     0.008 C 
HETATM    6  C   UNL     1      43.337 -29.208   0.432  1.00  0.00     0.020 C 
HETATM    7  C   UNL     1      44.337 -30.501  -1.465  1.00  0.00     0.128 C 
HETATM    8  C   UNL     1      44.805 -29.560  -2.571  1.00  0.00     0.033 C 
HETATM    9  C   UNL     1      46.325 -29.425  -2.558  1.00  0.00     0.013 C 
HETATM   10  C   UNL     1      46.348 -28.455   1.314  1.00  0.00     0.055 C 
HETATM   11  C   UNL     1      47.611 -29.172   1.611  1.00  0.00     0.012 A 
HETATM   12  C   UNL     1      48.422 -29.820   0.701  1.00  0.00     0.056 A 
HETATM   13  N   UNL     1      49.585 -30.352   1.240  1.00  0.00    -0.227 NA
HETATM   14  C   UNL     1      49.589 -30.147   2.533  1.00  0.00     0.174 A 
HETATM   15  S   UNL     1      48.271 -29.274   3.177  1.00  0.00    -0.055 SA
ENDROOT
BRANCH  14  16
HETATM   16  N   UNL     1      50.494 -30.533   3.473  1.00  0.00    -0.300 N 
HETATM   17  C   UNL     1      50.406 -31.715   4.165  1.00  0.00     0.281 C 
HETATM   18  O   UNL     1      49.576 -32.597   3.978  1.00  0.00    -0.265 OA
HETATM   19  H   UNL     1      51.249 -29.899   3.688  1.00  0.00     0.171 HD
BRANCH  17  20
HETATM   20  C   UNL     1      51.445 -31.832   5.174  1.00  0.00     0.142 A 
HETATM   21  O   UNL     1      51.876 -30.705   5.831  1.00  0.00    -0.317 OA
HETATM   22  C   UNL     1      52.827 -31.096   6.717  1.00  0.00     0.143 A 
HETATM   23  C   UNL     1      53.025 -32.454   6.645  1.00  0.00     0.027 A 
HETATM   24  C   UNL     1      52.136 -32.930   5.652  1.00  0.00     0.045 A 
ENDBRANCH  17  20
ENDBRANCH  14  16
BRANCH   1  25
HETATM   25  C   UNL     1      49.327 -29.875  -1.663  1.00  0.00     0.114 C 
BRANCH  25  26
HETATM   26  C   UNL     1      49.998 -31.205  -1.945  1.00  0.00     0.218 C 
HETATM   27  N   UNL     1      51.073 -31.495  -1.147  1.00  0.00    -0.357 N 
HETATM   28  H   UNL     1      51.254 -30.884  -0.346  1.00  0.00     0.162 HD
HETATM   29  O   UNL     1      49.609 -31.922  -2.866  1.00  0.00    -0.274 OA
BRANCH  27  30
HETATM   30  C   UNL     1      51.979 -32.616  -1.338  1.00  0.00     0.076 C 
HETATM   31  C   UNL     1      52.180 -33.404  -0.044  1.00  0.00     0.032 C 
HETATM   32  C   UNL     1      53.312 -32.205  -1.958  1.00  0.00     0.032 C 
ENDBRANCH  27  30
ENDBRANCH  25  26
ENDBRANCH   1  25
BRANCH   5  33
HETATM   33  C   UNL     1      44.847 -31.085   0.982  1.00  0.00     0.176 C 
BRANCH  33  34
HETATM   34  O   UNL     1      43.746 -31.971   1.062  1.00  0.00    -0.400 OA
HETATM   35  H   UNL     1      42.966 -31.432   0.803  1.00  0.00     0.209 HD
ENDBRANCH  33  34
ENDBRANCH   5  33
BRANCH   7  36
HETATM   36  O   UNL     1      44.957 -31.777  -1.657  1.00  0.00    -0.395 OA
HETATM   37  H   UNL     1      45.561 -31.925  -0.905  1.00  0.00     0.210 HD
ENDBRANCH   7  36
TORSDOF 8
ENDMDL
