MODEL 1
REMARK VINA RESULT:      -7.8      0.000      0.000
REMARK  5 active torsions:
REMARK  status: ('A' for Active; 'I' for Inactive)
REMARK    1  A    between atoms: C_3  and  N_4 
REMARK       I    between atoms: N_4  and  C_5 
REMARK       I    between atoms: C_5  and  N_6 
REMARK    2  A    between atoms: N_6  and  C_7 
REMARK    3  A    between atoms: C_7  and  C_8 
REMARK    4  A    between atoms: C_8  and  C_9 
REMARK    5  A    between atoms: N_15  and  C_16 
ROOT
HETATM    1  C   UNL     1      44.128 -13.741   6.846  1.00  0.00     0.054 C 
HETATM    2  C   UNL     1      43.557 -14.980   6.267  1.00  0.00     0.003 A 
HETATM    3  C   UNL     1      42.200 -15.361   6.140  1.00  0.00     0.159 A 
HETATM    4  N   UNL     1      42.078 -16.540   5.529  1.00  0.00    -0.149 NA
HETATM    5  N   UNL     1      43.349 -16.970   5.290  1.00  0.00    -0.241 N 
HETATM    6  C   UNL     1      44.255 -16.013   5.679  1.00  0.00     0.129 A 
ENDROOT
BRANCH   3   7
HETATM    7  N   UNL     1      41.137 -14.606   6.586  1.00  0.00    -0.291 N 
HETATM    8  C   UNL     1      40.340 -13.746   5.892  1.00  0.00     0.322 C 
HETATM    9  N   UNL     1      40.670 -13.502   4.596  1.00  0.00    -0.339 N 
HETATM   10  O   UNL     1      39.387 -13.216   6.459  1.00  0.00    -0.247 OA
HETATM   11  H   UNL     1      41.364 -14.140   4.212  1.00  0.00     0.164 HD
HETATM   12  H   UNL     1      40.870 -14.700   7.554  1.00  0.00     0.172 HD
BRANCH   9  13
HETATM   13  C   UNL     1      39.826 -12.731   3.697  1.00  0.00     0.082 C 
HETATM   14  C   UNL     1      40.562 -11.479   3.228  1.00  0.00     0.032 C 
BRANCH  13  15
HETATM   15  C   UNL     1      39.301 -13.588   2.528  1.00  0.00     0.029 C 
BRANCH  15  16
HETATM   16  C   UNL     1      40.333 -14.510   1.934  1.00  0.00    -0.013 A 
HETATM   17  C   UNL     1      39.917 -15.881   1.465  1.00  0.00     0.005 A 
HETATM   18  C   UNL     1      40.316 -14.836   0.462  1.00  0.00     0.005 A 
ENDBRANCH  15  16
ENDBRANCH  13  15
ENDBRANCH   9  13
ENDBRANCH   3   7
BRANCH   5  19
HETATM   19  C   UNL     1      43.561 -18.235   4.660  1.00  0.00     0.079 A 
HETATM   20  C   UNL     1      43.502 -18.465   3.276  1.00  0.00     0.062 A 
HETATM   21 CL   UNL     1      43.345 -17.247   2.058  1.00  0.00    -0.082 Cl
HETATM   22  C   UNL     1      43.681 -19.766   2.776  1.00  0.00     0.026 A 
HETATM   23  C   UNL     1      43.937 -20.838   3.630  1.00  0.00     0.002 A 
HETATM   24  C   UNL     1      44.030 -20.618   4.996  1.00  0.00     0.002 A 
HETATM   25  C   UNL     1      43.849 -19.330   5.508  1.00  0.00     0.033 A 
ENDBRANCH   5  19
TORSDOF 5
ENDMDL
MODEL 2
REMARK VINA RESULT:      -7.6      2.326      3.030
REMARK  5 active torsions:
REMARK  status: ('A' for Active; 'I' for Inactive)
REMARK    1  A    between atoms: C_3  and  N_4 
REMARK       I    between atoms: N_4  and  C_5 
REMARK       I    between atoms: C_5  and  N_6 
REMARK    2  A    between atoms: N_6  and  C_7 
REMARK    3  A    between atoms: C_7  and  C_8 
REMARK    4  A    between atoms: C_8  and  C_9 
REMARK    5  A    between atoms: N_15  and  C_16 
ROOT
HETATM    1  C   UNL     1      42.992 -13.209   4.875  1.00  0.00     0.054 C 
HETATM    2  C   UNL     1      42.629 -14.569   4.411  1.00  0.00     0.003 A 
HETATM    3  C   UNL     1      41.396 -15.037   3.900  1.00  0.00     0.159 A 
HETATM    4  N   UNL     1      41.465 -16.323   3.553  1.00  0.00    -0.149 NA
HETATM    5  N   UNL     1      42.727 -16.728   3.873  1.00  0.00    -0.241 N 
HETATM    6  C   UNL     1      43.463 -15.665   4.341  1.00  0.00     0.129 A 
ENDROOT
BRANCH   3   7
HETATM    7  N   UNL     1      40.264 -14.261   3.773  1.00  0.00    -0.291 N 
HETATM    8  C   UNL     1      39.737 -13.684   2.657  1.00  0.00     0.322 C 
HETATM    9  N   UNL     1      40.454 -13.789   1.506  1.00  0.00    -0.339 N 
HETATM   10  O   UNL     1      38.669 -13.082   2.736  1.00  0.00    -0.247 OA
HETATM   11  H   UNL     1      41.217 -14.461   1.546  1.00  0.00     0.164 HD
HETATM   12  H   UNL     1      39.712 -14.099   4.600  1.00  0.00     0.172 HD
BRANCH   9  13
HETATM   13  C   UNL     1      39.943 -13.358   0.215  1.00  0.00     0.082 C 
HETATM   14  C   UNL     1      40.878 -12.322  -0.402  1.00  0.00     0.032 C 
BRANCH  13  15
HETATM   15  C   UNL     1      39.673 -14.552  -0.723  1.00  0.00     0.029 C 
BRANCH  15  16
HETATM   16  C   UNL     1      39.404 -14.158  -2.152  1.00  0.00    -0.013 A 
HETATM   17  C   UNL     1      38.579 -15.068  -3.026  1.00  0.00     0.005 A 
HETATM   18  C   UNL     1      38.021 -13.744  -2.586  1.00  0.00     0.005 A 
ENDBRANCH  15  16
ENDBRANCH  13  15
ENDBRANCH   9  13
ENDBRANCH   3   7
BRANCH   5  19
HETATM   19  C   UNL     1      43.114 -18.084   3.645  1.00  0.00     0.079 A 
HETATM   20  C   UNL     1      43.597 -18.959   4.630  1.00  0.00     0.062 A 
HETATM   21 CL   UNL     1      43.649 -18.635   6.329  1.00  0.00    -0.082 Cl
HETATM   22  C   UNL     1      43.993 -20.261   4.276  1.00  0.00     0.026 A 
HETATM   23  C   UNL     1      43.897 -20.710   2.960  1.00  0.00     0.002 A 
HETATM   24  C   UNL     1      43.389 -19.866   1.984  1.00  0.00     0.002 A 
HETATM   25  C   UNL     1      42.997 -18.568   2.321  1.00  0.00     0.033 A 
ENDBRANCH   5  19
TORSDOF 5
ENDMDL
MODEL 3
REMARK VINA RESULT:      -7.3      2.426      4.646
REMARK  5 active torsions:
REMARK  status: ('A' for Active; 'I' for Inactive)
REMARK    1  A    between atoms: C_3  and  N_4 
REMARK       I    between atoms: N_4  and  C_5 
REMARK       I    between atoms: C_5  and  N_6 
REMARK    2  A    between atoms: N_6  and  C_7 
REMARK    3  A    between atoms: C_7  and  C_8 
REMARK    4  A    between atoms: C_8  and  C_9 
REMARK    5  A    between atoms: N_15  and  C_16 
ROOT
HETATM    1  C   UNL     1      40.763 -14.843   0.859  1.00  0.00     0.054 C 
HETATM    2  C   UNL     1      41.753 -15.544   1.712  1.00  0.00     0.003 A 
HETATM    3  C   UNL     1      42.896 -15.023   2.362  1.00  0.00     0.159 A 
HETATM    4  N   UNL     1      43.524 -15.960   3.075  1.00  0.00    -0.149 NA
HETATM    5  N   UNL     1      42.831 -17.114   2.865  1.00  0.00    -0.241 N 
HETATM    6  C   UNL     1      41.723 -16.870   2.089  1.00  0.00     0.129 A 
ENDROOT
BRANCH   3   7
HETATM    7  N   UNL     1      43.308 -13.711   2.276  1.00  0.00    -0.291 N 
HETATM    8  C   UNL     1      43.212 -12.715   3.200  1.00  0.00     0.322 C 
HETATM    9  N   UNL     1      42.537 -12.995   4.347  1.00  0.00    -0.339 N 
HETATM   10  O   UNL     1      43.709 -11.618   2.959  1.00  0.00    -0.247 OA
HETATM   11  H   UNL     1      42.340 -13.984   4.488  1.00  0.00     0.164 HD
HETATM   12  H   UNL     1      43.773 -13.421   1.429  1.00  0.00     0.172 HD
BRANCH   9  13
HETATM   13  C   UNL     1      42.488 -12.084   5.478  1.00  0.00     0.082 C 
HETATM   14  C   UNL     1      41.044 -11.700   5.784  1.00  0.00     0.032 C 
BRANCH  13  15
HETATM   15  C   UNL     1      43.227 -12.655   6.706  1.00  0.00     0.029 C 
BRANCH  15  16
HETATM   16  C   UNL     1      44.712 -12.406   6.696  1.00  0.00    -0.013 A 
HETATM   17  C   UNL     1      45.247 -11.157   6.045  1.00  0.00     0.005 A 
HETATM   18  C   UNL     1      45.313 -11.309   7.538  1.00  0.00     0.005 A 
ENDBRANCH  15  16
ENDBRANCH  13  15
ENDBRANCH   9  13
ENDBRANCH   3   7
BRANCH   5  19
HETATM   19  C   UNL     1      43.274 -18.327   3.478  1.00  0.00     0.079 A 
HETATM   20  C   UNL     1      43.547 -18.483   4.847  1.00  0.00     0.062 A 
HETATM   21 CL   UNL     1      43.230 -17.310   6.078  1.00  0.00    -0.082 Cl
HETATM   22  C   UNL     1      44.025 -19.714   5.328  1.00  0.00     0.026 A 
HETATM   23  C   UNL     1      44.217 -20.797   4.471  1.00  0.00     0.002 A 
HETATM   24  C   UNL     1      43.920 -20.665   3.123  1.00  0.00     0.002 A 
HETATM   25  C   UNL     1      43.448 -19.445   2.630  1.00  0.00     0.033 A 
ENDBRANCH   5  19
TORSDOF 5
ENDMDL
MODEL 4
REMARK VINA RESULT:      -7.2      2.152      2.943
REMARK  5 active torsions:
REMARK  status: ('A' for Active; 'I' for Inactive)
REMARK    1  A    between atoms: C_3  and  N_4 
REMARK       I    between atoms: N_4  and  C_5 
REMARK       I    between atoms: C_5  and  N_6 
REMARK    2  A    between atoms: N_6  and  C_7 
REMARK    3  A    between atoms: C_7  and  C_8 
REMARK    4  A    between atoms: C_8  and  C_9 
REMARK    5  A    between atoms: N_15  and  C_16 
ROOT
HETATM    1  C   UNL     1      41.560 -12.121   5.969  1.00  0.00     0.054 C 
HETATM    2  C   UNL     1      41.625 -13.410   5.240  1.00  0.00     0.003 A 
HETATM    3  C   UNL     1      40.761 -13.912   4.238  1.00  0.00     0.159 A 
HETATM    4  N   UNL     1      41.168 -15.102   3.792  1.00  0.00    -0.149 NA
HETATM    5  N   UNL     1      42.273 -15.417   4.525  1.00  0.00    -0.241 N 
HETATM    6  C   UNL     1      42.597 -14.380   5.367  1.00  0.00     0.129 A 
ENDROOT
BRANCH   3   7
HETATM    7  N   UNL     1      39.643 -13.253   3.776  1.00  0.00    -0.291 N 
HETATM    8  C   UNL     1      39.333 -12.869   2.506  1.00  0.00     0.322 C 
HETATM    9  N   UNL     1      40.280 -13.063   1.550  1.00  0.00    -0.339 N 
HETATM   10  O   UNL     1      38.241 -12.350   2.282  1.00  0.00    -0.247 OA
HETATM   11  H   UNL     1      41.052 -13.661   1.838  1.00  0.00     0.164 HD
HETATM   12  H   UNL     1      38.921 -13.032   4.444  1.00  0.00     0.172 HD
BRANCH   9  13
HETATM   13  C   UNL     1      40.030 -12.845   0.135  1.00  0.00     0.082 C 
HETATM   14  C   UNL     1      40.824 -11.640  -0.360  1.00  0.00     0.032 C 
BRANCH  13  15
HETATM   15  C   UNL     1      40.294 -14.116  -0.697  1.00  0.00     0.029 C 
BRANCH  15  16
HETATM   16  C   UNL     1      39.105 -14.581  -1.496  1.00  0.00    -0.013 A 
HETATM   17  C   UNL     1      38.194 -13.559  -2.128  1.00  0.00     0.005 A 
HETATM   18  C   UNL     1      39.074 -14.414  -2.995  1.00  0.00     0.005 A 
ENDBRANCH  15  16
ENDBRANCH  13  15
ENDBRANCH   9  13
ENDBRANCH   3   7
BRANCH   5  19
HETATM   19  C   UNL     1      42.938 -16.662   4.303  1.00  0.00     0.079 A 
HETATM   20  C   UNL     1      43.332 -17.150   3.047  1.00  0.00     0.062 A 
HETATM   21 CL   UNL     1      43.260 -16.274   1.557  1.00  0.00    -0.082 Cl
HETATM   22  C   UNL     1      43.937 -18.415   2.947  1.00  0.00     0.026 A 
HETATM   23  C   UNL     1      44.173 -19.193   4.080  1.00  0.00     0.002 A 
HETATM   24  C   UNL     1      43.817 -18.707   5.329  1.00  0.00     0.002 A 
HETATM   25  C   UNL     1      43.211 -17.454   5.443  1.00  0.00     0.033 A 
ENDBRANCH   5  19
TORSDOF 5
ENDMDL
MODEL 5
REMARK VINA RESULT:      -7.1      3.407      6.576
REMARK  5 active torsions:
REMARK  status: ('A' for Active; 'I' for Inactive)
REMARK    1  A    between atoms: C_3  and  N_4 
REMARK       I    between atoms: N_4  and  C_5 
REMARK       I    between atoms: C_5  and  N_6 
REMARK    2  A    between atoms: N_6  and  C_7 
REMARK    3  A    between atoms: C_7  and  C_8 
REMARK    4  A    between atoms: C_8  and  C_9 
REMARK    5  A    between atoms: N_15  and  C_16 
ROOT
HETATM    1  C   UNL     1      41.872 -15.581   6.740  1.00  0.00     0.054 C 
HETATM    2  C   UNL     1      42.319 -14.175   6.599  1.00  0.00     0.003 A 
HETATM    3  C   UNL     1      41.860 -13.179   5.704  1.00  0.00     0.159 A 
HETATM    4  N   UNL     1      42.483 -12.017   5.904  1.00  0.00    -0.149 NA
HETATM    5  N   UNL     1      43.389 -12.245   6.896  1.00  0.00    -0.241 N 
HETATM    6  C   UNL     1      43.264 -13.530   7.368  1.00  0.00     0.129 A 
ENDROOT
BRANCH   3   7
HETATM    7  N   UNL     1      40.887 -13.382   4.749  1.00  0.00    -0.291 N 
HETATM    8  C   UNL     1      40.931 -14.151   3.626  1.00  0.00     0.322 C 
HETATM    9  N   UNL     1      42.118 -14.741   3.323  1.00  0.00    -0.339 N 
HETATM   10  O   UNL     1      39.924 -14.260   2.930  1.00  0.00    -0.247 OA
HETATM   11  H   UNL     1      42.805 -14.713   4.073  1.00  0.00     0.164 HD
HETATM   12  H   UNL     1      39.996 -12.931   4.886  1.00  0.00     0.172 HD
BRANCH   9  13
HETATM   13  C   UNL     1      42.269 -15.706   2.246  1.00  0.00     0.082 C 
HETATM   14  C   UNL     1      43.555 -15.435   1.472  1.00  0.00     0.032 C 
BRANCH  13  15
HETATM   15  C   UNL     1      42.175 -17.157   2.759  1.00  0.00     0.029 C 
BRANCH  15  16
HETATM   16  C   UNL     1      43.377 -18.002   2.425  1.00  0.00    -0.013 A 
HETATM   17  C   UNL     1      43.861 -19.023   3.422  1.00  0.00     0.005 A 
HETATM   18  C   UNL     1      43.224 -19.475   2.138  1.00  0.00     0.005 A 
ENDBRANCH  15  16
ENDBRANCH  13  15
ENDBRANCH   9  13
ENDBRANCH   3   7
BRANCH   5  19
HETATM   19  C   UNL     1      44.246 -11.186   7.329  1.00  0.00     0.079 A 
HETATM   20  C   UNL     1      43.810  -9.989   7.919  1.00  0.00     0.062 A 
HETATM   21 CL   UNL     1      42.188  -9.637   8.405  1.00  0.00    -0.082 Cl
HETATM   22  C   UNL     1      44.746  -8.997   8.261  1.00  0.00     0.026 A 
HETATM   23  C   UNL     1      46.110  -9.187   8.040  1.00  0.00     0.002 A 
HETATM   24  C   UNL     1      46.555 -10.379   7.488  1.00  0.00     0.002 A 
HETATM   25  C   UNL     1      45.635 -11.371   7.139  1.00  0.00     0.033 A 
ENDBRANCH   5  19
TORSDOF 5
ENDMDL
MODEL 6
REMARK VINA RESULT:      -7.0      2.973      5.507
REMARK  5 active torsions:
REMARK  status: ('A' for Active; 'I' for Inactive)
REMARK    1  A    between atoms: C_3  and  N_4 
REMARK       I    between atoms: N_4  and  C_5 
REMARK       I    between atoms: C_5  and  N_6 
REMARK    2  A    between atoms: N_6  and  C_7 
REMARK    3  A    between atoms: C_7  and  C_8 
REMARK    4  A    between atoms: C_8  and  C_9 
REMARK    5  A    between atoms: N_15  and  C_16 
ROOT
HETATM    1  C   UNL     1      39.595 -13.198   4.117  1.00  0.00     0.054 C 
HETATM    2  C   UNL     1      40.833 -14.002   3.983  1.00  0.00     0.003 A 
HETATM    3  C   UNL     1      42.180 -13.570   3.977  1.00  0.00     0.159 A 
HETATM    4  N   UNL     1      43.023 -14.599   3.872  1.00  0.00    -0.149 NA
HETATM    5  N   UNL     1      42.243 -15.711   3.762  1.00  0.00    -0.241 N 
HETATM    6  C   UNL     1      40.916 -15.375   3.885  1.00  0.00     0.129 A 
ENDROOT
BRANCH   3   7
HETATM    7  N   UNL     1      42.573 -12.253   4.071  1.00  0.00    -0.291 N 
HETATM    8  C   UNL     1      43.340 -11.649   5.022  1.00  0.00     0.322 C 
HETATM    9  N   UNL     1      43.708 -12.402   6.093  1.00  0.00    -0.339 N 
HETATM   10  O   UNL     1      43.643 -10.466   4.890  1.00  0.00    -0.247 OA
HETATM   11  H   UNL     1      43.542 -13.400   5.982  1.00  0.00     0.164 HD
HETATM   12  H   UNL     1      42.291 -11.626   3.334  1.00  0.00     0.172 HD
BRANCH   9  13
HETATM   13  C   UNL     1      44.647 -11.937   7.100  1.00  0.00     0.082 C 
HETATM   14  C   UNL     1      45.918 -11.417   6.436  1.00  0.00     0.032 C 
BRANCH  13  15
HETATM   15  C   UNL     1      44.005 -10.905   8.050  1.00  0.00     0.029 C 
BRANCH  15  16
HETATM   16  C   UNL     1      44.972  -9.883   8.586  1.00  0.00    -0.013 A 
HETATM   17  C   UNL     1      44.454  -8.749   9.433  1.00  0.00     0.005 A 
HETATM   18  C   UNL     1      45.292  -9.828  10.058  1.00  0.00     0.005 A 
ENDBRANCH  15  16
ENDBRANCH  13  15
ENDBRANCH   9  13
ENDBRANCH   3   7
BRANCH   5  19
HETATM   19  C   UNL     1      42.856 -16.992   3.605  1.00  0.00     0.079 A 
HETATM   20  C   UNL     1      43.762 -17.566   4.511  1.00  0.00     0.062 A 
HETATM   21 CL   UNL     1      44.172 -16.930   6.067  1.00  0.00    -0.082 Cl
HETATM   22  C   UNL     1      44.339 -18.816   4.225  1.00  0.00     0.026 A 
HETATM   23  C   UNL     1      44.013 -19.511   3.061  1.00  0.00     0.002 A 
HETATM   24  C   UNL     1      43.095 -18.968   2.175  1.00  0.00     0.002 A 
HETATM   25  C   UNL     1      42.517 -17.725   2.444  1.00  0.00     0.033 A 
ENDBRANCH   5  19
TORSDOF 5
ENDMDL
MODEL 7
REMARK VINA RESULT:      -6.9      2.413      4.752
REMARK  5 active torsions:
REMARK  status: ('A' for Active; 'I' for Inactive)
REMARK    1  A    between atoms: C_3  and  N_4 
REMARK       I    between atoms: N_4  and  C_5 
REMARK       I    between atoms: C_5  and  N_6 
REMARK    2  A    between atoms: N_6  and  C_7 
REMARK    3  A    between atoms: C_7  and  C_8 
REMARK    4  A    between atoms: C_8  and  C_9 
REMARK    5  A    between atoms: N_15  and  C_16 
ROOT
HETATM    1  C   UNL     1      40.104 -14.966   0.387  1.00  0.00     0.054 C 
HETATM    2  C   UNL     1      40.979 -15.017   1.582  1.00  0.00     0.003 A 
HETATM    3  C   UNL     1      41.790 -14.000   2.138  1.00  0.00     0.159 A 
HETATM    4  N   UNL     1      42.409 -14.416   3.244  1.00  0.00    -0.149 NA
HETATM    5  N   UNL     1      42.051 -15.721   3.403  1.00  0.00    -0.241 N 
HETATM    6  C   UNL     1      41.142 -16.086   2.438  1.00  0.00     0.129 A 
ENDROOT
BRANCH   3   7
HETATM    7  N   UNL     1      41.921 -12.735   1.607  1.00  0.00    -0.291 N 
HETATM    8  C   UNL     1      42.030 -11.539   2.250  1.00  0.00     0.322 C 
HETATM    9  N   UNL     1      41.902 -11.546   3.604  1.00  0.00    -0.339 N 
HETATM   10  O   UNL     1      42.213 -10.516   1.593  1.00  0.00    -0.247 OA
HETATM   11  H   UNL     1      41.936 -12.473   4.023  1.00  0.00     0.164 HD
HETATM   12  H   UNL     1      41.970 -12.651   0.604  1.00  0.00     0.172 HD
BRANCH   9  13
HETATM   13  C   UNL     1      42.148 -10.374   4.427  1.00  0.00     0.082 C 
HETATM   14  C   UNL     1      40.850  -9.603   4.647  1.00  0.00     0.032 C 
BRANCH  13  15
HETATM   15  C   UNL     1      42.856 -10.740   5.748  1.00  0.00     0.029 C 
BRANCH  15  16
HETATM   16  C   UNL     1      43.908 -11.807   5.602  1.00  0.00    -0.013 A 
HETATM   17  C   UNL     1      45.174 -11.712   6.415  1.00  0.00     0.005 A 
HETATM   18  C   UNL     1      44.168 -12.786   6.720  1.00  0.00     0.005 A 
ENDBRANCH  15  16
ENDBRANCH  13  15
ENDBRANCH   9  13
ENDBRANCH   3   7
BRANCH   5  19
HETATM   19  C   UNL     1      42.579 -16.471   4.499  1.00  0.00     0.079 A 
HETATM   20  C   UNL     1      43.353 -17.636   4.378  1.00  0.00     0.062 A 
HETATM   21 CL   UNL     1      43.971 -18.286   2.899  1.00  0.00    -0.082 Cl
HETATM   22  C   UNL     1      43.776 -18.316   5.533  1.00  0.00     0.026 A 
HETATM   23  C   UNL     1      43.457 -17.844   6.806  1.00  0.00     0.002 A 
HETATM   24  C   UNL     1      42.721 -16.677   6.938  1.00  0.00     0.002 A 
HETATM   25  C   UNL     1      42.289 -15.993   5.798  1.00  0.00     0.033 A 
ENDBRANCH   5  19
TORSDOF 5
ENDMDL
MODEL 8
REMARK VINA RESULT:      -6.7      2.523      5.948
REMARK  5 active torsions:
REMARK  status: ('A' for Active; 'I' for Inactive)
REMARK    1  A    between atoms: C_3  and  N_4 
REMARK       I    between atoms: N_4  and  C_5 
REMARK       I    between atoms: C_5  and  N_6 
REMARK    2  A    between atoms: N_6  and  C_7 
REMARK    3  A    between atoms: C_7  and  C_8 
REMARK    4  A    between atoms: C_8  and  C_9 
REMARK    5  A    between atoms: N_15  and  C_16 
ROOT
HETATM    1  C   UNL     1      39.262 -11.580   5.983  1.00  0.00     0.054 C 
HETATM    2  C   UNL     1      39.860 -12.173   4.763  1.00  0.00     0.003 A 
HETATM    3  C   UNL     1      41.158 -12.701   4.574  1.00  0.00     0.159 A 
HETATM    4  N   UNL     1      41.317 -13.181   3.339  1.00  0.00    -0.149 NA
HETATM    5  N   UNL     1      40.145 -12.933   2.690  1.00  0.00    -0.241 N 
HETATM    6  C   UNL     1      39.232 -12.375   3.553  1.00  0.00     0.129 A 
ENDROOT
BRANCH   3   7
HETATM    7  N   UNL     1      42.137 -12.723   5.544  1.00  0.00    -0.291 N 
HETATM    8  C   UNL     1      42.897 -13.767   5.978  1.00  0.00     0.322 C 
HETATM    9  N   UNL     1      42.612 -14.996   5.469  1.00  0.00    -0.339 N 
HETATM   10  O   UNL     1      43.777 -13.568   6.812  1.00  0.00    -0.247 OA
HETATM   11  H   UNL     1      41.990 -14.983   4.664  1.00  0.00     0.164 HD
HETATM   12  H   UNL     1      42.363 -11.853   6.000  1.00  0.00     0.172 HD
BRANCH   9  13
HETATM   13  C   UNL     1      43.436 -16.166   5.723  1.00  0.00     0.082 C 
HETATM   14  C   UNL     1      42.700 -17.140   6.638  1.00  0.00     0.032 C 
BRANCH  13  15
HETATM   15  C   UNL     1      43.915 -16.825   4.413  1.00  0.00     0.029 C 
BRANCH  15  16
HETATM   16  C   UNL     1      42.805 -17.146   3.448  1.00  0.00    -0.013 A 
HETATM   17  C   UNL     1      42.905 -16.669   2.022  1.00  0.00     0.005 A 
HETATM   18  C   UNL     1      43.022 -18.135   2.330  1.00  0.00     0.005 A 
ENDBRANCH  15  16
ENDBRANCH  13  15
ENDBRANCH   9  13
ENDBRANCH   3   7
BRANCH   5  19
HETATM   19  C   UNL     1      40.003 -13.309   1.319  1.00  0.00     0.079 A 
HETATM   20  C   UNL     1      39.853 -12.410   0.250  1.00  0.00     0.062 A 
HETATM   21 CL   UNL     1      39.993 -10.689   0.353  1.00  0.00    -0.082 Cl
HETATM   22  C   UNL     1      39.673 -12.900  -1.055  1.00  0.00     0.026 A 
HETATM   23  C   UNL     1      39.659 -14.270  -1.315  1.00  0.00     0.002 A 
HETATM   24  C   UNL     1      39.839 -15.167  -0.272  1.00  0.00     0.002 A 
HETATM   25  C   UNL     1      40.014 -14.694   1.031  1.00  0.00     0.033 A 
ENDBRANCH   5  19
TORSDOF 5
ENDMDL
MODEL 9
REMARK VINA RESULT:      -6.7      3.596      7.313
REMARK  5 active torsions:
REMARK  status: ('A' for Active; 'I' for Inactive)
REMARK    1  A    between atoms: C_3  and  N_4 
REMARK       I    between atoms: N_4  and  C_5 
REMARK       I    between atoms: C_5  and  N_6 
REMARK    2  A    between atoms: N_6  and  C_7 
REMARK    3  A    between atoms: C_7  and  C_8 
REMARK    4  A    between atoms: C_8  and  C_9 
REMARK    5  A    between atoms: N_15  and  C_16 
ROOT
HETATM    1  C   UNL     1      39.448 -10.981   3.421  1.00  0.00     0.054 C 
HETATM    2  C   UNL     1      39.680 -11.683   2.136  1.00  0.00     0.003 A 
HETATM    3  C   UNL     1      40.888 -12.189   1.602  1.00  0.00     0.159 A 
HETATM    4  N   UNL     1      40.690 -12.794   0.429  1.00  0.00    -0.149 NA
HETATM    5  N   UNL     1      39.362 -12.652   0.157  1.00  0.00    -0.241 N 
HETATM    6  C   UNL     1      38.725 -12.033   1.205  1.00  0.00     0.129 A 
ENDROOT
BRANCH   3   7
HETATM    7  N   UNL     1      42.116 -12.077   2.217  1.00  0.00    -0.291 N 
HETATM    8  C   UNL     1      42.865 -13.038   2.826  1.00  0.00     0.322 C 
HETATM    9  N   UNL     1      42.312 -14.275   2.944  1.00  0.00    -0.339 N 
HETATM   10  O   UNL     1      43.979 -12.751   3.258  1.00  0.00    -0.247 OA
HETATM   11  H   UNL     1      41.471 -14.414   2.388  1.00  0.00     0.164 HD
HETATM   12  H   UNL     1      42.561 -11.172   2.211  1.00  0.00     0.172 HD
BRANCH   9  13
HETATM   13  C   UNL     1      43.052 -15.428   3.430  1.00  0.00     0.082 C 
HETATM   14  C   UNL     1      43.047 -15.453   4.956  1.00  0.00     0.032 C 
BRANCH  13  15
HETATM   15  C   UNL     1      42.536 -16.743   2.810  1.00  0.00     0.029 C 
BRANCH  15  16
HETATM   16  C   UNL     1      43.617 -17.754   2.535  1.00  0.00    -0.013 A 
HETATM   17  C   UNL     1      43.956 -18.777   3.589  1.00  0.00     0.005 A 
HETATM   18  C   UNL     1      43.272 -19.207   2.321  1.00  0.00     0.005 A 
ENDBRANCH  15  16
ENDBRANCH  13  15
ENDBRANCH   9  13
ENDBRANCH   3   7
BRANCH   5  19
HETATM   19  C   UNL     1      38.830 -13.177  -1.061  1.00  0.00     0.079 A 
HETATM   20  C   UNL     1      37.799 -12.587  -1.809  1.00  0.00     0.062 A 
HETATM   21 CL   UNL     1      37.100 -11.033  -1.510  1.00  0.00    -0.082 Cl
HETATM   22  C   UNL     1      37.325 -13.222  -2.970  1.00  0.00     0.026 A 
HETATM   23  C   UNL     1      37.875 -14.427  -3.407  1.00  0.00     0.002 A 
HETATM   24  C   UNL     1      38.916 -15.003  -2.695  1.00  0.00     0.002 A 
HETATM   25  C   UNL     1      39.394 -14.384  -1.537  1.00  0.00     0.033 A 
ENDBRANCH   5  19
TORSDOF 5
ENDMDL
MODEL 10
REMARK VINA RESULT:      -6.5      2.609      4.421
REMARK  5 active torsions:
REMARK  status: ('A' for Active; 'I' for Inactive)
REMARK    1  A    between atoms: C_3  and  N_4 
REMARK       I    between atoms: N_4  and  C_5 
REMARK       I    between atoms: C_5  and  N_6 
REMARK    2  A    between atoms: N_6  and  C_7 
REMARK    3  A    between atoms: C_7  and  C_8 
REMARK    4  A    between atoms: C_8  and  C_9 
REMARK    5  A    between atoms: N_15  and  C_16 
ROOT
HETATM    1  C   UNL     1      39.824 -15.253   0.166  1.00  0.00     0.054 C 
HETATM    2  C   UNL     1      40.405 -15.136   1.525  1.00  0.00     0.003 A 
HETATM    3  C   UNL     1      39.995 -14.315   2.602  1.00  0.00     0.159 A 
HETATM    4  N   UNL     1      40.748 -14.515   3.685  1.00  0.00    -0.149 NA
HETATM    5  N   UNL     1      41.689 -15.431   3.320  1.00  0.00    -0.241 N 
HETATM    6  C   UNL     1      41.462 -15.860   2.034  1.00  0.00     0.129 A 
ENDROOT
BRANCH   3   7
HETATM    7  N   UNL     1      38.945 -13.425   2.543  1.00  0.00    -0.291 N 
HETATM    8  C   UNL     1      38.862 -12.233   1.888  1.00  0.00     0.322 C 
HETATM    9  N   UNL     1      39.988 -11.784   1.271  1.00  0.00    -0.339 N 
HETATM   10  O   UNL     1      37.803 -11.611   1.898  1.00  0.00    -0.247 OA
HETATM   11  H   UNL     1      40.728 -12.478   1.190  1.00  0.00     0.164 HD
HETATM   12  H   UNL     1      38.094 -13.673   3.023  1.00  0.00     0.172 HD
BRANCH   9  13
HETATM   13  C   UNL     1      40.003 -10.613   0.410  1.00  0.00     0.082 C 
HETATM   14  C   UNL     1      41.319  -9.857   0.572  1.00  0.00     0.032 C 
BRANCH  13  15
HETATM   15  C   UNL     1      39.701 -10.976  -1.058  1.00  0.00     0.029 C 
BRANCH  15  16
HETATM   16  C   UNL     1      40.541 -12.104  -1.594  1.00  0.00    -0.013 A 
HETATM   17  C   UNL     1      40.029 -12.920  -2.754  1.00  0.00     0.005 A 
HETATM   18  C   UNL     1      41.198 -11.996  -2.947  1.00  0.00     0.005 A 
ENDBRANCH  15  16
ENDBRANCH  13  15
ENDBRANCH   9  13
ENDBRANCH   3   7
BRANCH   5  19
HETATM   19  C   UNL     1      42.679 -15.843   4.265  1.00  0.00     0.079 A 
HETATM   20  C   UNL     1      43.401 -17.045   4.201  1.00  0.00     0.062 A 
HETATM   21 CL   UNL     1      43.373 -18.169   2.886  1.00  0.00    -0.082 Cl
HETATM   22  C   UNL     1      44.318 -17.364   5.217  1.00  0.00     0.026 A 
HETATM   23  C   UNL     1      44.540 -16.497   6.286  1.00  0.00     0.002 A 
HETATM   24  C   UNL     1      43.856 -15.292   6.343  1.00  0.00     0.002 A 
HETATM   25  C   UNL     1      42.939 -14.963   5.342  1.00  0.00     0.033 A 
ENDBRANCH   5  19
TORSDOF 5
ENDMDL
