MODEL 1
REMARK VINA RESULT:      -9.0      0.000      0.000
REMARK  2 active torsions:
REMARK  status: ('A' for Active; 'I' for Inactive)
REMARK    1  A    between atoms: C_5  and  C_7 
REMARK    2  A    between atoms: C_5  and  O_6 
ROOT
HETATM    1  C   UNL     1      44.072 -11.949   7.546  1.00  0.00     0.050 C 
HETATM    2  C   UNL     1      43.570 -12.229   6.163  1.00  0.00    -0.034 A 
HETATM    3  C   UNL     1      42.599 -13.176   5.868  1.00  0.00     0.052 A 
HETATM    4  C   UNL     1      42.149 -13.433   4.562  1.00  0.00     0.039 A 
HETATM    5  C   UNL     1      41.071 -14.496   4.603  1.00  0.00     0.200 A 
HETATM    6  C   UNL     1      41.017 -14.833   6.134  1.00  0.00     0.266 A 
HETATM    7  O   UNL     1      40.294 -15.623   6.723  1.00  0.00    -0.269 OA
HETATM    8  N   UNL     1      41.930 -13.994   6.771  1.00  0.00    -0.323 N 
HETATM    9  C   UNL     1      42.667 -12.699   3.506  1.00  0.00     0.046 A 
HETATM   10 CL   UNL     1      42.124 -12.886   1.887  1.00  0.00    -0.084 Cl
HETATM   11  C   UNL     1      43.652 -11.743   3.770  1.00  0.00     0.025 A 
HETATM   12  C   UNL     1      44.101 -11.514   5.082  1.00  0.00     0.011 A 
HETATM   13  H   UNL     1      42.063 -14.020   7.770  1.00  0.00     0.169 HD
ENDROOT
BRANCH   5  14
HETATM   14  C   UNL     1      41.525 -15.679   3.775  1.00  0.00     0.025 A 
HETATM   15  C   UNL     1      42.594 -16.609   4.073  1.00  0.00     0.003 A 
HETATM   16  C   UNL     1      42.654 -17.536   3.032  1.00  0.00     0.043 A 
HETATM   17  C   UNL     1      43.522 -16.760   5.129  1.00  0.00     0.014 A 
HETATM   18  C   UNL     1      43.580 -18.585   2.986  1.00  0.00     0.030 A 
HETATM   19  N   UNL     1      41.668 -17.205   2.140  1.00  0.00    -0.359 N 
HETATM   20  C   UNL     1      44.481 -18.705   4.045  1.00  0.00     0.002 A 
HETATM   21  C   UNL     1      44.454 -17.806   5.105  1.00  0.00     0.001 A 
HETATM   22  H   UNL     1      41.478 -17.716   1.289  1.00  0.00     0.166 HD
HETATM   23  C   UNL     1      40.968 -16.109   2.570  1.00  0.00     0.016 A 
HETATM   24  C   UNL     1      39.824 -15.586   1.774  1.00  0.00     0.069 C 
ENDBRANCH   5  14
BRANCH   5  25
HETATM   25  O   UNL     1      39.824 -13.937   4.193  1.00  0.00    -0.371 OA
HETATM   26  H   UNL     1      39.549 -13.314   4.884  1.00  0.00     0.212 HD
ENDBRANCH   5  25
TORSDOF 2
ENDMDL
MODEL 2
REMARK VINA RESULT:      -8.9      1.654      2.424
REMARK  2 active torsions:
REMARK  status: ('A' for Active; 'I' for Inactive)
REMARK    1  A    between atoms: C_5  and  C_7 
REMARK    2  A    between atoms: C_5  and  O_6 
ROOT
HETATM    1  C   UNL     1      41.755 -10.173   6.470  1.00  0.00     0.050 C 
HETATM    2  C   UNL     1      42.127 -11.196   5.443  1.00  0.00    -0.034 A 
HETATM    3  C   UNL     1      41.666 -12.505   5.450  1.00  0.00     0.052 A 
HETATM    4  C   UNL     1      42.036 -13.455   4.482  1.00  0.00     0.039 A 
HETATM    5  C   UNL     1      41.331 -14.764   4.769  1.00  0.00     0.200 A 
HETATM    6  C   UNL     1      40.541 -14.417   6.079  1.00  0.00     0.266 A 
HETATM    7  O   UNL     1      39.785 -15.122   6.731  1.00  0.00    -0.269 OA
HETATM    8  N   UNL     1      40.794 -13.077   6.368  1.00  0.00    -0.323 N 
HETATM    9  C   UNL     1      42.881 -13.082   3.448  1.00  0.00     0.046 A 
HETATM   10 CL   UNL     1      43.326 -14.148   2.178  1.00  0.00    -0.084 Cl
HETATM   11  C   UNL     1      43.368 -11.771   3.418  1.00  0.00     0.025 A 
HETATM   12  C   UNL     1      43.000 -10.842   4.405  1.00  0.00     0.011 A 
HETATM   13  H   UNL     1      40.379 -12.623   7.167  1.00  0.00     0.169 HD
ENDROOT
BRANCH   5  14
HETATM   14  C   UNL     1      42.374 -15.836   5.000  1.00  0.00     0.025 A 
HETATM   15  C   UNL     1      42.750 -16.911   4.104  1.00  0.00     0.003 A 
HETATM   16  C   UNL     1      43.751 -17.654   4.730  1.00  0.00     0.043 A 
HETATM   17  C   UNL     1      42.341 -17.329   2.817  1.00  0.00     0.014 A 
HETATM   18  C   UNL     1      44.352 -18.779   4.150  1.00  0.00     0.030 A 
HETATM   19  N   UNL     1      43.991 -17.067   5.945  1.00  0.00    -0.359 N 
HETATM   20  C   UNL     1      43.924 -19.164   2.879  1.00  0.00     0.002 A 
HETATM   21  C   UNL     1      42.932 -18.449   2.218  1.00  0.00     0.001 A 
HETATM   22  H   UNL     1      44.679 -17.397   6.608  1.00  0.00     0.166 HD
HETATM   23  C   UNL     1      43.193 -15.969   6.122  1.00  0.00     0.016 A 
HETATM   24  C   UNL     1      43.302 -15.150   7.361  1.00  0.00     0.069 C 
ENDBRANCH   5  14
BRANCH   5  25
HETATM   25  O   UNL     1      40.410 -15.058   3.720  1.00  0.00    -0.371 OA
HETATM   26  H   UNL     1      39.563 -15.281   4.137  1.00  0.00     0.212 HD
ENDBRANCH   5  25
TORSDOF 2
ENDMDL
MODEL 3
REMARK VINA RESULT:      -8.2      2.049      5.538
REMARK  2 active torsions:
REMARK  status: ('A' for Active; 'I' for Inactive)
REMARK    1  A    between atoms: C_5  and  C_7 
REMARK    2  A    between atoms: C_5  and  O_6 
ROOT
HETATM    1  C   UNL     1      43.506 -19.384   2.347  1.00  0.00     0.050 C 
HETATM    2  C   UNL     1      43.467 -18.300   3.379  1.00  0.00    -0.034 A 
HETATM    3  C   UNL     1      42.543 -17.264   3.379  1.00  0.00     0.052 A 
HETATM    4  C   UNL     1      42.529 -16.249   4.351  1.00  0.00     0.039 A 
HETATM    5  C   UNL     1      41.379 -15.304   4.071  1.00  0.00     0.200 A 
HETATM    6  C   UNL     1      40.776 -15.918   2.760  1.00  0.00     0.266 A 
HETATM    7  O   UNL     1      39.808 -15.549   2.113  1.00  0.00    -0.269 OA
HETATM    8  N   UNL     1      41.517 -17.061   2.465  1.00  0.00    -0.323 N 
HETATM    9  C   UNL     1      43.455 -16.279   5.382  1.00  0.00     0.046 A 
HETATM   10 CL   UNL     1      43.466 -15.129   6.657  1.00  0.00    -0.084 Cl
HETATM   11  C   UNL     1      44.403 -17.306   5.405  1.00  0.00     0.025 A 
HETATM   12  C   UNL     1      44.411 -18.302   4.414  1.00  0.00     0.011 A 
HETATM   13  H   UNL     1      41.303 -17.635   1.664  1.00  0.00     0.169 HD
ENDROOT
BRANCH   5  14
HETATM   14  C   UNL     1      41.937 -13.915   3.845  1.00  0.00     0.025 A 
HETATM   15  C   UNL     1      41.639 -12.709   4.591  1.00  0.00     0.003 A 
HETATM   16  C   UNL     1      42.382 -11.669   4.032  1.00  0.00     0.043 A 
HETATM   17  C   UNL     1      40.809 -12.395   5.692  1.00  0.00     0.014 A 
HETATM   18  C   UNL     1      42.337 -10.351   4.503  1.00  0.00     0.030 A 
HETATM   19  N   UNL     1      43.111 -12.201   3.001  1.00  0.00    -0.359 N 
HETATM   20  C   UNL     1      41.508 -10.076   5.591  1.00  0.00     0.002 A 
HETATM   21  C   UNL     1      40.753 -11.083   6.181  1.00  0.00     0.001 A 
HETATM   22  H   UNL     1      43.747 -11.671   2.423  1.00  0.00     0.166 HD
HETATM   23  C   UNL     1      42.875 -13.545   2.880  1.00  0.00     0.016 A 
HETATM   24  C   UNL     1      43.585 -14.344   1.843  1.00  0.00     0.069 C 
ENDBRANCH   5  14
BRANCH   5  25
HETATM   25  O   UNL     1      40.418 -15.385   5.123  1.00  0.00    -0.371 OA
HETATM   26  H   UNL     1      39.563 -15.122   4.749  1.00  0.00     0.212 HD
ENDBRANCH   5  25
TORSDOF 2
ENDMDL
MODEL 4
REMARK VINA RESULT:      -8.0      2.430      5.373
REMARK  2 active torsions:
REMARK  status: ('A' for Active; 'I' for Inactive)
REMARK    1  A    between atoms: C_5  and  C_7 
REMARK    2  A    between atoms: C_5  and  O_6 
ROOT
HETATM    1  C   UNL     1      43.903 -19.492   5.282  1.00  0.00     0.050 C 
HETATM    2  C   UNL     1      43.669 -18.110   4.758  1.00  0.00    -0.034 A 
HETATM    3  C   UNL     1      43.467 -16.998   5.564  1.00  0.00     0.052 A 
HETATM    4  C   UNL     1      43.238 -15.710   5.052  1.00  0.00     0.039 A 
HETATM    5  C   UNL     1      43.091 -14.734   6.201  1.00  0.00     0.200 A 
HETATM    6  C   UNL     1      43.226 -15.682   7.443  1.00  0.00     0.266 A 
HETATM    7  O   UNL     1      43.201 -15.402   8.632  1.00  0.00    -0.269 OA
HETATM    8  N   UNL     1      43.462 -16.966   6.953  1.00  0.00    -0.323 N 
HETATM    9  C   UNL     1      43.235 -15.511   3.681  1.00  0.00     0.046 A 
HETATM   10 CL   UNL     1      43.042 -13.963   2.964  1.00  0.00    -0.084 Cl
HETATM   11  C   UNL     1      43.428 -16.613   2.842  1.00  0.00     0.025 A 
HETATM   12  C   UNL     1      43.639 -17.896   3.373  1.00  0.00     0.011 A 
HETATM   13  H   UNL     1      43.596 -17.750   7.573  1.00  0.00     0.169 HD
ENDROOT
BRANCH   5  14
HETATM   14  C   UNL     1      41.723 -14.092   6.121  1.00  0.00     0.025 A 
HETATM   15  C   UNL     1      41.412 -12.694   5.901  1.00  0.00     0.003 A 
HETATM   16  C   UNL     1      40.024 -12.562   5.901  1.00  0.00     0.043 A 
HETATM   17  C   UNL     1      42.176 -11.521   5.698  1.00  0.00     0.014 A 
HETATM   18  C   UNL     1      39.366 -11.339   5.719  1.00  0.00     0.030 A 
HETATM   19  N   UNL     1      39.499 -13.812   6.100  1.00  0.00    -0.359 N 
HETATM   20  C   UNL     1      40.150 -10.201   5.521  1.00  0.00     0.002 A 
HETATM   21  C   UNL     1      41.537 -10.289   5.509  1.00  0.00     0.001 A 
HETATM   22  H   UNL     1      38.509 -14.012   6.138  1.00  0.00     0.166 HD
HETATM   23  C   UNL     1      40.493 -14.746   6.218  1.00  0.00     0.016 A 
HETATM   24  C   UNL     1      40.158 -16.184   6.408  1.00  0.00     0.069 C 
ENDBRANCH   5  14
BRANCH   5  25
HETATM   25  O   UNL     1      44.175 -13.805   6.190  1.00  0.00    -0.371 OA
HETATM   26  H   UNL     1      44.712 -13.984   6.977  1.00  0.00     0.212 HD
ENDBRANCH   5  25
TORSDOF 2
ENDMDL
MODEL 5
REMARK VINA RESULT:      -7.8     15.194     16.844
REMARK  2 active torsions:
REMARK  status: ('A' for Active; 'I' for Inactive)
REMARK    1  A    between atoms: C_5  and  C_7 
REMARK    2  A    between atoms: C_5  and  O_6 
ROOT
HETATM    1  C   UNL     1      50.596 -30.930   3.732  1.00  0.00     0.050 C 
HETATM    2  C   UNL     1      50.265 -30.689   2.291  1.00  0.00    -0.034 A 
HETATM    3  C   UNL     1      49.174 -29.947   1.860  1.00  0.00     0.052 A 
HETATM    4  C   UNL     1      48.874 -29.742   0.502  1.00  0.00     0.039 A 
HETATM    5  C   UNL     1      47.643 -28.867   0.389  1.00  0.00     0.200 A 
HETATM    6  C   UNL     1      47.267 -28.651   1.896  1.00  0.00     0.266 A 
HETATM    7  O   UNL     1      46.354 -27.996   2.375  1.00  0.00    -0.269 OA
HETATM    8  N   UNL     1      48.235 -29.305   2.657  1.00  0.00    -0.323 N 
HETATM    9  C   UNL     1      49.708 -30.274  -0.468  1.00  0.00     0.046 A 
HETATM   10 CL   UNL     1      49.467 -30.011  -2.148  1.00  0.00    -0.084 Cl
HETATM   11  C   UNL     1      50.811 -31.032  -0.065  1.00  0.00     0.025 A 
HETATM   12  C   UNL     1      51.084 -31.241   1.297  1.00  0.00     0.011 A 
HETATM   13  H   UNL     1      48.209 -29.293   3.666  1.00  0.00     0.169 HD
ENDROOT
BRANCH   5  14
HETATM   14  C   UNL     1      46.572 -29.632  -0.360  1.00  0.00     0.025 A 
HETATM   15  C   UNL     1      45.902 -29.244  -1.585  1.00  0.00     0.003 A 
HETATM   16  C   UNL     1      44.994 -30.252  -1.909  1.00  0.00     0.043 A 
HETATM   17  C   UNL     1      45.976 -28.133  -2.457  1.00  0.00     0.014 A 
HETATM   18  C   UNL     1      44.165 -30.209  -3.037  1.00  0.00     0.030 A 
HETATM   19  N   UNL     1      45.102 -31.219  -0.944  1.00  0.00    -0.359 N 
HETATM   20  C   UNL     1      44.264 -29.098  -3.876  1.00  0.00     0.002 A 
HETATM   21  C   UNL     1      45.159 -28.072  -3.592  1.00  0.00     0.001 A 
HETATM   22  H   UNL     1      44.562 -32.073  -0.934  1.00  0.00     0.166 HD
HETATM   23  C   UNL     1      46.050 -30.880  -0.017  1.00  0.00     0.016 A 
HETATM   24  C   UNL     1      46.364 -31.799   1.111  1.00  0.00     0.069 C 
ENDBRANCH   5  14
BRANCH   5  25
HETATM   25  O   UNL     1      47.990 -27.616  -0.201  1.00  0.00    -0.371 OA
HETATM   26  H   UNL     1      47.199 -27.056  -0.170  1.00  0.00     0.212 HD
ENDBRANCH   5  25
TORSDOF 2
ENDMDL
MODEL 6
REMARK VINA RESULT:      -7.8      2.735      3.951
REMARK  2 active torsions:
REMARK  status: ('A' for Active; 'I' for Inactive)
REMARK    1  A    between atoms: C_5  and  C_7 
REMARK    2  A    between atoms: C_5  and  O_6 
ROOT
HETATM    1  C   UNL     1      41.285  -9.513   4.645  1.00  0.00     0.050 C 
HETATM    2  C   UNL     1      41.020 -10.904   5.131  1.00  0.00    -0.034 A 
HETATM    3  C   UNL     1      42.008 -11.770   5.580  1.00  0.00     0.052 A 
HETATM    4  C   UNL     1      41.740 -13.077   6.021  1.00  0.00     0.039 A 
HETATM    5  C   UNL     1      43.033 -13.729   6.467  1.00  0.00     0.200 A 
HETATM    6  C   UNL     1      44.079 -12.601   6.162  1.00  0.00     0.266 A 
HETATM    7  O   UNL     1      45.285 -12.599   6.354  1.00  0.00    -0.269 OA
HETATM    8  N   UNL     1      43.369 -11.507   5.671  1.00  0.00    -0.323 N 
HETATM    9  C   UNL     1      40.433 -13.535   6.043  1.00  0.00     0.046 A 
HETATM   10 CL   UNL     1      39.999 -15.087   6.639  1.00  0.00    -0.084 Cl
HETATM   11  C   UNL     1      39.416 -12.689   5.590  1.00  0.00     0.025 A 
HETATM   12  C   UNL     1      39.706 -11.392   5.136  1.00  0.00     0.011 A 
HETATM   13  H   UNL     1      43.834 -10.649   5.415  1.00  0.00     0.169 HD
ENDROOT
BRANCH   5  14
HETATM   14  C   UNL     1      43.267 -14.966   5.626  1.00  0.00     0.025 A 
HETATM   15  C   UNL     1      43.191 -15.082   4.184  1.00  0.00     0.003 A 
HETATM   16  C   UNL     1      43.483 -16.404   3.848  1.00  0.00     0.043 A 
HETATM   17  C   UNL     1      42.904 -14.192   3.123  1.00  0.00     0.014 A 
HETATM   18  C   UNL     1      43.497 -16.879   2.531  1.00  0.00     0.030 A 
HETATM   19  N   UNL     1      43.737 -17.072   5.018  1.00  0.00    -0.359 N 
HETATM   20  C   UNL     1      43.210 -15.974   1.508  1.00  0.00     0.002 A 
HETATM   21  C   UNL     1      42.918 -14.647   1.798  1.00  0.00     0.001 A 
HETATM   22  H   UNL     1      43.984 -18.050   5.071  1.00  0.00     0.166 HD
HETATM   23  C   UNL     1      43.630 -16.230   6.092  1.00  0.00     0.016 A 
HETATM   24  C   UNL     1      43.896 -16.729   7.470  1.00  0.00     0.069 C 
ENDBRANCH   5  14
BRANCH   5  25
HETATM   25  O   UNL     1      42.992 -13.976   7.872  1.00  0.00    -0.371 OA
HETATM   26  H   UNL     1      42.554 -13.214   8.283  1.00  0.00     0.212 HD
ENDBRANCH   5  25
TORSDOF 2
ENDMDL
MODEL 7
REMARK VINA RESULT:      -7.6      2.921      4.371
REMARK  2 active torsions:
REMARK  status: ('A' for Active; 'I' for Inactive)
REMARK    1  A    between atoms: C_5  and  C_7 
REMARK    2  A    between atoms: C_5  and  O_6 
ROOT
HETATM    1  C   UNL     1      40.741  -9.840   1.069  1.00  0.00     0.050 C 
HETATM    2  C   UNL     1      40.545 -10.715   2.268  1.00  0.00    -0.034 A 
HETATM    3  C   UNL     1      41.583 -11.189   3.059  1.00  0.00     0.052 A 
HETATM    4  C   UNL     1      41.380 -12.019   4.175  1.00  0.00     0.039 A 
HETATM    5  C   UNL     1      42.715 -12.321   4.824  1.00  0.00     0.200 A 
HETATM    6  C   UNL     1      43.708 -11.569   3.871  1.00  0.00     0.266 A 
HETATM    7  O   UNL     1      44.923 -11.471   3.948  1.00  0.00    -0.269 OA
HETATM    8  N   UNL     1      42.939 -10.933   2.897  1.00  0.00    -0.323 N 
HETATM    9  C   UNL     1      40.090 -12.374   4.536  1.00  0.00     0.046 A 
HETATM   10 CL   UNL     1      39.737 -13.318   5.926  1.00  0.00    -0.084 Cl
HETATM   11  C   UNL     1      39.024 -11.918   3.754  1.00  0.00     0.025 A 
HETATM   12  C   UNL     1      39.249 -11.103   2.632  1.00  0.00     0.011 A 
HETATM   13  H   UNL     1      43.363 -10.371   2.175  1.00  0.00     0.169 HD
ENDROOT
BRANCH   5  14
HETATM   14  C   UNL     1      42.934 -13.819   4.808  1.00  0.00     0.025 A 
HETATM   15  C   UNL     1      42.990 -14.693   3.654  1.00  0.00     0.003 A 
HETATM   16  C   UNL     1      43.211 -15.990   4.114  1.00  0.00     0.043 A 
HETATM   17  C   UNL     1      42.877 -14.510   2.256  1.00  0.00     0.014 A 
HETATM   18  C   UNL     1      43.317 -17.101   3.267  1.00  0.00     0.030 A 
HETATM   19  N   UNL     1      43.298 -15.926   5.480  1.00  0.00    -0.359 N 
HETATM   20  C   UNL     1      43.201 -16.885   1.893  1.00  0.00     0.002 A 
HETATM   21  C   UNL     1      42.985 -15.607   1.392  1.00  0.00     0.001 A 
HETATM   22  H   UNL     1      43.463 -16.724   6.077  1.00  0.00     0.166 HD
HETATM   23  C   UNL     1      43.152 -14.636   5.918  1.00  0.00     0.016 A 
HETATM   24  C   UNL     1      43.244 -14.319   7.369  1.00  0.00     0.069 C 
ENDBRANCH   5  14
BRANCH   5  25
HETATM   25  O   UNL     1      42.765 -11.735   6.124  1.00  0.00    -0.371 OA
HETATM   26  H   UNL     1      42.669 -12.455   6.766  1.00  0.00     0.212 HD
ENDBRANCH   5  25
TORSDOF 2
ENDMDL
MODEL 8
REMARK VINA RESULT:      -7.4      2.334      3.145
REMARK  2 active torsions:
REMARK  status: ('A' for Active; 'I' for Inactive)
REMARK    1  A    between atoms: C_5  and  C_7 
REMARK    2  A    between atoms: C_5  and  O_6 
ROOT
HETATM    1  C   UNL     1      43.026 -11.495   6.538  1.00  0.00     0.050 C 
HETATM    2  C   UNL     1      42.318 -12.768   6.191  1.00  0.00    -0.034 A 
HETATM    3  C   UNL     1      42.918 -14.020   6.214  1.00  0.00     0.052 A 
HETATM    4  C   UNL     1      42.239 -15.203   5.874  1.00  0.00     0.039 A 
HETATM    5  C   UNL     1      43.176 -16.382   6.037  1.00  0.00     0.200 A 
HETATM    6  C   UNL     1      44.505 -15.673   6.476  1.00  0.00     0.266 A 
HETATM    7  O   UNL     1      45.584 -16.170   6.759  1.00  0.00    -0.269 OA
HETATM    8  N   UNL     1      44.231 -14.309   6.565  1.00  0.00    -0.323 N 
HETATM    9  C   UNL     1      40.900 -15.144   5.521  1.00  0.00     0.046 A 
HETATM   10 CL   UNL     1      39.968 -16.541   5.166  1.00  0.00    -0.084 Cl
HETATM   11  C   UNL     1      40.270 -13.896   5.481  1.00  0.00     0.025 A 
HETATM   12  C   UNL     1      40.971 -12.723   5.808  1.00  0.00     0.011 A 
HETATM   13  H   UNL     1      44.938 -13.647   6.846  1.00  0.00     0.169 HD
ENDROOT
BRANCH   5  14
HETATM   14  C   UNL     1      43.317 -17.077   4.699  1.00  0.00     0.025 A 
HETATM   15  C   UNL     1      43.535 -18.488   4.455  1.00  0.00     0.003 A 
HETATM   16  C   UNL     1      43.600 -18.675   3.074  1.00  0.00     0.043 A 
HETATM   17  C   UNL     1      43.684 -19.633   5.272  1.00  0.00     0.014 A 
HETATM   18  C   UNL     1      43.807 -19.924   2.474  1.00  0.00     0.030 A 
HETATM   19  N   UNL     1      43.420 -17.448   2.491  1.00  0.00    -0.359 N 
HETATM   20  C   UNL     1      43.950 -21.032   3.310  1.00  0.00     0.002 A 
HETATM   21  C   UNL     1      43.888 -20.891   4.692  1.00  0.00     0.001 A 
HETATM   22  H   UNL     1      43.413 -17.290   1.493  1.00  0.00     0.166 HD
HETATM   23  C   UNL     1      43.233 -16.480   3.441  1.00  0.00     0.016 A 
HETATM   24  C   UNL     1      42.984 -15.068   3.038  1.00  0.00     0.069 C 
ENDBRANCH   5  14
BRANCH   5  25
HETATM   25  O   UNL     1      42.714 -17.226   7.090  1.00  0.00    -0.371 OA
HETATM   26  H   UNL     1      42.049 -17.820   6.709  1.00  0.00     0.212 HD
ENDBRANCH   5  25
TORSDOF 2
ENDMDL
MODEL 9
REMARK VINA RESULT:      -7.4      2.827      3.582
REMARK  2 active torsions:
REMARK  status: ('A' for Active; 'I' for Inactive)
REMARK    1  A    between atoms: C_5  and  C_7 
REMARK    2  A    between atoms: C_5  and  O_6 
ROOT
HETATM    1  C   UNL     1      40.060  -8.843   3.725  1.00  0.00     0.050 C 
HETATM    2  C   UNL     1      40.182 -10.222   4.297  1.00  0.00    -0.034 A 
HETATM    3  C   UNL     1      41.343 -10.981   4.248  1.00  0.00     0.052 A 
HETATM    4  C   UNL     1      41.434 -12.279   4.781  1.00  0.00     0.039 A 
HETATM    5  C   UNL     1      42.842 -12.802   4.586  1.00  0.00     0.200 A 
HETATM    6  C   UNL     1      43.518 -11.614   3.815  1.00  0.00     0.266 A 
HETATM    7  O   UNL     1      44.671 -11.507   3.426  1.00  0.00    -0.269 OA
HETATM    8  N   UNL     1      42.561 -10.608   3.695  1.00  0.00    -0.323 N 
HETATM    9  C   UNL     1      40.334 -12.836   5.413  1.00  0.00     0.046 A 
HETATM   10 CL   UNL     1      40.373 -14.380   6.162  1.00  0.00    -0.084 Cl
HETATM   11  C   UNL     1      39.147 -12.098   5.472  1.00  0.00     0.025 A 
HETATM   12  C   UNL     1      39.071 -10.810   4.917  1.00  0.00     0.011 A 
HETATM   13  H   UNL     1      42.772  -9.732   3.241  1.00  0.00     0.169 HD
ENDROOT
BRANCH   5  14
HETATM   14  C   UNL     1      42.779 -14.061   3.748  1.00  0.00     0.025 A 
HETATM   15  C   UNL     1      43.168 -15.402   4.136  1.00  0.00     0.003 A 
HETATM   16  C   UNL     1      42.936 -16.243   3.048  1.00  0.00     0.043 A 
HETATM   17  C   UNL     1      43.695 -15.990   5.310  1.00  0.00     0.014 A 
HETATM   18  C   UNL     1      43.203 -17.618   3.066  1.00  0.00     0.030 A 
HETATM   19  N   UNL     1      42.422 -15.469   2.041  1.00  0.00    -0.359 N 
HETATM   20  C   UNL     1      43.723 -18.165   4.240  1.00  0.00     0.002 A 
HETATM   21  C   UNL     1      43.965 -17.364   5.350  1.00  0.00     0.001 A 
HETATM   22  H   UNL     1      42.153 -15.824   1.134  1.00  0.00     0.166 HD
HETATM   23  C   UNL     1      42.303 -14.165   2.441  1.00  0.00     0.016 A 
HETATM   24  C   UNL     1      41.733 -13.144   1.519  1.00  0.00     0.069 C 
ENDBRANCH   5  14
BRANCH   5  25
HETATM   25  O   UNL     1      43.477 -12.972   5.852  1.00  0.00    -0.371 OA
HETATM   26  H   UNL     1      42.796 -12.847   6.531  1.00  0.00     0.212 HD
ENDBRANCH   5  25
TORSDOF 2
ENDMDL
MODEL 10
REMARK VINA RESULT:      -7.4      2.525      5.795
REMARK  2 active torsions:
REMARK  status: ('A' for Active; 'I' for Inactive)
REMARK    1  A    between atoms: C_5  and  C_7 
REMARK    2  A    between atoms: C_5  and  O_6 
ROOT
HETATM    1  C   UNL     1      43.581 -15.990   1.990  1.00  0.00     0.050 C 
HETATM    2  C   UNL     1      42.687 -15.470   3.073  1.00  0.00    -0.034 A 
HETATM    3  C   UNL     1      42.369 -14.129   3.238  1.00  0.00     0.052 A 
HETATM    4  C   UNL     1      41.536 -13.659   4.269  1.00  0.00     0.039 A 
HETATM    5  C   UNL     1      41.375 -12.159   4.137  1.00  0.00     0.200 A 
HETATM    6  C   UNL     1      42.287 -11.850   2.899  1.00  0.00     0.266 A 
HETATM    7  O   UNL     1      42.502 -10.779   2.350  1.00  0.00    -0.269 OA
HETATM    8  N   UNL     1      42.794 -13.068   2.449  1.00  0.00    -0.323 N 
HETATM    9  C   UNL     1      40.974 -14.563   5.157  1.00  0.00     0.046 A 
HETATM   10 CL   UNL     1      39.884 -14.093   6.398  1.00  0.00    -0.084 Cl
HETATM   11  C   UNL     1      41.282 -15.920   5.021  1.00  0.00     0.025 A 
HETATM   12  C   UNL     1      42.131 -16.367   3.995  1.00  0.00     0.011 A 
HETATM   13  H   UNL     1      43.403 -13.121   1.647  1.00  0.00     0.169 HD
ENDROOT
BRANCH   5  14
HETATM   14  C   UNL     1      41.890 -11.504   5.401  1.00  0.00     0.025 A 
HETATM   15  C   UNL     1      43.265 -11.393   5.844  1.00  0.00     0.003 A 
HETATM   16  C   UNL     1      43.265 -10.712   7.061  1.00  0.00     0.043 A 
HETATM   17  C   UNL     1      44.516 -11.804   5.330  1.00  0.00     0.014 A 
HETATM   18  C   UNL     1      44.430 -10.428   7.784  1.00  0.00     0.030 A 
HETATM   19  N   UNL     1      41.962 -10.406   7.354  1.00  0.00    -0.359 N 
HETATM   20  C   UNL     1      45.649 -10.847   7.248  1.00  0.00     0.002 A 
HETATM   21  C   UNL     1      45.694 -11.525   6.035  1.00  0.00     0.001 A 
HETATM   22  H   UNL     1      41.669  -9.904   8.180  1.00  0.00     0.166 HD
HETATM   23  C   UNL     1      41.123 -10.854   6.369  1.00  0.00     0.016 A 
HETATM   24  C   UNL     1      39.657 -10.606   6.458  1.00  0.00     0.069 C 
ENDBRANCH   5  14
BRANCH   5  25
HETATM   25  O   UNL     1      40.020 -11.843   3.823  1.00  0.00    -0.371 OA
HETATM   26  H   UNL     1      39.792 -11.041   4.317  1.00  0.00     0.212 HD
ENDBRANCH   5  25
TORSDOF 2
ENDMDL
