MODEL 1
REMARK VINA RESULT:      -9.6      0.000      0.000
REMARK  9 active torsions:
REMARK  status: ('A' for Active; 'I' for Inactive)
REMARK    1  A    between atoms: C_7  and  O_8 
REMARK    2  A    between atoms: O_8  and  C_9 
REMARK    3  A    between atoms: C_10  and  N_11 
REMARK    4  A    between atoms: N_11  and  C_12 
REMARK    5  A    between atoms: C_14  and  C_15 
REMARK       I    between atoms: C_15  and  N_16 
REMARK    6  A    between atoms: N_16  and  C_17 
REMARK    7  A    between atoms: C_17  and  C_18 
REMARK    8  A    between atoms: C_18  and  N_19 
REMARK    9  A    between atoms: N_29  and  C_30 
ROOT
HETATM    1  C   UNL     1      42.519 -13.922   6.048  1.00  0.00     0.122 C 
HETATM    2  C   UNL     1      41.500 -14.546   5.433  1.00  0.00     0.119 C 
HETATM    3  C   UNL     1      41.717 -15.943   4.893  1.00  0.00     0.293 C 
HETATM    4  O   UNL     1      40.724 -16.519   4.439  1.00  0.00    -0.264 OA
HETATM    5  N   UNL     1      43.004 -16.467   4.998  1.00  0.00    -0.195 N 
HETATM    6  N   UNL     1      43.960 -15.917   5.823  1.00  0.00    -0.174 NA
HETATM    7  C   UNL     1      43.717 -14.746   6.305  1.00  0.00     0.178 C 
ENDROOT
BRANCH   2   8
HETATM    8  N   UNL     1      40.220 -14.024   5.184  1.00  0.00    -0.253 NA
HETATM    9  H   UNL     1      39.831 -13.703   6.082  1.00  0.00     0.134 HD
BRANCH   8  10
HETATM   10  C   UNL     1      39.938 -13.026   4.211  1.00  0.00     0.014 A 
HETATM   11  C   UNL     1      40.118 -13.352   2.859  1.00  0.00     0.040 A 
HETATM   12  C   UNL     1      39.855 -12.410   1.858  1.00  0.00     0.033 A 
HETATM   13  C   UNL     1      39.380 -11.138   2.191  1.00  0.00     0.017 A 
HETATM   14  C   UNL     1      39.184 -10.811   3.530  1.00  0.00     0.003 A 
HETATM   15  C   UNL     1      39.468 -11.745   4.530  1.00  0.00     0.024 A 
BRANCH  12  16
HETATM   16  C   UNL     1      40.072 -12.791   0.442  1.00  0.00     0.251 C 
HETATM   17  N   UNL     1      39.079 -13.549  -0.149  1.00  0.00    -0.355 N 
HETATM   18  H   UNL     1      38.212 -13.609   0.380  1.00  0.00     0.162 HD
HETATM   19  O   UNL     1      41.095 -12.478  -0.155  1.00  0.00    -0.268 OA
BRANCH  17  20
HETATM   20  C   UNL     1      38.925 -13.641  -1.600  1.00  0.00     0.150 C 
BRANCH  20  21
HETATM   21  C   UNL     1      37.602 -13.137  -2.216  1.00  0.00     0.253 C 
BRANCH  21  22
HETATM   22  N   UNL     1      37.797 -11.914  -3.087  1.00  0.00    -0.077 N 
HETATM   23  H   UNL     1      37.735 -12.287  -4.050  1.00  0.00     0.279 HD
HETATM   24  C   UNL     1      36.755 -10.858  -2.908  1.00  0.00     0.269 C 
HETATM   25  C   UNL     1      39.188 -11.365  -2.973  1.00  0.00     0.269 C 
ENDBRANCH  21  22
ENDBRANCH  20  21
ENDBRANCH  17  20
ENDBRANCH  12  16
ENDBRANCH   8  10
ENDBRANCH   2   8
BRANCH   1  26
HETATM   26  O   UNL     1      42.393 -12.616   6.513  1.00  0.00    -0.307 OA
BRANCH  26  27
HETATM   27  C   UNL     1      43.514 -11.915   6.878  1.00  0.00     0.076 A 
HETATM   28  C   UNL     1      44.532 -11.811   5.934  1.00  0.00     0.039 A 
HETATM   29  C   UNL     1      45.692 -11.102   6.243  1.00  0.00     0.027 A 
HETATM   30  C   UNL     1      45.838 -10.506   7.498  1.00  0.00     0.040 A 
HETATM   31  C   UNL     1      44.835 -10.636   8.474  1.00  0.00    -0.038 A 
HETATM   32 CL   UNL     1      47.284  -9.611   7.800  1.00  0.00    -0.084 Cl
HETATM   33  C   UNL     1      44.955  -9.987   9.825  1.00  0.00     0.050 C 
HETATM   34  C   UNL     1      43.674 -11.362   8.154  1.00  0.00     0.045 A 
ENDBRANCH  26  27
ENDBRANCH   1  26
BRANCH   5  35
HETATM   35  C   UNL     1      43.363 -17.744   4.456  1.00  0.00     0.084 A 
HETATM   36  C   UNL     1      43.365 -18.038   3.079  1.00  0.00     0.063 A 
HETATM   37 CL   UNL     1      43.221 -16.826   1.845  1.00  0.00    -0.082 Cl
HETATM   38  C   UNL     1      43.669 -19.332   2.628  1.00  0.00     0.026 A 
HETATM   39  C   UNL     1      44.006 -20.338   3.533  1.00  0.00     0.002 A 
HETATM   40  C   UNL     1      44.066 -20.050   4.890  1.00  0.00     0.002 A 
HETATM   41  C   UNL     1      43.756 -18.765   5.345  1.00  0.00     0.033 A 
ENDBRANCH   5  35
TORSDOF 9
ENDMDL
MODEL 2
REMARK VINA RESULT:      -9.5      2.732      7.917
REMARK  9 active torsions:
REMARK  status: ('A' for Active; 'I' for Inactive)
REMARK    1  A    between atoms: C_7  and  O_8 
REMARK    2  A    between atoms: O_8  and  C_9 
REMARK    3  A    between atoms: C_10  and  N_11 
REMARK    4  A    between atoms: N_11  and  C_12 
REMARK    5  A    between atoms: C_14  and  C_15 
REMARK       I    between atoms: C_15  and  N_16 
REMARK    6  A    between atoms: N_16  and  C_17 
REMARK    7  A    between atoms: C_17  and  C_18 
REMARK    8  A    between atoms: C_18  and  N_19 
REMARK    9  A    between atoms: N_29  and  C_30 
ROOT
HETATM    1  C   UNL     1      41.966 -14.108   2.009  1.00  0.00     0.122 C 
HETATM    2  C   UNL     1      41.303 -14.663   3.037  1.00  0.00     0.119 C 
HETATM    3  C   UNL     1      41.731 -16.027   3.532  1.00  0.00     0.293 C 
HETATM    4  O   UNL     1      41.168 -16.447   4.548  1.00  0.00    -0.264 OA
HETATM    5  N   UNL     1      42.749 -16.664   2.826  1.00  0.00    -0.195 N 
HETATM    6  N   UNL     1      43.560 -15.995   1.937  1.00  0.00    -0.174 NA
HETATM    7  C   UNL     1      43.189 -14.814   1.576  1.00  0.00     0.178 C 
ENDROOT
BRANCH   2   8
HETATM    8  N   UNL     1      40.189 -14.130   3.707  1.00  0.00    -0.253 NA
HETATM    9  H   UNL     1      39.825 -14.857   4.339  1.00  0.00     0.134 HD
BRANCH   8  10
HETATM   10  C   UNL     1      40.199 -12.902   4.425  1.00  0.00     0.014 A 
HETATM   11  C   UNL     1      41.327 -12.600   5.201  1.00  0.00     0.040 A 
HETATM   12  C   UNL     1      41.392 -11.406   5.928  1.00  0.00     0.033 A 
HETATM   13  C   UNL     1      40.345 -10.482   5.866  1.00  0.00     0.017 A 
HETATM   14  C   UNL     1      39.228 -10.767   5.086  1.00  0.00     0.003 A 
HETATM   15  C   UNL     1      39.154 -11.970   4.378  1.00  0.00     0.024 A 
BRANCH  12  16
HETATM   16  C   UNL     1      42.597 -11.132   6.748  1.00  0.00     0.251 C 
HETATM   17  N   UNL     1      42.444 -10.226   7.780  1.00  0.00    -0.355 N 
HETATM   18  H   UNL     1      41.480  -9.981   7.998  1.00  0.00     0.162 HD
HETATM   19  O   UNL     1      43.674 -11.657   6.497  1.00  0.00    -0.268 OA
BRANCH  17  20
HETATM   20  C   UNL     1      43.367 -10.168   8.913  1.00  0.00     0.150 C 
BRANCH  20  21
HETATM   21  C   UNL     1      42.935  -9.354  10.152  1.00  0.00     0.253 C 
BRANCH  21  22
HETATM   22  N   UNL     1      42.122 -10.176  11.130  1.00  0.00    -0.077 N 
HETATM   23  H   UNL     1      42.085 -11.111  10.690  1.00  0.00     0.279 HD
HETATM   24  C   UNL     1      42.734 -10.300  12.487  1.00  0.00     0.269 C 
HETATM   25  C   UNL     1      40.695  -9.719  11.189  1.00  0.00     0.269 C 
ENDBRANCH  21  22
ENDBRANCH  20  21
ENDBRANCH  17  20
ENDBRANCH  12  16
ENDBRANCH   8  10
ENDBRANCH   2   8
BRANCH   1  26
HETATM   26  O   UNL     1      41.580 -12.881   1.476  1.00  0.00    -0.307 OA
BRANCH  26  27
HETATM   27  C   UNL     1      40.552 -12.830   0.568  1.00  0.00     0.076 A 
HETATM   28  C   UNL     1      39.626 -11.802   0.718  1.00  0.00     0.039 A 
HETATM   29  C   UNL     1      38.565 -11.690  -0.180  1.00  0.00     0.027 A 
HETATM   30  C   UNL     1      38.425 -12.613  -1.221  1.00  0.00     0.040 A 
HETATM   31  C   UNL     1      39.331 -13.678  -1.360  1.00  0.00    -0.038 A 
HETATM   32 CL   UNL     1      37.110 -12.394  -2.318  1.00  0.00    -0.084 Cl
HETATM   33  C   UNL     1      39.219 -14.673  -2.482  1.00  0.00     0.050 C 
HETATM   34  C   UNL     1      40.391 -13.785  -0.442  1.00  0.00     0.045 A 
ENDBRANCH  26  27
ENDBRANCH   1  26
BRANCH   5  35
HETATM   35  C   UNL     1      43.194 -17.989   3.141  1.00  0.00     0.084 A 
HETATM   36  C   UNL     1      43.969 -18.307   4.273  1.00  0.00     0.063 A 
HETATM   37 CL   UNL     1      44.242 -17.202   5.582  1.00  0.00    -0.082 Cl
HETATM   38  C   UNL     1      44.420 -19.620   4.481  1.00  0.00     0.026 A 
HETATM   39  C   UNL     1      44.079 -20.637   3.590  1.00  0.00     0.002 A 
HETATM   40  C   UNL     1      43.266 -20.352   2.500  1.00  0.00     0.002 A 
HETATM   41  C   UNL     1      42.821 -19.045   2.284  1.00  0.00     0.033 A 
ENDBRANCH   5  35
TORSDOF 9
ENDMDL
MODEL 3
REMARK VINA RESULT:      -9.4      3.186      8.679
REMARK  9 active torsions:
REMARK  status: ('A' for Active; 'I' for Inactive)
REMARK    1  A    between atoms: C_7  and  O_8 
REMARK    2  A    between atoms: O_8  and  C_9 
REMARK    3  A    between atoms: C_10  and  N_11 
REMARK    4  A    between atoms: N_11  and  C_12 
REMARK    5  A    between atoms: C_14  and  C_15 
REMARK       I    between atoms: C_15  and  N_16 
REMARK    6  A    between atoms: N_16  and  C_17 
REMARK    7  A    between atoms: C_17  and  C_18 
REMARK    8  A    between atoms: C_18  and  N_19 
REMARK    9  A    between atoms: N_29  and  C_30 
ROOT
HETATM    1  C   UNL     1      42.279 -13.864   4.879  1.00  0.00     0.122 C 
HETATM    2  C   UNL     1      42.605 -12.695   4.304  1.00  0.00     0.119 C 
HETATM    3  C   UNL     1      41.655 -12.085   3.297  1.00  0.00     0.293 C 
HETATM    4  O   UNL     1      41.942 -10.958   2.881  1.00  0.00    -0.264 OA
HETATM    5  N   UNL     1      40.523 -12.827   2.967  1.00  0.00    -0.195 N 
HETATM    6  N   UNL     1      40.094 -13.894   3.725  1.00  0.00    -0.174 NA
HETATM    7  C   UNL     1      40.912 -14.356   4.608  1.00  0.00     0.178 C 
ENDROOT
BRANCH   2   8
HETATM    8  N   UNL     1      43.788 -11.962   4.498  1.00  0.00    -0.253 NA
HETATM    9  H   UNL     1      43.831 -11.235   3.770  1.00  0.00     0.134 HD
BRANCH   8  10
HETATM   10  C   UNL     1      44.163 -11.360   5.730  1.00  0.00     0.014 A 
HETATM   11  C   UNL     1      43.202 -10.600   6.413  1.00  0.00     0.040 A 
HETATM   12  C   UNL     1      43.515  -9.984   7.631  1.00  0.00     0.033 A 
HETATM   13  C   UNL     1      44.783 -10.143   8.198  1.00  0.00     0.017 A 
HETATM   14  C   UNL     1      45.738 -10.907   7.535  1.00  0.00     0.003 A 
HETATM   15  C   UNL     1      45.432 -11.504   6.308  1.00  0.00     0.024 A 
BRANCH  12  16
HETATM   16  C   UNL     1      42.474  -9.178   8.313  1.00  0.00     0.251 C 
HETATM   17  N   UNL     1      41.643  -9.859   9.183  1.00  0.00    -0.355 N 
HETATM   18  H   UNL     1      41.945 -10.802   9.416  1.00  0.00     0.162 HD
HETATM   19  O   UNL     1      42.341  -7.983   8.087  1.00  0.00    -0.268 OA
BRANCH  17  20
HETATM   20  C   UNL     1      40.879  -9.178  10.227  1.00  0.00     0.150 C 
BRANCH  20  21
HETATM   21  C   UNL     1      39.524  -9.791  10.642  1.00  0.00     0.253 C 
BRANCH  21  22
HETATM   22  N   UNL     1      39.195  -9.538  12.099  1.00  0.00    -0.077 N 
HETATM   23  H   UNL     1      38.183  -9.739  12.159  1.00  0.00     0.279 HD
HETATM   24  C   UNL     1      39.924 -10.423  13.056  1.00  0.00     0.269 C 
HETATM   25  C   UNL     1      39.325  -8.087  12.455  1.00  0.00     0.269 C 
ENDBRANCH  21  22
ENDBRANCH  20  21
ENDBRANCH  17  20
ENDBRANCH  12  16
ENDBRANCH   8  10
ENDBRANCH   2   8
BRANCH   1  26
HETATM   26  O   UNL     1      43.141 -14.499   5.769  1.00  0.00    -0.307 OA
BRANCH  26  27
HETATM   27  C   UNL     1      43.327 -15.856   5.682  1.00  0.00     0.076 A 
HETATM   28  C   UNL     1      43.239 -16.585   6.864  1.00  0.00     0.039 A 
HETATM   29  C   UNL     1      43.409 -17.969   6.838  1.00  0.00     0.027 A 
HETATM   30  C   UNL     1      43.676 -18.622   5.632  1.00  0.00     0.040 A 
HETATM   31  C   UNL     1      43.806 -17.893   4.437  1.00  0.00    -0.038 A 
HETATM   32 CL   UNL     1      43.837 -20.340   5.667  1.00  0.00    -0.084 Cl
HETATM   33  C   UNL     1      44.071 -18.570   3.121  1.00  0.00     0.050 C 
HETATM   34  C   UNL     1      43.643 -16.497   4.478  1.00  0.00     0.045 A 
ENDBRANCH  26  27
ENDBRANCH   1  26
BRANCH   5  35
HETATM   35  C   UNL     1      39.585 -12.402   1.972  1.00  0.00     0.084 A 
HETATM   36  C   UNL     1      39.640 -12.801   0.622  1.00  0.00     0.063 A 
HETATM   37 CL   UNL     1      40.663 -14.079   0.047  1.00  0.00    -0.082 Cl
HETATM   38  C   UNL     1      38.721 -12.292  -0.309  1.00  0.00     0.026 A 
HETATM   39  C   UNL     1      37.719 -11.410   0.093  1.00  0.00     0.002 A 
HETATM   40  C   UNL     1      37.614 -11.052   1.431  1.00  0.00     0.002 A 
HETATM   41  C   UNL     1      38.531 -11.549   2.361  1.00  0.00     0.033 A 
ENDBRANCH   5  35
TORSDOF 9
ENDMDL
MODEL 4
REMARK VINA RESULT:      -9.3      1.885      6.225
REMARK  9 active torsions:
REMARK  status: ('A' for Active; 'I' for Inactive)
REMARK    1  A    between atoms: C_7  and  O_8 
REMARK    2  A    between atoms: O_8  and  C_9 
REMARK    3  A    between atoms: C_10  and  N_11 
REMARK    4  A    between atoms: N_11  and  C_12 
REMARK    5  A    between atoms: C_14  and  C_15 
REMARK       I    between atoms: C_15  and  N_16 
REMARK    6  A    between atoms: N_16  and  C_17 
REMARK    7  A    between atoms: C_17  and  C_18 
REMARK    8  A    between atoms: C_18  and  N_19 
REMARK    9  A    between atoms: N_29  and  C_30 
ROOT
HETATM    1  C   UNL     1      42.397 -14.116   5.283  1.00  0.00     0.122 C 
HETATM    2  C   UNL     1      42.751 -13.098   4.481  1.00  0.00     0.119 C 
HETATM    3  C   UNL     1      43.567 -11.962   5.058  1.00  0.00     0.293 C 
HETATM    4  O   UNL     1      43.965 -11.107   4.260  1.00  0.00    -0.264 OA
HETATM    5  N   UNL     1      43.832 -12.006   6.425  1.00  0.00    -0.195 N 
HETATM    6  N   UNL     1      43.664 -13.151   7.173  1.00  0.00    -0.174 NA
HETATM    7  C   UNL     1      43.007 -14.118   6.628  1.00  0.00     0.178 C 
ENDROOT
BRANCH   2   8
HETATM    8  N   UNL     1      42.408 -12.932   3.129  1.00  0.00    -0.253 NA
HETATM    9  H   UNL     1      42.621 -13.814   2.640  1.00  0.00     0.134 HD
BRANCH   8  10
HETATM   10  C   UNL     1      41.137 -12.485   2.674  1.00  0.00     0.014 A 
HETATM   11  C   UNL     1      40.811 -12.686   1.325  1.00  0.00     0.040 A 
HETATM   12  C   UNL     1      39.574 -12.266   0.821  1.00  0.00     0.033 A 
HETATM   13  C   UNL     1      38.633 -11.668   1.665  1.00  0.00     0.017 A 
HETATM   14  C   UNL     1      38.943 -11.479   3.009  1.00  0.00     0.003 A 
HETATM   15  C   UNL     1      40.187 -11.878   3.506  1.00  0.00     0.024 A 
BRANCH  12  16
HETATM   16  C   UNL     1      39.274 -12.484  -0.614  1.00  0.00     0.251 C 
HETATM   17  N   UNL     1      37.945 -12.671  -0.942  1.00  0.00    -0.355 N 
HETATM   18  H   UNL     1      37.284 -12.450  -0.201  1.00  0.00     0.162 HD
HETATM   19  O   UNL     1      40.165 -12.531  -1.453  1.00  0.00    -0.268 OA
BRANCH  17  20
HETATM   20  C   UNL     1      37.440 -12.471  -2.300  1.00  0.00     0.150 C 
BRANCH  20  21
HETATM   21  C   UNL     1      36.804 -11.105  -2.637  1.00  0.00     0.253 C 
BRANCH  21  22
HETATM   22  N   UNL     1      37.483 -10.423  -3.807  1.00  0.00    -0.077 N 
HETATM   23  H   UNL     1      37.639 -11.192  -4.480  1.00  0.00     0.279 HD
HETATM   24  C   UNL     1      36.660  -9.363  -4.462  1.00  0.00     0.269 C 
HETATM   25  C   UNL     1      38.855  -9.936  -3.448  1.00  0.00     0.269 C 
ENDBRANCH  21  22
ENDBRANCH  20  21
ENDBRANCH  17  20
ENDBRANCH  12  16
ENDBRANCH   8  10
ENDBRANCH   2   8
BRANCH   1  26
HETATM   26  O   UNL     1      41.599 -15.159   4.820  1.00  0.00    -0.307 OA
BRANCH  26  27
HETATM   27  C   UNL     1      42.185 -16.250   4.230  1.00  0.00     0.076 A 
HETATM   28  C   UNL     1      41.989 -16.410   2.861  1.00  0.00     0.039 A 
HETATM   29  C   UNL     1      42.568 -17.494   2.202  1.00  0.00     0.027 A 
HETATM   30  C   UNL     1      43.334 -18.422   2.913  1.00  0.00     0.040 A 
HETATM   31  C   UNL     1      43.507 -18.293   4.302  1.00  0.00    -0.038 A 
HETATM   32 CL   UNL     1      44.052 -19.719   2.028  1.00  0.00    -0.084 Cl
HETATM   33  C   UNL     1      44.343 -19.263   5.090  1.00  0.00     0.050 C 
HETATM   34  C   UNL     1      42.910 -17.202   4.956  1.00  0.00     0.045 A 
ENDBRANCH  26  27
ENDBRANCH   1  26
BRANCH   5  35
HETATM   35  C   UNL     1      44.524 -10.956   7.111  1.00  0.00     0.084 A 
HETATM   36  C   UNL     1      43.878  -9.887   7.762  1.00  0.00     0.063 A 
HETATM   37 CL   UNL     1      42.171  -9.850   8.071  1.00  0.00    -0.082 Cl
HETATM   38  C   UNL     1      44.627  -8.861   8.359  1.00  0.00     0.026 A 
HETATM   39  C   UNL     1      46.020  -8.901   8.349  1.00  0.00     0.002 A 
HETATM   40  C   UNL     1      46.673  -9.978   7.763  1.00  0.00     0.002 A 
HETATM   41  C   UNL     1      45.933 -10.998   7.160  1.00  0.00     0.033 A 
ENDBRANCH   5  35
TORSDOF 9
ENDMDL
MODEL 5
REMARK VINA RESULT:      -9.3      3.379      8.586
REMARK  9 active torsions:
REMARK  status: ('A' for Active; 'I' for Inactive)
REMARK    1  A    between atoms: C_7  and  O_8 
REMARK    2  A    between atoms: O_8  and  C_9 
REMARK    3  A    between atoms: C_10  and  N_11 
REMARK    4  A    between atoms: N_11  and  C_12 
REMARK    5  A    between atoms: C_14  and  C_15 
REMARK       I    between atoms: C_15  and  N_16 
REMARK    6  A    between atoms: N_16  and  C_17 
REMARK    7  A    between atoms: C_17  and  C_18 
REMARK    8  A    between atoms: C_18  and  N_19 
REMARK    9  A    between atoms: N_29  and  C_30 
ROOT
HETATM    1  C   UNL     1      39.831 -14.967   1.833  1.00  0.00     0.122 C 
HETATM    2  C   UNL     1      39.448 -13.740   2.224  1.00  0.00     0.119 C 
HETATM    3  C   UNL     1      39.445 -12.617   1.211  1.00  0.00     0.293 C 
HETATM    4  O   UNL     1      38.980 -11.537   1.585  1.00  0.00    -0.264 OA
HETATM    5  N   UNL     1      39.925 -12.916  -0.063  1.00  0.00    -0.195 N 
HETATM    6  N   UNL     1      40.091 -14.210  -0.505  1.00  0.00    -0.174 NA
HETATM    7  C   UNL     1      40.037 -15.145   0.381  1.00  0.00     0.178 C 
ENDROOT
BRANCH   2   8
HETATM    8  N   UNL     1      39.077 -13.347   3.521  1.00  0.00    -0.253 NA
HETATM    9  H   UNL     1      38.763 -14.188   4.026  1.00  0.00     0.134 HD
BRANCH   8  10
HETATM   10  C   UNL     1      39.908 -12.602   4.401  1.00  0.00     0.014 A 
HETATM   11  C   UNL     1      39.289 -11.763   5.340  1.00  0.00     0.040 A 
HETATM   12  C   UNL     1      40.057 -11.006   6.233  1.00  0.00     0.033 A 
HETATM   13  C   UNL     1      41.452 -11.098   6.220  1.00  0.00     0.017 A 
HETATM   14  C   UNL     1      42.073 -11.940   5.302  1.00  0.00     0.003 A 
HETATM   15  C   UNL     1      41.307 -12.679   4.396  1.00  0.00     0.024 A 
BRANCH  12  16
HETATM   16  C   UNL     1      39.364 -10.121   7.200  1.00  0.00     0.251 C 
HETATM   17  N   UNL     1      39.552 -10.409   8.539  1.00  0.00    -0.355 N 
HETATM   18  H   UNL     1      40.296 -11.075   8.735  1.00  0.00     0.162 HD
HETATM   19  O   UNL     1      38.639  -9.209   6.826  1.00  0.00    -0.268 OA
BRANCH  17  20
HETATM   20  C   UNL     1      39.313  -9.422   9.591  1.00  0.00     0.150 C 
BRANCH  20  21
HETATM   21  C   UNL     1      40.147  -9.535  10.885  1.00  0.00     0.253 C 
BRANCH  21  22
HETATM   22  N   UNL     1      39.283  -9.567  12.129  1.00  0.00    -0.077 N 
HETATM   23  H   UNL     1      38.338  -9.775  11.765  1.00  0.00     0.279 HD
HETATM   24  C   UNL     1      39.666 -10.622  13.116  1.00  0.00     0.269 C 
HETATM   25  C   UNL     1      39.167  -8.212  12.762  1.00  0.00     0.269 C 
ENDBRANCH  21  22
ENDBRANCH  20  21
ENDBRANCH  17  20
ENDBRANCH  12  16
ENDBRANCH   8  10
ENDBRANCH   2   8
BRANCH   1  26
HETATM   26  O   UNL     1      39.907 -16.024   2.736  1.00  0.00    -0.307 OA
BRANCH  26  27
HETATM   27  C   UNL     1      41.017 -16.157   3.532  1.00  0.00     0.076 A 
HETATM   28  C   UNL     1      42.229 -16.405   2.893  1.00  0.00     0.039 A 
HETATM   29  C   UNL     1      43.394 -16.539   3.647  1.00  0.00     0.027 A 
HETATM   30  C   UNL     1      43.345 -16.435   5.041  1.00  0.00     0.040 A 
HETATM   31  C   UNL     1      42.122 -16.224   5.700  1.00  0.00    -0.038 A 
HETATM   32 CL   UNL     1      44.831 -16.574   5.909  1.00  0.00    -0.084 Cl
HETATM   33  C   UNL     1      42.042 -16.086   7.195  1.00  0.00     0.050 C 
HETATM   34  C   UNL     1      40.953 -16.101   4.929  1.00  0.00     0.045 A 
ENDBRANCH  26  27
ENDBRANCH   1  26
BRANCH   5  35
HETATM   35  C   UNL     1      40.050 -11.926  -1.091  1.00  0.00     0.084 A 
HETATM   36  C   UNL     1      39.109 -11.745  -2.123  1.00  0.00     0.063 A 
HETATM   37 CL   UNL     1      37.541 -12.489  -2.125  1.00  0.00    -0.082 Cl
HETATM   38  C   UNL     1      39.332 -10.795  -3.132  1.00  0.00     0.026 A 
HETATM   39  C   UNL     1      40.471  -9.991  -3.110  1.00  0.00     0.002 A 
HETATM   40  C   UNL     1      41.380 -10.116  -2.068  1.00  0.00     0.002 A 
HETATM   41  C   UNL     1      41.168 -11.066  -1.065  1.00  0.00     0.033 A 
ENDBRANCH   5  35
TORSDOF 9
ENDMDL
MODEL 6
REMARK VINA RESULT:      -9.2      2.737      8.550
REMARK  9 active torsions:
REMARK  status: ('A' for Active; 'I' for Inactive)
REMARK    1  A    between atoms: C_7  and  O_8 
REMARK    2  A    between atoms: O_8  and  C_9 
REMARK    3  A    between atoms: C_10  and  N_11 
REMARK    4  A    between atoms: N_11  and  C_12 
REMARK    5  A    between atoms: C_14  and  C_15 
REMARK       I    between atoms: C_15  and  N_16 
REMARK    6  A    between atoms: N_16  and  C_17 
REMARK    7  A    between atoms: C_17  and  C_18 
REMARK    8  A    between atoms: C_18  and  N_19 
REMARK    9  A    between atoms: N_29  and  C_30 
ROOT
HETATM    1  C   UNL     1      42.273 -14.953   2.933  1.00  0.00     0.122 C 
HETATM    2  C   UNL     1      41.124 -14.373   3.321  1.00  0.00     0.119 C 
HETATM    3  C   UNL     1      40.137 -13.928   2.265  1.00  0.00     0.293 C 
HETATM    4  O   UNL     1      39.050 -13.506   2.669  1.00  0.00    -0.264 OA
HETATM    5  N   UNL     1      40.526 -14.076   0.935  1.00  0.00    -0.195 N 
HETATM    6  N   UNL     1      41.587 -14.870   0.560  1.00  0.00    -0.174 NA
HETATM    7  C   UNL     1      42.379 -15.273   1.495  1.00  0.00     0.178 C 
ENDROOT
BRANCH   2   8
HETATM    8  N   UNL     1      40.731 -14.081   4.637  1.00  0.00    -0.253 NA
HETATM    9  H   UNL     1      41.014 -14.872   5.233  1.00  0.00     0.134 HD
BRANCH   8  10
HETATM   10  C   UNL     1      41.068 -12.883   5.326  1.00  0.00     0.014 A 
HETATM   11  C   UNL     1      42.380 -12.741   5.800  1.00  0.00     0.040 A 
HETATM   12  C   UNL     1      42.768 -11.583   6.485  1.00  0.00     0.033 A 
HETATM   13  C   UNL     1      41.860 -10.539   6.679  1.00  0.00     0.017 A 
HETATM   14  C   UNL     1      40.560 -10.665   6.199  1.00  0.00     0.003 A 
HETATM   15  C   UNL     1      40.166 -11.831   5.535  1.00  0.00     0.024 A 
BRANCH  12  16
HETATM   16  C   UNL     1      44.161 -11.480   6.983  1.00  0.00     0.251 C 
HETATM   17  N   UNL     1      44.475 -10.336   7.692  1.00  0.00    -0.355 N 
HETATM   18  H   UNL     1      43.677  -9.769   7.969  1.00  0.00     0.162 HD
HETATM   19  O   UNL     1      44.992 -12.347   6.744  1.00  0.00    -0.268 OA
BRANCH  17  20
HETATM   20  C   UNL     1      45.625 -10.267   8.593  1.00  0.00     0.150 C 
BRANCH  20  21
HETATM   21  C   UNL     1      45.382  -9.765  10.033  1.00  0.00     0.253 C 
BRANCH  21  22
HETATM   22  N   UNL     1      43.918  -9.805  10.420  1.00  0.00    -0.077 N 
HETATM   23  H   UNL     1      43.447 -10.131   9.559  1.00  0.00     0.279 HD
HETATM   24  C   UNL     1      43.603 -10.750  11.534  1.00  0.00     0.269 C 
HETATM   25  C   UNL     1      43.369  -8.432  10.667  1.00  0.00     0.269 C 
ENDBRANCH  21  22
ENDBRANCH  20  21
ENDBRANCH  17  20
ENDBRANCH  12  16
ENDBRANCH   8  10
ENDBRANCH   2   8
BRANCH   1  26
HETATM   26  O   UNL     1      43.242 -15.330   3.859  1.00  0.00    -0.307 OA
BRANCH  26  27
HETATM   27  C   UNL     1      43.452 -16.661   4.117  1.00  0.00     0.076 A 
HETATM   28  C   UNL     1      43.618 -17.030   5.449  1.00  0.00     0.039 A 
HETATM   29  C   UNL     1      43.824 -18.369   5.775  1.00  0.00     0.027 A 
HETATM   30  C   UNL     1      43.874 -19.339   4.769  1.00  0.00     0.040 A 
HETATM   31  C   UNL     1      43.746 -18.975   3.418  1.00  0.00    -0.038 A 
HETATM   32 CL   UNL     1      44.094 -20.983   5.248  1.00  0.00    -0.084 Cl
HETATM   33  C   UNL     1      43.773 -19.997   2.316  1.00  0.00     0.050 C 
HETATM   34  C   UNL     1      43.549 -17.619   3.101  1.00  0.00     0.045 A 
ENDBRANCH  26  27
ENDBRANCH   1  26
BRANCH   5  35
HETATM   35  C   UNL     1      39.720 -13.623  -0.160  1.00  0.00     0.084 A 
HETATM   36  C   UNL     1      39.309 -12.286  -0.328  1.00  0.00     0.063 A 
HETATM   37 CL   UNL     1      39.956 -10.966   0.593  1.00  0.00    -0.082 Cl
HETATM   38  C   UNL     1      38.467 -11.930  -1.393  1.00  0.00     0.026 A 
HETATM   39  C   UNL     1      38.053 -12.884  -2.321  1.00  0.00     0.002 A 
HETATM   40  C   UNL     1      38.497 -14.195  -2.203  1.00  0.00     0.002 A 
HETATM   41  C   UNL     1      39.328 -14.558  -1.140  1.00  0.00     0.033 A 
ENDBRANCH   5  35
TORSDOF 9
ENDMDL
MODEL 7
REMARK VINA RESULT:      -9.0      3.451      6.923
REMARK  9 active torsions:
REMARK  status: ('A' for Active; 'I' for Inactive)
REMARK    1  A    between atoms: C_7  and  O_8 
REMARK    2  A    between atoms: O_8  and  C_9 
REMARK    3  A    between atoms: C_10  and  N_11 
REMARK    4  A    between atoms: N_11  and  C_12 
REMARK    5  A    between atoms: C_14  and  C_15 
REMARK       I    between atoms: C_15  and  N_16 
REMARK    6  A    between atoms: N_16  and  C_17 
REMARK    7  A    between atoms: C_17  and  C_18 
REMARK    8  A    between atoms: C_18  and  N_19 
REMARK    9  A    between atoms: N_29  and  C_30 
ROOT
HETATM    1  C   UNL     1      41.773 -14.190   1.697  1.00  0.00     0.122 C 
HETATM    2  C   UNL     1      41.039 -14.757   2.670  1.00  0.00     0.119 C 
HETATM    3  C   UNL     1      41.496 -16.073   3.258  1.00  0.00     0.293 C 
HETATM    4  O   UNL     1      40.855 -16.499   4.224  1.00  0.00    -0.264 OA
HETATM    5  N   UNL     1      42.623 -16.662   2.687  1.00  0.00    -0.195 N 
HETATM    6  N   UNL     1      43.481 -15.968   1.864  1.00  0.00    -0.174 NA
HETATM    7  C   UNL     1      43.077 -14.826   1.422  1.00  0.00     0.178 C 
ENDROOT
BRANCH   2   8
HETATM    8  N   UNL     1      39.828 -14.279   3.199  1.00  0.00    -0.253 NA
HETATM    9  H   UNL     1      39.346 -15.071   3.646  1.00  0.00     0.134 HD
BRANCH   8  10
HETATM   10  C   UNL     1      39.722 -13.162   4.072  1.00  0.00     0.014 A 
HETATM   11  C   UNL     1      39.265 -11.948   3.539  1.00  0.00     0.040 A 
HETATM   12  C   UNL     1      39.139 -10.815   4.352  1.00  0.00     0.033 A 
HETATM   13  C   UNL     1      39.439 -10.887   5.715  1.00  0.00     0.017 A 
HETATM   14  C   UNL     1      39.878 -12.092   6.256  1.00  0.00     0.003 A 
HETATM   15  C   UNL     1      40.025 -13.217   5.439  1.00  0.00     0.024 A 
BRANCH  12  16
HETATM   16  C   UNL     1      38.666  -9.548   3.745  1.00  0.00     0.251 C 
HETATM   17  N   UNL     1      37.540  -8.980   4.309  1.00  0.00    -0.355 N 
HETATM   18  H   UNL     1      37.257  -9.380   5.201  1.00  0.00     0.162 HD
HETATM   19  O   UNL     1      39.227  -9.055   2.774  1.00  0.00    -0.268 OA
BRANCH  17  20
HETATM   20  C   UNL     1      37.203  -7.568   4.130  1.00  0.00     0.150 C 
BRANCH  20  21
HETATM   21  C   UNL     1      36.499  -6.844   5.298  1.00  0.00     0.253 C 
BRANCH  21  22
HETATM   22  N   UNL     1      35.091  -6.410   4.946  1.00  0.00    -0.077 N 
HETATM   23  H   UNL     1      34.728  -7.197   4.382  1.00  0.00     0.279 HD
HETATM   24  C   UNL     1      34.198  -6.205   6.126  1.00  0.00     0.269 C 
HETATM   25  C   UNL     1      35.087  -5.233   4.017  1.00  0.00     0.269 C 
ENDBRANCH  21  22
ENDBRANCH  20  21
ENDBRANCH  17  20
ENDBRANCH  12  16
ENDBRANCH   8  10
ENDBRANCH   2   8
BRANCH   1  26
HETATM   26  O   UNL     1      41.369 -13.009   1.081  1.00  0.00    -0.307 OA
BRANCH  26  27
HETATM   27  C   UNL     1      40.353 -13.037   0.159  1.00  0.00     0.076 A 
HETATM   28  C   UNL     1      39.525 -11.921   0.096  1.00  0.00     0.039 A 
HETATM   29  C   UNL     1      38.481 -11.886  -0.828  1.00  0.00     0.027 A 
HETATM   30  C   UNL     1      38.260 -12.972  -1.681  1.00  0.00     0.040 A 
HETATM   31  C   UNL     1      39.065 -14.120  -1.600  1.00  0.00    -0.038 A 
HETATM   32 CL   UNL     1      36.974 -12.846  -2.826  1.00  0.00    -0.084 Cl
HETATM   33  C   UNL     1      38.865 -15.294  -2.518  1.00  0.00     0.050 C 
HETATM   34  C   UNL     1      40.108 -14.147  -0.657  1.00  0.00     0.045 A 
ENDBRANCH  26  27
ENDBRANCH   1  26
BRANCH   5  35
HETATM   35  C   UNL     1      43.114 -17.944   3.096  1.00  0.00     0.084 A 
HETATM   36  C   UNL     1      43.830 -18.165   4.288  1.00  0.00     0.063 A 
HETATM   37 CL   UNL     1      43.963 -16.985   5.553  1.00  0.00    -0.082 Cl
HETATM   38  C   UNL     1      44.334 -19.440   4.590  1.00  0.00     0.026 A 
HETATM   39  C   UNL     1      44.103 -20.515   3.734  1.00  0.00     0.002 A 
HETATM   40  C   UNL     1      43.347 -20.328   2.584  1.00  0.00     0.002 A 
HETATM   41  C   UNL     1      42.851 -19.060   2.273  1.00  0.00     0.033 A 
ENDBRANCH   5  35
TORSDOF 9
ENDMDL
MODEL 8
REMARK VINA RESULT:      -8.9      2.701      8.356
REMARK  9 active torsions:
REMARK  status: ('A' for Active; 'I' for Inactive)
REMARK    1  A    between atoms: C_7  and  O_8 
REMARK    2  A    between atoms: O_8  and  C_9 
REMARK    3  A    between atoms: C_10  and  N_11 
REMARK    4  A    between atoms: N_11  and  C_12 
REMARK    5  A    between atoms: C_14  and  C_15 
REMARK       I    between atoms: C_15  and  N_16 
REMARK    6  A    between atoms: N_16  and  C_17 
REMARK    7  A    between atoms: C_17  and  C_18 
REMARK    8  A    between atoms: C_18  and  N_19 
REMARK    9  A    between atoms: N_29  and  C_30 
ROOT
HETATM    1  C   UNL     1      39.942 -14.515   1.467  1.00  0.00     0.122 C 
HETATM    2  C   UNL     1      39.549 -13.341   1.991  1.00  0.00     0.119 C 
HETATM    3  C   UNL     1      39.705 -12.083   1.165  1.00  0.00     0.293 C 
HETATM    4  O   UNL     1      39.228 -11.049   1.640  1.00  0.00    -0.264 OA
HETATM    5  N   UNL     1      40.330 -12.215  -0.073  1.00  0.00    -0.195 N 
HETATM    6  N   UNL     1      40.511 -13.436  -0.683  1.00  0.00    -0.174 NA
HETATM    7  C   UNL     1      40.321 -14.488   0.040  1.00  0.00     0.178 C 
ENDROOT
BRANCH   2   8
HETATM    8  N   UNL     1      39.031 -13.125   3.279  1.00  0.00    -0.253 NA
HETATM    9  H   UNL     1      38.788 -14.043   3.677  1.00  0.00     0.134 HD
BRANCH   8  10
HETATM   10  C   UNL     1      39.691 -12.377   4.292  1.00  0.00     0.014 A 
HETATM   11  C   UNL     1      41.037 -12.669   4.557  1.00  0.00     0.040 A 
HETATM   12  C   UNL     1      41.737 -11.964   5.543  1.00  0.00     0.033 A 
HETATM   13  C   UNL     1      41.112 -10.939   6.258  1.00  0.00     0.017 A 
HETATM   14  C   UNL     1      39.781 -10.633   5.991  1.00  0.00     0.003 A 
HETATM   15  C   UNL     1      39.075 -11.352   5.022  1.00  0.00     0.024 A 
BRANCH  12  16
HETATM   16  C   UNL     1      43.155 -12.314   5.801  1.00  0.00     0.251 C 
HETATM   17  N   UNL     1      43.991 -11.269   6.149  1.00  0.00    -0.355 N 
HETATM   18  H   UNL     1      43.517 -10.399   6.381  1.00  0.00     0.162 HD
HETATM   19  O   UNL     1      43.564 -13.461   5.677  1.00  0.00    -0.268 OA
BRANCH  17  20
HETATM   20  C   UNL     1      45.264 -11.483   6.836  1.00  0.00     0.150 C 
BRANCH  20  21
HETATM   21  C   UNL     1      45.809 -10.335   7.713  1.00  0.00     0.253 C 
BRANCH  21  22
HETATM   22  N   UNL     1      44.807  -9.872   8.750  1.00  0.00    -0.077 N 
HETATM   23  H   UNL     1      43.978 -10.463   8.568  1.00  0.00     0.279 HD
HETATM   24  C   UNL     1      45.247 -10.074  10.163  1.00  0.00     0.269 C 
HETATM   25  C   UNL     1      44.347  -8.468   8.492  1.00  0.00     0.269 C 
ENDBRANCH  21  22
ENDBRANCH  20  21
ENDBRANCH  17  20
ENDBRANCH  12  16
ENDBRANCH   8  10
ENDBRANCH   2   8
BRANCH   1  26
HETATM   26  O   UNL     1      39.875 -15.695   2.203  1.00  0.00    -0.307 OA
BRANCH  26  27
HETATM   27  C   UNL     1      40.937 -16.064   2.989  1.00  0.00     0.076 A 
HETATM   28  C   UNL     1      42.100 -16.462   2.336  1.00  0.00     0.039 A 
HETATM   29  C   UNL     1      43.217 -16.839   3.081  1.00  0.00     0.027 A 
HETATM   30  C   UNL     1      43.166 -16.828   4.478  1.00  0.00     0.040 A 
HETATM   31  C   UNL     1      41.986 -16.466   5.149  1.00  0.00    -0.038 A 
HETATM   32 CL   UNL     1      44.597 -17.271   5.337  1.00  0.00    -0.084 Cl
HETATM   33  C   UNL     1      41.909 -16.424   6.650  1.00  0.00     0.050 C 
HETATM   34  C   UNL     1      40.864 -16.098   4.387  1.00  0.00     0.045 A 
ENDBRANCH  26  27
ENDBRANCH   1  26
BRANCH   5  35
HETATM   35  C   UNL     1      40.610 -11.092  -0.919  1.00  0.00     0.084 A 
HETATM   36  C   UNL     1      39.849 -10.759  -2.056  1.00  0.00     0.063 A 
HETATM   37 CL   UNL     1      38.312 -11.478  -2.420  1.00  0.00    -0.082 Cl
HETATM   38  C   UNL     1      40.223  -9.679  -2.871  1.00  0.00     0.026 A 
HETATM   39  C   UNL     1      41.333  -8.899  -2.550  1.00  0.00     0.002 A 
HETATM   40  C   UNL     1      42.060  -9.178  -1.400  1.00  0.00     0.002 A 
HETATM   41  C   UNL     1      41.697 -10.256  -0.589  1.00  0.00     0.033 A 
ENDBRANCH   5  35
TORSDOF 9
ENDMDL
MODEL 9
REMARK VINA RESULT:      -8.7      3.878      8.046
REMARK  9 active torsions:
REMARK  status: ('A' for Active; 'I' for Inactive)
REMARK    1  A    between atoms: C_7  and  O_8 
REMARK    2  A    between atoms: O_8  and  C_9 
REMARK    3  A    between atoms: C_10  and  N_11 
REMARK    4  A    between atoms: N_11  and  C_12 
REMARK    5  A    between atoms: C_14  and  C_15 
REMARK       I    between atoms: C_15  and  N_16 
REMARK    6  A    between atoms: N_16  and  C_17 
REMARK    7  A    between atoms: C_17  and  C_18 
REMARK    8  A    between atoms: C_18  and  N_19 
REMARK    9  A    between atoms: N_29  and  C_30 
ROOT
HETATM    1  C   UNL     1      41.494 -13.202   5.926  1.00  0.00     0.122 C 
HETATM    2  C   UNL     1      42.636 -13.624   6.496  1.00  0.00     0.119 C 
HETATM    3  C   UNL     1      43.298 -14.877   5.965  1.00  0.00     0.293 C 
HETATM    4  O   UNL     1      44.400 -15.162   6.442  1.00  0.00    -0.264 OA
HETATM    5  N   UNL     1      42.627 -15.567   4.957  1.00  0.00    -0.195 N 
HETATM    6  N   UNL     1      41.595 -15.005   4.239  1.00  0.00    -0.174 NA
HETATM    7  C   UNL     1      41.089 -13.910   4.695  1.00  0.00     0.178 C 
ENDROOT
BRANCH   2   8
HETATM    8  N   UNL     1      43.293 -13.046   7.594  1.00  0.00    -0.253 NA
HETATM    9  H   UNL     1      43.791 -13.797   8.093  1.00  0.00     0.134 HD
BRANCH   8  10
HETATM   10  C   UNL     1      44.171 -11.932   7.506  1.00  0.00     0.014 A 
HETATM   11  C   UNL     1      43.810 -10.752   8.175  1.00  0.00     0.040 A 
HETATM   12  C   UNL     1      44.637  -9.624   8.124  1.00  0.00     0.033 A 
HETATM   13  C   UNL     1      45.850  -9.667   7.430  1.00  0.00     0.017 A 
HETATM   14  C   UNL     1      46.223 -10.838   6.777  1.00  0.00     0.003 A 
HETATM   15  C   UNL     1      45.387 -11.957   6.809  1.00  0.00     0.024 A 
BRANCH  12  16
HETATM   16  C   UNL     1      44.211  -8.393   8.832  1.00  0.00     0.251 C 
HETATM   17  N   UNL     1      43.150  -8.524   9.707  1.00  0.00    -0.355 N 
HETATM   18  H   UNL     1      42.889  -9.483   9.925  1.00  0.00     0.162 HD
HETATM   19  O   UNL     1      44.752  -7.315   8.622  1.00  0.00    -0.268 OA
BRANCH  17  20
HETATM   20  C   UNL     1      42.890  -7.556  10.771  1.00  0.00     0.150 C 
BRANCH  20  21
HETATM   21  C   UNL     1      41.922  -7.971  11.901  1.00  0.00     0.253 C 
BRANCH  21  22
HETATM   22  N   UNL     1      42.605  -8.791  12.975  1.00  0.00    -0.077 N 
HETATM   23  H   UNL     1      43.606  -8.560  12.859  1.00  0.00     0.279 HD
HETATM   24  C   UNL     1      42.186  -8.449  14.368  1.00  0.00     0.269 C 
HETATM   25  C   UNL     1      42.510 -10.262  12.698  1.00  0.00     0.269 C 
ENDBRANCH  21  22
ENDBRANCH  20  21
ENDBRANCH  17  20
ENDBRANCH  12  16
ENDBRANCH   8  10
ENDBRANCH   2   8
BRANCH   1  26
HETATM   26  O   UNL     1      40.812 -12.089   6.411  1.00  0.00    -0.307 OA
BRANCH  26  27
HETATM   27  C   UNL     1      40.670 -10.981   5.614  1.00  0.00     0.076 A 
HETATM   28  C   UNL     1      41.833 -10.430   5.083  1.00  0.00     0.039 A 
HETATM   29  C   UNL     1      41.753  -9.309   4.258  1.00  0.00     0.027 A 
HETATM   30  C   UNL     1      40.511  -8.734   3.971  1.00  0.00     0.040 A 
HETATM   31  C   UNL     1      39.334  -9.258   4.532  1.00  0.00    -0.038 A 
HETATM   32 CL   UNL     1      40.482  -7.372   2.912  1.00  0.00    -0.084 Cl
HETATM   33  C   UNL     1      37.982  -8.675   4.224  1.00  0.00     0.050 C 
HETATM   34  C   UNL     1      39.429 -10.382   5.371  1.00  0.00     0.045 A 
ENDBRANCH  26  27
ENDBRANCH   1  26
BRANCH   5  35
HETATM   35  C   UNL     1      43.104 -16.807   4.423  1.00  0.00     0.084 A 
HETATM   36  C   UNL     1      43.505 -17.899   5.216  1.00  0.00     0.063 A 
HETATM   37 CL   UNL     1      43.205 -18.000   6.922  1.00  0.00    -0.082 Cl
HETATM   38  C   UNL     1      44.021 -19.061   4.620  1.00  0.00     0.026 A 
HETATM   39  C   UNL     1      44.112 -19.166   3.233  1.00  0.00     0.002 A 
HETATM   40  C   UNL     1      43.666 -18.122   2.434  1.00  0.00     0.002 A 
HETATM   41  C   UNL     1      43.159 -16.960   3.022  1.00  0.00     0.033 A 
ENDBRANCH   5  35
TORSDOF 9
ENDMDL
MODEL 10
REMARK VINA RESULT:      -8.7     16.533     18.903
REMARK  9 active torsions:
REMARK  status: ('A' for Active; 'I' for Inactive)
REMARK    1  A    between atoms: C_7  and  O_8 
REMARK    2  A    between atoms: O_8  and  C_9 
REMARK    3  A    between atoms: C_10  and  N_11 
REMARK    4  A    between atoms: N_11  and  C_12 
REMARK    5  A    between atoms: C_14  and  C_15 
REMARK       I    between atoms: C_15  and  N_16 
REMARK    6  A    between atoms: N_16  and  C_17 
REMARK    7  A    between atoms: C_17  and  C_18 
REMARK    8  A    between atoms: C_18  and  N_19 
REMARK    9  A    between atoms: N_29  and  C_30 
ROOT
HETATM    1  C   UNL     1      46.062 -28.592   0.157  1.00  0.00     0.122 C 
HETATM    2  C   UNL     1      45.635 -29.049   1.346  1.00  0.00     0.119 C 
HETATM    3  C   UNL     1      46.637 -29.665   2.296  1.00  0.00     0.293 C 
HETATM    4  O   UNL     1      46.222 -29.967   3.418  1.00  0.00    -0.264 OA
HETATM    5  N   UNL     1      47.946 -29.795   1.834  1.00  0.00    -0.195 N 
HETATM    6  N   UNL     1      48.408 -29.123   0.725  1.00  0.00    -0.174 NA
HETATM    7  C   UNL     1      47.526 -28.567  -0.034  1.00  0.00     0.178 C 
ENDROOT
BRANCH   2   8
HETATM    8  N   UNL     1      44.311 -29.062   1.817  1.00  0.00    -0.253 NA
HETATM    9  H   UNL     1      43.822 -28.255   1.404  1.00  0.00     0.134 HD
BRANCH   8  10
HETATM   10  C   UNL     1      43.441 -30.183   1.727  1.00  0.00     0.014 A 
HETATM   11  C   UNL     1      42.422 -30.305   2.683  1.00  0.00     0.040 A 
HETATM   12  C   UNL     1      41.535 -31.388   2.644  1.00  0.00     0.033 A 
HETATM   13  C   UNL     1      41.634 -32.347   1.632  1.00  0.00     0.017 A 
HETATM   14  C   UNL     1      42.633 -32.225   0.670  1.00  0.00     0.003 A 
HETATM   15  C   UNL     1      43.532 -31.156   0.723  1.00  0.00     0.024 A 
BRANCH  12  16
HETATM   16  C   UNL     1      40.481 -31.487   3.683  1.00  0.00     0.251 C 
HETATM   17  N   UNL     1      39.452 -32.374   3.429  1.00  0.00    -0.355 N 
HETATM   18  H   UNL     1      39.614 -33.010   2.651  1.00  0.00     0.162 HD
HETATM   19  O   UNL     1      40.509 -30.793   4.690  1.00  0.00    -0.268 OA
BRANCH  17  20
HETATM   20  C   UNL     1      38.597 -32.902   4.491  1.00  0.00     0.150 C 
BRANCH  20  21
HETATM   21  C   UNL     1      38.001 -34.314   4.300  1.00  0.00     0.253 C 
BRANCH  21  22
HETATM   22  N   UNL     1      36.487 -34.316   4.362  1.00  0.00    -0.077 N 
HETATM   23  H   UNL     1      36.283 -34.043   5.338  1.00  0.00     0.279 HD
HETATM   24  C   UNL     1      35.833 -33.343   3.437  1.00  0.00     0.269 C 
HETATM   25  C   UNL     1      35.927 -35.700   4.221  1.00  0.00     0.269 C 
ENDBRANCH  21  22
ENDBRANCH  20  21
ENDBRANCH  17  20
ENDBRANCH  12  16
ENDBRANCH   8  10
ENDBRANCH   2   8
BRANCH   1  26
HETATM   26  O   UNL     1      45.174 -28.067  -0.779  1.00  0.00    -0.307 OA
BRANCH  26  27
HETATM   27  C   UNL     1      44.968 -28.728  -1.963  1.00  0.00     0.076 A 
HETATM   28  C   UNL     1      45.092 -27.984  -3.133  1.00  0.00     0.039 A 
HETATM   29  C   UNL     1      44.905 -28.602  -4.369  1.00  0.00     0.027 A 
HETATM   30  C   UNL     1      44.584 -29.961  -4.434  1.00  0.00     0.040 A 
HETATM   31  C   UNL     1      44.418 -30.714  -3.259  1.00  0.00    -0.038 A 
HETATM   32 CL   UNL     1      44.403 -30.670  -5.998  1.00  0.00    -0.084 Cl
HETATM   33  C   UNL     1      44.095 -32.182  -3.298  1.00  0.00     0.050 C 
HETATM   34  C   UNL     1      44.600 -30.077  -2.019  1.00  0.00     0.045 A 
ENDBRANCH  26  27
ENDBRANCH   1  26
BRANCH   5  35
HETATM   35  C   UNL     1      48.974 -30.433   2.602  1.00  0.00     0.084 A 
HETATM   36  C   UNL     1      49.450 -31.733   2.345  1.00  0.00     0.063 A 
HETATM   37 CL   UNL     1      49.071 -32.621   0.903  1.00  0.00    -0.082 Cl
HETATM   38  C   UNL     1      50.417 -32.315   3.180  1.00  0.00     0.026 A 
HETATM   39  C   UNL     1      50.947 -31.603   4.256  1.00  0.00     0.002 A 
HETATM   40  C   UNL     1      50.532 -30.298   4.487  1.00  0.00     0.002 A 
HETATM   41  C   UNL     1      49.563 -29.717   3.665  1.00  0.00     0.033 A 
ENDBRANCH   5  35
TORSDOF 9
ENDMDL
