MODEL 1
REMARK VINA RESULT:      -8.5      0.000      0.000
REMARK  4 active torsions:
REMARK  status: ('A' for Active; 'I' for Inactive)
REMARK    1  A    between atoms: N_2  and  C_3 
REMARK    2  A    between atoms: C_5  and  C_6 
REMARK    3  A    between atoms: C_6  and  C_7 
REMARK    4  A    between atoms: C_13  and  O_14 
ROOT
HETATM    1  C   UNL     1      43.868 -17.362   4.540  1.00  0.00     0.113 A 
HETATM    2  N   UNL     1      43.321 -16.351   3.836  1.00  0.00    -0.223 NA
HETATM    3  C   UNL     1      42.828 -16.613   2.597  1.00  0.00     0.106 A 
HETATM    4  N   UNL     1      42.862 -17.832   2.031  1.00  0.00    -0.347 N 
HETATM    5  H   UNL     1      42.520 -17.962   1.074  1.00  0.00     0.167 HD
HETATM    6  C   UNL     1      43.401 -18.831   2.723  1.00  0.00     0.020 A 
HETATM    7  C   UNL     1      43.911 -18.626   3.994  1.00  0.00     0.005 A 
HETATM    8  C   UNL     1      44.478 -19.897   4.540  1.00  0.00     0.044 C 
HETATM    9  C   UNL     1      43.850 -20.941   3.597  1.00  0.00     0.011 C 
HETATM   10  C   UNL     1      43.588 -20.237   2.255  1.00  0.00     0.058 C 
ENDROOT
BRANCH   3  11
HETATM   11  C   UNL     1      42.250 -15.475   1.806  1.00  0.00     0.085 C 
BRANCH  11  12
HETATM   12  C   UNL     1      40.783 -15.116   2.166  1.00  0.00     0.021 C 
HETATM   13  C   UNL     1      40.537 -13.620   2.363  1.00  0.00     0.181 C 
HETATM   14  O   UNL     1      41.094 -12.896   1.258  1.00  0.00    -0.347 OA
HETATM   15  C   UNL     1      40.576 -13.307   0.047  1.00  0.00     0.108 A 
HETATM   16  C   UNL     1      39.970 -14.565  -0.127  1.00  0.00    -0.021 A 
HETATM   17  C   UNL     1      40.749 -12.458  -1.049  1.00  0.00     0.102 A 
HETATM   18  C   UNL     1      39.851 -15.538   1.021  1.00  0.00     0.048 C 
HETATM   19  C   UNL     1      39.486 -14.922  -1.393  1.00  0.00     0.010 A 
HETATM   20  C   UNL     1      39.653 -14.060  -2.480  1.00  0.00     0.003 A 
HETATM   21  C   UNL     1      40.301 -12.837  -2.314  1.00  0.00     0.039 A 
BRANCH  17  22
HETATM   22  O   UNL     1      41.430 -11.276  -0.923  1.00  0.00    -0.353 OA
HETATM   23  C   UNL     1      41.235 -10.469  -2.087  1.00  0.00     0.210 C 
ENDBRANCH  17  22
ENDBRANCH  11  12
ENDBRANCH   3  11
BRANCH   1  24
HETATM   24  N   UNL     1      44.312 -17.157   5.841  1.00  0.00    -0.281 NA
HETATM   25  C   UNL     1      43.300 -17.206   6.885  1.00  0.00     0.114 C 
HETATM   26  H   UNL     1      44.901 -16.333   5.921  1.00  0.00     0.128 HD
ENDBRANCH   1  24
TORSDOF 4
ENDMDL
MODEL 2
REMARK VINA RESULT:      -8.1      1.545      2.460
REMARK  4 active torsions:
REMARK  status: ('A' for Active; 'I' for Inactive)
REMARK    1  A    between atoms: N_2  and  C_3 
REMARK    2  A    between atoms: C_5  and  C_6 
REMARK    3  A    between atoms: C_6  and  C_7 
REMARK    4  A    between atoms: C_13  and  O_14 
ROOT
HETATM    1  C   UNL     1      43.906 -17.402   4.628  1.00  0.00     0.113 A 
HETATM    2  N   UNL     1      43.439 -16.425   3.823  1.00  0.00    -0.223 NA
HETATM    3  C   UNL     1      43.025 -16.755   2.572  1.00  0.00     0.106 A 
HETATM    4  N   UNL     1      43.062 -18.010   2.089  1.00  0.00    -0.347 N 
HETATM    5  H   UNL     1      42.784 -18.193   1.120  1.00  0.00     0.167 HD
HETATM    6  C   UNL     1      43.522 -18.975   2.879  1.00  0.00     0.020 A 
HETATM    7  C   UNL     1      43.949 -18.700   4.167  1.00  0.00     0.005 A 
HETATM    8  C   UNL     1      44.438 -19.946   4.832  1.00  0.00     0.044 C 
HETATM    9  C   UNL     1      43.847 -21.033   3.916  1.00  0.00     0.011 C 
HETATM   10  C   UNL     1      43.699 -20.413   2.517  1.00  0.00     0.058 C 
ENDROOT
BRANCH   3  11
HETATM   11  C   UNL     1      42.537 -15.658   1.672  1.00  0.00     0.085 C 
BRANCH  11  12
HETATM   12  C   UNL     1      40.994 -15.575   1.529  1.00  0.00     0.021 C 
HETATM   13  C   UNL     1      40.284 -15.004   2.757  1.00  0.00     0.181 C 
HETATM   14  O   UNL     1      40.929 -13.789   3.158  1.00  0.00    -0.347 OA
HETATM   15  C   UNL     1      40.959 -12.851   2.147  1.00  0.00     0.108 A 
HETATM   16  C   UNL     1      40.823 -13.199   0.790  1.00  0.00    -0.021 A 
HETATM   17  C   UNL     1      41.219 -11.526   2.505  1.00  0.00     0.102 A 
HETATM   18  C   UNL     1      40.630 -14.636   0.370  1.00  0.00     0.048 C 
HETATM   19  C   UNL     1      40.885 -12.193  -0.183  1.00  0.00     0.010 A 
HETATM   20  C   UNL     1      41.133 -10.868   0.186  1.00  0.00     0.003 A 
HETATM   21  C   UNL     1      41.320 -10.537   1.527  1.00  0.00     0.039 A 
BRANCH  17  22
HETATM   22  O   UNL     1      41.459 -11.184   3.809  1.00  0.00    -0.353 OA
HETATM   23  C   UNL     1      42.842 -10.865   3.987  1.00  0.00     0.210 C 
ENDBRANCH  17  22
ENDBRANCH  11  12
ENDBRANCH   3  11
BRANCH   1  24
HETATM   24  N   UNL     1      44.265 -17.123   5.941  1.00  0.00    -0.281 NA
HETATM   25  C   UNL     1      43.178 -17.037   6.905  1.00  0.00     0.114 C 
HETATM   26  H   UNL     1      44.896 -16.329   6.007  1.00  0.00     0.128 HD
ENDBRANCH   1  24
TORSDOF 4
ENDMDL
MODEL 3
REMARK VINA RESULT:      -7.9      1.167      2.467
REMARK  4 active torsions:
REMARK  status: ('A' for Active; 'I' for Inactive)
REMARK    1  A    between atoms: N_2  and  C_3 
REMARK    2  A    between atoms: C_5  and  C_6 
REMARK    3  A    between atoms: C_6  and  C_7 
REMARK    4  A    between atoms: C_13  and  O_14 
ROOT
HETATM    1  C   UNL     1      43.526 -17.996   3.221  1.00  0.00     0.113 A 
HETATM    2  N   UNL     1      43.109 -17.171   2.239  1.00  0.00    -0.223 NA
HETATM    3  C   UNL     1      42.455 -16.030   2.581  1.00  0.00     0.106 A 
HETATM    4  N   UNL     1      42.195 -15.682   3.853  1.00  0.00    -0.347 N 
HETATM    5  H   UNL     1      41.654 -14.834   4.051  1.00  0.00     0.167 HD
HETATM    6  C   UNL     1      42.604 -16.493   4.824  1.00  0.00     0.020 A 
HETATM    7  C   UNL     1      43.284 -17.665   4.536  1.00  0.00     0.005 A 
HETATM    8  C   UNL     1      43.608 -18.403   5.794  1.00  0.00     0.044 C 
HETATM    9  C   UNL     1      43.402 -17.304   6.854  1.00  0.00     0.011 C 
HETATM   10  C   UNL     1      42.365 -16.320   6.288  1.00  0.00     0.058 C 
ENDROOT
BRANCH   3  11
HETATM   11  C   UNL     1      41.966 -15.134   1.481  1.00  0.00     0.085 C 
BRANCH  11  12
HETATM   12  C   UNL     1      40.431 -14.902   1.468  1.00  0.00     0.021 C 
HETATM   13  C   UNL     1      40.007 -13.500   1.905  1.00  0.00     0.181 C 
HETATM   14  O   UNL     1      40.782 -12.525   1.193  1.00  0.00    -0.347 OA
HETATM   15  C   UNL     1      40.659 -12.655  -0.175  1.00  0.00     0.108 A 
HETATM   16  C   UNL     1      40.240 -13.851  -0.786  1.00  0.00    -0.021 A 
HETATM   17  C   UNL     1      41.052 -11.569  -0.962  1.00  0.00     0.102 A 
HETATM   18  C   UNL     1      39.894 -15.067   0.039  1.00  0.00     0.048 C 
HETATM   19  C   UNL     1      40.160 -13.913  -2.183  1.00  0.00     0.010 A 
HETATM   20  C   UNL     1      40.543 -12.819  -2.962  1.00  0.00     0.003 A 
HETATM   21  C   UNL     1      41.009 -11.653  -2.353  1.00  0.00     0.039 A 
BRANCH  17  22
HETATM   22  O   UNL     1      41.563 -10.434  -0.391  1.00  0.00    -0.353 OA
HETATM   23  C   UNL     1      41.767  -9.430  -1.388  1.00  0.00     0.210 C 
ENDBRANCH  17  22
ENDBRANCH  11  12
ENDBRANCH   3  11
BRANCH   1  24
HETATM   24  N   UNL     1      44.267 -19.133   2.921  1.00  0.00    -0.281 NA
HETATM   25  C   UNL     1      43.563 -20.199   2.224  1.00  0.00     0.114 C 
HETATM   26  H   UNL     1      44.782 -19.480   3.725  1.00  0.00     0.128 HD
ENDBRANCH   1  24
TORSDOF 4
ENDMDL
MODEL 4
REMARK VINA RESULT:      -7.8      5.018      7.730
REMARK  4 active torsions:
REMARK  status: ('A' for Active; 'I' for Inactive)
REMARK    1  A    between atoms: N_2  and  C_3 
REMARK    2  A    between atoms: C_5  and  C_6 
REMARK    3  A    between atoms: C_6  and  C_7 
REMARK    4  A    between atoms: C_13  and  O_14 
ROOT
HETATM    1  C   UNL     1      42.712 -10.503   7.351  1.00  0.00     0.113 A 
HETATM    2  N   UNL     1      42.675 -11.701   6.732  1.00  0.00    -0.223 NA
HETATM    3  C   UNL     1      43.845 -12.354   6.509  1.00  0.00     0.106 A 
HETATM    4  N   UNL     1      45.044 -11.865   6.870  1.00  0.00    -0.347 N 
HETATM    5  H   UNL     1      45.899 -12.378   6.631  1.00  0.00     0.167 HD
HETATM    6  C   UNL     1      45.084 -10.684   7.479  1.00  0.00     0.020 A 
HETATM    7  C   UNL     1      43.923  -9.976   7.741  1.00  0.00     0.005 A 
HETATM    8  C   UNL     1      44.243  -8.678   8.408  1.00  0.00     0.044 C 
HETATM    9  C   UNL     1      45.691  -8.921   8.873  1.00  0.00     0.011 C 
HETATM   10  C   UNL     1      46.310  -9.943   7.904  1.00  0.00     0.058 C 
ENDROOT
BRANCH   3  11
HETATM   11  C   UNL     1      43.799 -13.672   5.791  1.00  0.00     0.085 C 
BRANCH  11  12
HETATM   12  C   UNL     1      43.369 -14.875   6.672  1.00  0.00     0.021 C 
HETATM   13  C   UNL     1      41.866 -15.154   6.656  1.00  0.00     0.181 C 
HETATM   14  O   UNL     1      41.402 -15.189   5.300  1.00  0.00    -0.347 OA
HETATM   15  C   UNL     1      42.069 -16.130   4.542  1.00  0.00     0.108 A 
HETATM   16  C   UNL     1      43.334 -16.630   4.901  1.00  0.00    -0.021 A 
HETATM   17  C   UNL     1      41.480 -16.519   3.336  1.00  0.00     0.102 A 
HETATM   18  C   UNL     1      44.031 -16.160   6.154  1.00  0.00     0.048 C 
HETATM   19  C   UNL     1      43.959 -17.568   4.068  1.00  0.00     0.010 A 
HETATM   20  C   UNL     1      43.357 -17.960   2.870  1.00  0.00     0.003 A 
HETATM   21  C   UNL     1      42.127 -17.421   2.493  1.00  0.00     0.039 A 
BRANCH  17  22
HETATM   22  O   UNL     1      40.300 -15.963   2.917  1.00  0.00    -0.353 OA
HETATM   23  C   UNL     1      40.413 -15.534   1.558  1.00  0.00     0.210 C 
ENDBRANCH  17  22
ENDBRANCH  11  12
ENDBRANCH   3  11
BRANCH   1  24
HETATM   24  N   UNL     1      41.534  -9.837   7.670  1.00  0.00    -0.281 NA
HETATM   25  C   UNL     1      40.360 -10.186   6.883  1.00  0.00     0.114 C 
HETATM   26  H   UNL     1      41.666  -8.831   7.730  1.00  0.00     0.128 HD
ENDBRANCH   1  24
TORSDOF 4
ENDMDL
MODEL 5
REMARK VINA RESULT:      -7.7      2.896      7.608
REMARK  4 active torsions:
REMARK  status: ('A' for Active; 'I' for Inactive)
REMARK    1  A    between atoms: N_2  and  C_3 
REMARK    2  A    between atoms: C_5  and  C_6 
REMARK    3  A    between atoms: C_6  and  C_7 
REMARK    4  A    between atoms: C_13  and  O_14 
ROOT
HETATM    1  C   UNL     1      40.453 -11.823  -0.586  1.00  0.00     0.113 A 
HETATM    2  N   UNL     1      41.140 -12.223   0.503  1.00  0.00    -0.223 NA
HETATM    3  C   UNL     1      41.210 -13.552   0.777  1.00  0.00     0.106 A 
HETATM    4  N   UNL     1      40.623 -14.493   0.017  1.00  0.00    -0.347 N 
HETATM    5  H   UNL     1      40.667 -15.478   0.298  1.00  0.00     0.167 HD
HETATM    6  C   UNL     1      39.945 -14.102  -1.057  1.00  0.00     0.020 A 
HETATM    7  C   UNL     1      39.847 -12.762  -1.391  1.00  0.00     0.005 A 
HETATM    8  C   UNL     1      39.015 -12.590  -2.621  1.00  0.00     0.044 C 
HETATM    9  C   UNL     1      39.003 -14.023  -3.185  1.00  0.00     0.011 C 
HETATM   10  C   UNL     1      39.176 -14.978  -1.992  1.00  0.00     0.058 C 
ENDROOT
BRANCH   3  11
HETATM   11  C   UNL     1      41.949 -13.987   2.009  1.00  0.00     0.085 C 
BRANCH  11  12
HETATM   12  C   UNL     1      41.042 -14.485   3.165  1.00  0.00     0.021 C 
HETATM   13  C   UNL     1      40.315 -15.796   2.868  1.00  0.00     0.181 C 
HETATM   14  O   UNL     1      41.251 -16.757   2.364  1.00  0.00    -0.347 OA
HETATM   15  C   UNL     1      42.295 -16.980   3.239  1.00  0.00     0.108 A 
HETATM   16  C   UNL     1      42.652 -16.058   4.239  1.00  0.00    -0.021 A 
HETATM   17  C   UNL     1      43.061 -18.133   3.046  1.00  0.00     0.102 A 
HETATM   18  C   UNL     1      41.897 -14.763   4.411  1.00  0.00     0.048 C 
HETATM   19  C   UNL     1      43.739 -16.345   5.076  1.00  0.00     0.010 A 
HETATM   20  C   UNL     1      44.491 -17.506   4.884  1.00  0.00     0.003 A 
HETATM   21  C   UNL     1      44.165 -18.391   3.857  1.00  0.00     0.039 A 
BRANCH  17  22
HETATM   22  O   UNL     1      42.794 -18.990   2.011  1.00  0.00    -0.353 OA
HETATM   23  C   UNL     1      43.465 -20.236   2.218  1.00  0.00     0.210 C 
ENDBRANCH  17  22
ENDBRANCH  11  12
ENDBRANCH   3  11
BRANCH   1  24
HETATM   24  N   UNL     1      40.421 -10.481  -0.947  1.00  0.00    -0.281 NA
HETATM   25  C   UNL     1      41.650  -9.931  -1.500  1.00  0.00     0.114 C 
HETATM   26  H   UNL     1      40.039  -9.893  -0.212  1.00  0.00     0.128 HD
ENDBRANCH   1  24
TORSDOF 4
ENDMDL
MODEL 6
REMARK VINA RESULT:      -7.7      5.475      7.957
REMARK  4 active torsions:
REMARK  status: ('A' for Active; 'I' for Inactive)
REMARK    1  A    between atoms: N_2  and  C_3 
REMARK    2  A    between atoms: C_5  and  C_6 
REMARK    3  A    between atoms: C_6  and  C_7 
REMARK    4  A    between atoms: C_13  and  O_14 
ROOT
HETATM    1  C   UNL     1      43.153 -16.310   5.161  1.00  0.00     0.113 A 
HETATM    2  N   UNL     1      43.117 -15.253   5.998  1.00  0.00    -0.223 NA
HETATM    3  C   UNL     1      43.089 -14.003   5.466  1.00  0.00     0.106 A 
HETATM    4  N   UNL     1      43.101 -13.763   4.143  1.00  0.00    -0.347 N 
HETATM    5  H   UNL     1      43.129 -12.799   3.799  1.00  0.00     0.167 HD
HETATM    6  C   UNL     1      43.137 -14.803   3.316  1.00  0.00     0.020 A 
HETATM    7  C   UNL     1      43.158 -16.100   3.799  1.00  0.00     0.005 A 
HETATM    8  C   UNL     1      43.223 -17.077   2.671  1.00  0.00     0.044 C 
HETATM    9  C   UNL     1      42.812 -16.194   1.478  1.00  0.00     0.011 C 
HETATM   10  C   UNL     1      43.216 -14.751   1.825  1.00  0.00     0.058 C 
ENDROOT
BRANCH   3  11
HETATM   11  C   UNL     1      43.081 -12.832   6.404  1.00  0.00     0.085 C 
BRANCH  11  12
HETATM   12  C   UNL     1      43.586 -11.502   5.784  1.00  0.00     0.021 C 
HETATM   13  C   UNL     1      42.630 -10.323   5.969  1.00  0.00     0.181 C 
HETATM   14  O   UNL     1      42.229 -10.247   7.343  1.00  0.00    -0.347 OA
HETATM   15  C   UNL     1      43.305 -10.124   8.198  1.00  0.00     0.108 A 
HETATM   16  C   UNL     1      44.608 -10.509   7.831  1.00  0.00    -0.021 A 
HETATM   17  C   UNL     1      43.048  -9.678   9.497  1.00  0.00     0.102 A 
HETATM   18  C   UNL     1      44.896 -11.078   6.463  1.00  0.00     0.048 C 
HETATM   19  C   UNL     1      45.647 -10.375   8.761  1.00  0.00     0.010 A 
HETATM   20  C   UNL     1      45.383  -9.916  10.054  1.00  0.00     0.003 A 
HETATM   21  C   UNL     1      44.081  -9.587  10.429  1.00  0.00     0.039 A 
BRANCH  17  22
HETATM   22  O   UNL     1      41.771  -9.400   9.905  1.00  0.00    -0.353 OA
HETATM   23  C   UNL     1      41.640  -9.639  11.309  1.00  0.00     0.210 C 
ENDBRANCH  17  22
ENDBRANCH  11  12
ENDBRANCH   3  11
BRANCH   1  24
HETATM   24  N   UNL     1      43.103 -17.607   5.659  1.00  0.00    -0.281 NA
HETATM   25  C   UNL     1      43.400 -17.768   7.075  1.00  0.00     0.114 C 
HETATM   26  H   UNL     1      43.627 -18.261   5.084  1.00  0.00     0.128 HD
ENDBRANCH   1  24
TORSDOF 4
ENDMDL
MODEL 7
REMARK VINA RESULT:      -7.7      4.772      7.041
REMARK  4 active torsions:
REMARK  status: ('A' for Active; 'I' for Inactive)
REMARK    1  A    between atoms: N_2  and  C_3 
REMARK    2  A    between atoms: C_5  and  C_6 
REMARK    3  A    between atoms: C_6  and  C_7 
REMARK    4  A    between atoms: C_13  and  O_14 
ROOT
HETATM    1  C   UNL     1      41.645 -15.787   2.681  1.00  0.00     0.113 A 
HETATM    2  N   UNL     1      41.583 -14.687   3.458  1.00  0.00    -0.223 NA
HETATM    3  C   UNL     1      42.368 -14.628   4.566  1.00  0.00     0.106 A 
HETATM    4  N   UNL     1      43.204 -15.616   4.931  1.00  0.00    -0.347 N 
HETATM    5  H   UNL     1      43.736 -15.539   5.803  1.00  0.00     0.167 HD
HETATM    6  C   UNL     1      43.267 -16.702   4.167  1.00  0.00     0.020 A 
HETATM    7  C   UNL     1      42.497 -16.814   3.021  1.00  0.00     0.005 A 
HETATM    8  C   UNL     1      42.734 -18.133   2.360  1.00  0.00     0.044 C 
HETATM    9  C   UNL     1      44.043 -18.583   3.036  1.00  0.00     0.011 C 
HETATM   10  C   UNL     1      44.080 -17.928   4.427  1.00  0.00     0.058 C 
ENDROOT
BRANCH   3  11
HETATM   11  C   UNL     1      42.270 -13.415   5.444  1.00  0.00     0.085 C 
BRANCH  11  12
HETATM   12  C   UNL     1      42.467 -12.064   4.706  1.00  0.00     0.021 C 
HETATM   13  C   UNL     1      41.815 -10.870   5.404  1.00  0.00     0.181 C 
HETATM   14  O   UNL     1      42.181 -10.872   6.790  1.00  0.00    -0.347 OA
HETATM   15  C   UNL     1      43.548 -10.841   6.972  1.00  0.00     0.108 A 
HETATM   16  C   UNL     1      44.452 -11.242   5.972  1.00  0.00    -0.021 A 
HETATM   17  C   UNL     1      44.022 -10.474   8.235  1.00  0.00     0.102 A 
HETATM   18  C   UNL     1      43.964 -11.728   4.629  1.00  0.00     0.048 C 
HETATM   19  C   UNL     1      45.828 -11.203   6.238  1.00  0.00     0.010 A 
HETATM   20  C   UNL     1      46.292 -10.822   7.500  1.00  0.00     0.003 A 
HETATM   21  C   UNL     1      45.389 -10.477   8.505  1.00  0.00     0.039 A 
BRANCH  17  22
HETATM   22  O   UNL     1      43.154 -10.182   9.254  1.00  0.00    -0.353 OA
HETATM   23  C   UNL     1      43.109  -8.770   9.473  1.00  0.00     0.210 C 
ENDBRANCH  17  22
ENDBRANCH  11  12
ENDBRANCH   3  11
BRANCH   1  24
HETATM   24  N   UNL     1      40.918 -15.856   1.497  1.00  0.00    -0.281 NA
HETATM   25  C   UNL     1      40.364 -14.604   1.004  1.00  0.00     0.114 C 
HETATM   26  H   UNL     1      40.224 -16.598   1.514  1.00  0.00     0.128 HD
ENDBRANCH   1  24
TORSDOF 4
ENDMDL
MODEL 8
REMARK VINA RESULT:      -7.7      2.919      7.682
REMARK  4 active torsions:
REMARK  status: ('A' for Active; 'I' for Inactive)
REMARK    1  A    between atoms: N_2  and  C_3 
REMARK    2  A    between atoms: C_5  and  C_6 
REMARK    3  A    between atoms: C_6  and  C_7 
REMARK    4  A    between atoms: C_13  and  O_14 
ROOT
HETATM    1  C   UNL     1      39.559 -13.497  -0.630  1.00  0.00     0.113 A 
HETATM    2  N   UNL     1      40.212 -14.566  -0.128  1.00  0.00    -0.223 NA
HETATM    3  C   UNL     1      40.357 -14.665   1.219  1.00  0.00     0.106 A 
HETATM    4  N   UNL     1      39.887 -13.748   2.082  1.00  0.00    -0.347 N 
HETATM    5  H   UNL     1      40.070 -13.849   3.085  1.00  0.00     0.167 HD
HETATM    6  C   UNL     1      39.244 -12.693   1.590  1.00  0.00     0.020 A 
HETATM    7  C   UNL     1      39.058 -12.543   0.227  1.00  0.00     0.005 A 
HETATM    8  C   UNL     1      38.331 -11.269  -0.063  1.00  0.00     0.044 C 
HETATM    9  C   UNL     1      37.758 -10.922   1.323  1.00  0.00     0.011 C 
HETATM   10  C   UNL     1      38.702 -11.540   2.369  1.00  0.00     0.058 C 
ENDROOT
BRANCH   3  11
HETATM   11  C   UNL     1      41.113 -15.841   1.768  1.00  0.00     0.085 C 
BRANCH  11  12
HETATM   12  C   UNL     1      42.646 -15.791   1.534  1.00  0.00     0.021 C 
HETATM   13  C   UNL     1      43.316 -14.520   2.056  1.00  0.00     0.181 C 
HETATM   14  O   UNL     1      42.892 -14.276   3.404  1.00  0.00    -0.347 OA
HETATM   15  C   UNL     1      43.169 -15.338   4.241  1.00  0.00     0.108 A 
HETATM   16  C   UNL     1      43.381 -16.643   3.760  1.00  0.00    -0.021 A 
HETATM   17  C   UNL     1      43.147 -15.095   5.617  1.00  0.00     0.102 A 
HETATM   18  C   UNL     1      43.322 -16.949   2.284  1.00  0.00     0.048 C 
HETATM   19  C   UNL     1      43.636 -17.674   4.674  1.00  0.00     0.010 A 
HETATM   20  C   UNL     1      43.625 -17.419   6.047  1.00  0.00     0.003 A 
HETATM   21  C   UNL     1      43.360 -16.135   6.521  1.00  0.00     0.039 A 
BRANCH  17  22
HETATM   22  O   UNL     1      42.836 -13.854   6.107  1.00  0.00    -0.353 OA
HETATM   23  C   UNL     1      44.000 -13.242   6.668  1.00  0.00     0.210 C 
ENDBRANCH  17  22
ENDBRANCH  11  12
ENDBRANCH   3  11
BRANCH   1  24
HETATM   24  N   UNL     1      39.318 -13.395  -1.995  1.00  0.00    -0.281 NA
HETATM   25  C   UNL     1      38.959 -14.626  -2.683  1.00  0.00     0.114 C 
HETATM   26  H   UNL     1      40.056 -12.890  -2.480  1.00  0.00     0.128 HD
ENDBRANCH   1  24
TORSDOF 4
ENDMDL
MODEL 9
REMARK VINA RESULT:      -7.7      1.224      1.491
REMARK  4 active torsions:
REMARK  status: ('A' for Active; 'I' for Inactive)
REMARK    1  A    between atoms: N_2  and  C_3 
REMARK    2  A    between atoms: C_5  and  C_6 
REMARK    3  A    between atoms: C_6  and  C_7 
REMARK    4  A    between atoms: C_13  and  O_14 
ROOT
HETATM    1  C   UNL     1      42.808 -16.008   4.894  1.00  0.00     0.113 A 
HETATM    2  N   UNL     1      42.339 -15.297   3.848  1.00  0.00    -0.223 NA
HETATM    3  C   UNL     1      42.433 -15.834   2.603  1.00  0.00     0.106 A 
HETATM    4  N   UNL     1      42.975 -17.039   2.358  1.00  0.00    -0.347 N 
HETATM    5  H   UNL     1      43.065 -17.373   1.393  1.00  0.00     0.167 HD
HETATM    6  C   UNL     1      43.438 -17.742   3.387  1.00  0.00     0.020 A 
HETATM    7  C   UNL     1      43.362 -17.250   4.679  1.00  0.00     0.005 A 
HETATM    8  C   UNL     1      43.971 -18.217   5.642  1.00  0.00     0.044 C 
HETATM    9  C   UNL     1      44.024 -19.501   4.794  1.00  0.00     0.011 C 
HETATM   10  C   UNL     1      44.127 -19.066   3.323  1.00  0.00     0.058 C 
ENDROOT
BRANCH   3  11
HETATM   11  C   UNL     1      41.938 -15.023   1.440  1.00  0.00     0.085 C 
BRANCH  11  12
HETATM   12  C   UNL     1      40.397 -14.849   1.381  1.00  0.00     0.021 C 
HETATM   13  C   UNL     1      39.907 -13.474   1.836  1.00  0.00     0.181 C 
HETATM   14  O   UNL     1      40.667 -12.454   1.175  1.00  0.00    -0.347 OA
HETATM   15  C   UNL     1      40.594 -12.554  -0.199  1.00  0.00     0.108 A 
HETATM   16  C   UNL     1      40.240 -13.749  -0.852  1.00  0.00    -0.021 A 
HETATM   17  C   UNL     1      40.972 -11.435  -0.947  1.00  0.00     0.102 A 
HETATM   18  C   UNL     1      39.914 -14.997  -0.069  1.00  0.00     0.048 C 
HETATM   19  C   UNL     1      40.209 -13.779  -2.253  1.00  0.00     0.010 A 
HETATM   20  C   UNL     1      40.576 -12.652  -2.991  1.00  0.00     0.003 A 
HETATM   21  C   UNL     1      40.977 -11.486  -2.340  1.00  0.00     0.039 A 
BRANCH  17  22
HETATM   22  O   UNL     1      41.421 -10.297  -0.331  1.00  0.00    -0.353 OA
HETATM   23  C   UNL     1      42.045  -9.435  -1.287  1.00  0.00     0.210 C 
ENDBRANCH  17  22
ENDBRANCH  11  12
ENDBRANCH   3  11
BRANCH   1  24
HETATM   24  N   UNL     1      42.661 -15.532   6.192  1.00  0.00    -0.281 NA
HETATM   25  C   UNL     1      43.532 -14.432   6.580  1.00  0.00     0.114 C 
HETATM   26  H   UNL     1      42.666 -16.281   6.879  1.00  0.00     0.128 HD
ENDBRANCH   1  24
TORSDOF 4
ENDMDL
MODEL 10
REMARK VINA RESULT:      -7.5      2.989      7.393
REMARK  4 active torsions:
REMARK  status: ('A' for Active; 'I' for Inactive)
REMARK    1  A    between atoms: N_2  and  C_3 
REMARK    2  A    between atoms: C_5  and  C_6 
REMARK    3  A    between atoms: C_6  and  C_7 
REMARK    4  A    between atoms: C_13  and  O_14 
ROOT
HETATM    1  C   UNL     1      39.448 -12.839   3.692  1.00  0.00     0.113 A 
HETATM    2  N   UNL     1      40.084 -14.014   3.510  1.00  0.00    -0.223 NA
HETATM    3  C   UNL     1      40.264 -14.467   2.241  1.00  0.00     0.106 A 
HETATM    4  N   UNL     1      39.834 -13.804   1.153  1.00  0.00    -0.347 N 
HETATM    5  H   UNL     1      39.952 -14.217   0.223  1.00  0.00     0.167 HD
HETATM    6  C   UNL     1      39.206 -12.646   1.329  1.00  0.00     0.020 A 
HETATM    7  C   UNL     1      39.002 -12.130   2.598  1.00  0.00     0.005 A 
HETATM    8  C   UNL     1      38.255 -10.838   2.523  1.00  0.00     0.044 C 
HETATM    9  C   UNL     1      38.428 -10.472   1.037  1.00  0.00     0.011 C 
HETATM   10  C   UNL     1      38.602 -11.790   0.264  1.00  0.00     0.058 C 
ENDROOT
BRANCH   3  11
HETATM   11  C   UNL     1      40.944 -15.791   2.048  1.00  0.00     0.085 C 
BRANCH  11  12
HETATM   12  C   UNL     1      42.411 -15.698   1.549  1.00  0.00     0.021 C 
HETATM   13  C   UNL     1      43.286 -14.740   2.358  1.00  0.00     0.181 C 
HETATM   14  O   UNL     1      43.129 -15.016   3.756  1.00  0.00    -0.347 OA
HETATM   15  C   UNL     1      43.439 -16.323   4.071  1.00  0.00     0.108 A 
HETATM   16  C   UNL     1      43.433 -17.352   3.112  1.00  0.00    -0.021 A 
HETATM   17  C   UNL     1      43.681 -16.621   5.414  1.00  0.00     0.102 A 
HETATM   18  C   UNL     1      43.087 -17.072   1.670  1.00  0.00     0.048 C 
HETATM   19  C   UNL     1      43.737 -18.660   3.512  1.00  0.00     0.010 A 
HETATM   20  C   UNL     1      43.990 -18.947   4.855  1.00  0.00     0.003 A 
HETATM   21  C   UNL     1      43.943 -17.932   5.810  1.00  0.00     0.039 A 
BRANCH  17  22
HETATM   22  O   UNL     1      43.587 -15.652   6.378  1.00  0.00    -0.353 OA
HETATM   23  C   UNL     1      43.495 -16.253   7.672  1.00  0.00     0.210 C 
ENDBRANCH  17  22
ENDBRANCH  11  12
ENDBRANCH   3  11
BRANCH   1  24
HETATM   24  N   UNL     1      39.312 -12.300   4.966  1.00  0.00    -0.281 NA
HETATM   25  C   UNL     1      40.112 -12.913   6.016  1.00  0.00     0.114 C 
HETATM   26  H   UNL     1      38.339 -12.199   5.240  1.00  0.00     0.128 HD
ENDBRANCH   1  24
TORSDOF 4
ENDMDL
