MODEL 1
REMARK VINA RESULT:      -7.9      0.000      0.000
REMARK  4 active torsions:
REMARK  status: ('A' for Active; 'I' for Inactive)
REMARK    1  A    between atoms: C_2  and  C_3 
REMARK    2  A    between atoms: C_4  and  N_5 
REMARK       I    between atoms: N_5  and  C_6 
REMARK       I    between atoms: C_6  and  N_7 
REMARK    3  A    between atoms: C_8  and  C_9 
REMARK    4  A    between atoms: C_21  and  C_22 
ROOT
HETATM    1  N   UNL     1      40.142 -14.910   4.729  1.00  0.00    -0.209 NA
HETATM    2  C   UNL     1      40.319 -13.662   5.266  1.00  0.00     0.301 C 
HETATM    3  N   UNL     1      41.103 -12.737   4.625  1.00  0.00    -0.330 N 
HETATM    4  C   UNL     1      41.214 -11.370   5.142  1.00  0.00     0.125 C 
HETATM    5  C   UNL     1      42.184 -10.665   4.184  1.00  0.00     0.032 C 
HETATM    6  C   UNL     1      43.056 -11.798   3.680  1.00  0.00     0.022 C 
HETATM    7  C   UNL     1      42.073 -12.954   3.559  1.00  0.00     0.128 C 
HETATM    8  O   UNL     1      39.679 -13.401   6.286  1.00  0.00    -0.254 OA
HETATM    9  H   UNL     1      39.506 -15.371   5.374  1.00  0.00     0.138 HD
ENDROOT
BRANCH   1  10
HETATM   10  C   UNL     1      41.175 -15.792   4.348  1.00  0.00     0.029 A 
HETATM   11  C   UNL     1      42.053 -16.339   5.317  1.00  0.00    -0.036 A 
HETATM   12  C   UNL     1      43.076 -17.206   4.900  1.00  0.00     0.009 A 
HETATM   13  C   UNL     1      43.205 -17.567   3.566  1.00  0.00     0.001 A 
HETATM   14  C   UNL     1      42.293 -17.087   2.633  1.00  0.00     0.009 A 
HETATM   15  C   UNL     1      41.256 -16.201   2.996  1.00  0.00    -0.036 A 
BRANCH  11  16
HETATM   16  C   UNL     1      41.933 -16.087   6.807  1.00  0.00     0.036 C 
HETATM   17  C   UNL     1      42.995 -15.134   7.336  1.00  0.00     0.010 C 
ENDBRANCH  11  16
BRANCH  15  18
HETATM   18  C   UNL     1      40.274 -15.871   1.884  1.00  0.00     0.036 C 
HETATM   19  C   UNL     1      40.674 -14.960   0.735  1.00  0.00     0.010 C 
ENDBRANCH  15  18
ENDBRANCH   1  10
BRANCH   4  20
HETATM   20  C   UNL     1      39.912 -10.629   5.231  1.00  0.00     0.014 A 
HETATM   21  C   UNL     1      39.313  -9.955   6.337  1.00  0.00     0.061 A 
HETATM   22  C   UNL     1      39.840  -9.763   7.710  1.00  0.00     0.073 C 
HETATM   23  N   UNL     1      38.116  -9.442   6.024  1.00  0.00    -0.179 NA
HETATM   24  N   UNL     1      37.963  -9.738   4.729  1.00  0.00    -0.282 N 
HETATM   25  H   UNL     1      37.125  -9.412   4.262  1.00  0.00     0.189 HD
HETATM   26  C   UNL     1      38.986 -10.475   4.209  1.00  0.00     0.034 A 
HETATM   27  C   UNL     1      38.991 -10.932   2.801  1.00  0.00     0.070 C 
ENDBRANCH   4  20
TORSDOF 4
ENDMDL
MODEL 2
REMARK VINA RESULT:      -7.7      0.408      2.621
REMARK  4 active torsions:
REMARK  status: ('A' for Active; 'I' for Inactive)
REMARK    1  A    between atoms: C_2  and  C_3 
REMARK    2  A    between atoms: C_4  and  N_5 
REMARK       I    between atoms: N_5  and  C_6 
REMARK       I    between atoms: C_6  and  N_7 
REMARK    3  A    between atoms: C_8  and  C_9 
REMARK    4  A    between atoms: C_21  and  C_22 
ROOT
HETATM    1  N   UNL     1      40.140 -14.850   4.659  1.00  0.00    -0.209 NA
HETATM    2  C   UNL     1      40.366 -13.603   5.178  1.00  0.00     0.301 C 
HETATM    3  N   UNL     1      41.072 -12.671   4.461  1.00  0.00    -0.330 N 
HETATM    4  C   UNL     1      41.230 -11.305   4.968  1.00  0.00     0.125 C 
HETATM    5  C   UNL     1      42.089 -10.592   3.915  1.00  0.00     0.032 C 
HETATM    6  C   UNL     1      42.909 -11.719   3.317  1.00  0.00     0.022 C 
HETATM    7  C   UNL     1      41.925 -12.880   3.297  1.00  0.00     0.128 C 
HETATM    8  O   UNL     1      39.836 -13.348   6.262  1.00  0.00    -0.254 OA
HETATM    9  H   UNL     1      39.578 -15.316   5.365  1.00  0.00     0.138 HD
ENDROOT
BRANCH   1  10
HETATM   10  C   UNL     1      41.130 -15.725   4.166  1.00  0.00     0.029 A 
HETATM   11  C   UNL     1      41.079 -16.195   2.829  1.00  0.00    -0.036 A 
HETATM   12  C   UNL     1      42.077 -17.074   2.375  1.00  0.00     0.009 A 
HETATM   13  C   UNL     1      43.129 -17.446   3.201  1.00  0.00     0.001 A 
HETATM   14  C   UNL     1      43.213 -16.920   4.486  1.00  0.00     0.009 A 
HETATM   15  C   UNL     1      42.229 -16.045   4.997  1.00  0.00    -0.036 A 
BRANCH  11  16
HETATM   16  C   UNL     1      40.030 -15.769   1.820  1.00  0.00     0.036 C 
HETATM   17  C   UNL     1      40.611 -14.975   0.659  1.00  0.00     0.010 C 
ENDBRANCH  11  16
BRANCH  15  18
HETATM   18  C   UNL     1      42.535 -15.466   6.367  1.00  0.00     0.036 C 
HETATM   19  C   UNL     1      43.623 -14.419   6.547  1.00  0.00     0.010 C 
ENDBRANCH  15  18
ENDBRANCH   1  10
BRANCH   4  20
HETATM   20  C   UNL     1      39.941 -10.572   5.198  1.00  0.00     0.014 A 
HETATM   21  C   UNL     1      39.465  -9.894   6.360  1.00  0.00     0.061 A 
HETATM   22  C   UNL     1      40.142  -9.689   7.664  1.00  0.00     0.073 C 
HETATM   23  N   UNL     1      38.237  -9.391   6.180  1.00  0.00    -0.179 NA
HETATM   24  N   UNL     1      37.943  -9.697   4.912  1.00  0.00    -0.282 N 
HETATM   25  H   UNL     1      37.055  -9.379   4.540  1.00  0.00     0.189 HD
HETATM   26  C   UNL     1      38.906 -10.431   4.285  1.00  0.00     0.034 A 
HETATM   27  C   UNL     1      38.757 -10.898   2.888  1.00  0.00     0.070 C 
ENDBRANCH   4  20
TORSDOF 4
ENDMDL
MODEL 3
REMARK VINA RESULT:      -7.6      0.313      1.645
REMARK  4 active torsions:
REMARK  status: ('A' for Active; 'I' for Inactive)
REMARK    1  A    between atoms: C_2  and  C_3 
REMARK    2  A    between atoms: C_4  and  N_5 
REMARK       I    between atoms: N_5  and  C_6 
REMARK       I    between atoms: C_6  and  N_7 
REMARK    3  A    between atoms: C_8  and  C_9 
REMARK    4  A    between atoms: C_21  and  C_22 
ROOT
HETATM    1  N   UNL     1      40.287 -14.979   4.579  1.00  0.00    -0.209 NA
HETATM    2  C   UNL     1      40.507 -13.757   5.155  1.00  0.00     0.301 C 
HETATM    3  N   UNL     1      41.347 -12.851   4.559  1.00  0.00    -0.330 N 
HETATM    4  C   UNL     1      41.508 -11.506   5.118  1.00  0.00     0.125 C 
HETATM    5  C   UNL     1      42.531 -10.820   4.203  1.00  0.00     0.032 C 
HETATM    6  C   UNL     1      43.363 -11.978   3.687  1.00  0.00     0.022 C 
HETATM    7  C   UNL     1      42.332 -13.083   3.510  1.00  0.00     0.128 C 
HETATM    8  O   UNL     1      39.855 -13.495   6.168  1.00  0.00    -0.254 OA
HETATM    9  H   UNL     1      39.616 -15.428   5.195  1.00  0.00     0.138 HD
ENDROOT
BRANCH   1  10
HETATM   10  C   UNL     1      41.287 -15.898   4.195  1.00  0.00     0.029 A 
HETATM   11  C   UNL     1      42.161 -16.459   5.160  1.00  0.00    -0.036 A 
HETATM   12  C   UNL     1      43.152 -17.362   4.741  1.00  0.00     0.009 A 
HETATM   13  C   UNL     1      43.253 -17.743   3.410  1.00  0.00     0.001 A 
HETATM   14  C   UNL     1      42.343 -17.246   2.482  1.00  0.00     0.009 A 
HETATM   15  C   UNL     1      41.338 -16.325   2.848  1.00  0.00    -0.036 A 
BRANCH  11  16
HETATM   16  C   UNL     1      42.069 -16.185   6.649  1.00  0.00     0.036 C 
HETATM   17  C   UNL     1      43.194 -15.299   7.161  1.00  0.00     0.010 C 
ENDBRANCH  11  16
BRANCH  15  18
HETATM   18  C   UNL     1      40.352 -15.979   1.745  1.00  0.00     0.036 C 
HETATM   19  C   UNL     1      40.612 -14.814   0.803  1.00  0.00     0.010 C 
ENDBRANCH  15  18
ENDBRANCH   1  10
BRANCH   4  20
HETATM   20  C   UNL     1      40.239 -10.708   5.199  1.00  0.00     0.014 A 
HETATM   21  C   UNL     1      39.205 -10.528   4.233  1.00  0.00     0.061 A 
HETATM   22  C   UNL     1      39.077 -11.122   2.880  1.00  0.00     0.073 C 
HETATM   23  N   UNL     1      38.245  -9.703   4.673  1.00  0.00    -0.179 NA
HETATM   24  N   UNL     1      38.627  -9.393   5.916  1.00  0.00    -0.282 N 
HETATM   25  H   UNL     1      38.021  -8.793   6.464  1.00  0.00     0.189 HD
HETATM   26  C   UNL     1      39.826  -9.934   6.274  1.00  0.00     0.034 A 
HETATM   27  C   UNL     1      40.440  -9.684   7.599  1.00  0.00     0.070 C 
ENDBRANCH   4  20
TORSDOF 4
ENDMDL
MODEL 4
REMARK VINA RESULT:      -7.5      2.769      3.949
REMARK  4 active torsions:
REMARK  status: ('A' for Active; 'I' for Inactive)
REMARK    1  A    between atoms: C_2  and  C_3 
REMARK    2  A    between atoms: C_4  and  N_5 
REMARK       I    between atoms: N_5  and  C_6 
REMARK       I    between atoms: C_6  and  N_7 
REMARK    3  A    between atoms: C_8  and  C_9 
REMARK    4  A    between atoms: C_21  and  C_22 
ROOT
HETATM    1  N   UNL     1      40.898 -16.295   3.222  1.00  0.00    -0.209 NA
HETATM    2  C   UNL     1      40.407 -15.036   3.005  1.00  0.00     0.301 C 
HETATM    3  N   UNL     1      41.256 -14.005   2.691  1.00  0.00    -0.330 N 
HETATM    4  C   UNL     1      40.726 -12.679   2.359  1.00  0.00     0.125 C 
HETATM    5  C   UNL     1      41.967 -11.814   2.102  1.00  0.00     0.032 C 
HETATM    6  C   UNL     1      43.028 -12.466   2.967  1.00  0.00     0.022 C 
HETATM    7  C   UNL     1      42.705 -13.948   2.841  1.00  0.00     0.128 C 
HETATM    8  O   UNL     1      39.181 -14.907   3.023  1.00  0.00    -0.254 OA
HETATM    9  H   UNL     1      40.071 -16.858   3.399  1.00  0.00     0.138 HD
ENDROOT
BRANCH   1  10
HETATM   10  C   UNL     1      41.921 -16.631   4.133  1.00  0.00     0.029 A 
HETATM   11  C   UNL     1      41.793 -16.318   5.510  1.00  0.00    -0.036 A 
HETATM   12  C   UNL     1      42.836 -16.658   6.388  1.00  0.00     0.009 A 
HETATM   13  C   UNL     1      43.960 -17.333   5.932  1.00  0.00     0.001 A 
HETATM   14  C   UNL     1      44.044 -17.703   4.593  1.00  0.00     0.009 A 
HETATM   15  C   UNL     1      43.031 -17.373   3.667  1.00  0.00    -0.036 A 
BRANCH  11  16
HETATM   16  C   UNL     1      40.565 -15.675   6.123  1.00  0.00     0.036 C 
HETATM   17  C   UNL     1      40.737 -14.183   6.372  1.00  0.00     0.010 C 
ENDBRANCH  11  16
BRANCH  15  18
HETATM   18  C   UNL     1      43.217 -17.959   2.277  1.00  0.00     0.036 C 
HETATM   19  C   UNL     1      43.194 -19.462   2.054  1.00  0.00     0.010 C 
ENDBRANCH  15  18
ENDBRANCH   1  10
BRANCH   4  20
HETATM   20  C   UNL     1      39.799 -12.655   1.179  1.00  0.00     0.014 A 
HETATM   21  C   UNL     1      39.878 -13.349  -0.065  1.00  0.00     0.061 A 
HETATM   22  C   UNL     1      40.890 -14.332  -0.523  1.00  0.00     0.073 C 
HETATM   23  N   UNL     1      38.867 -13.029  -0.883  1.00  0.00    -0.179 NA
HETATM   24  N   UNL     1      38.123 -12.181  -0.166  1.00  0.00    -0.282 N 
HETATM   25  H   UNL     1      37.270 -11.827  -0.582  1.00  0.00     0.189 HD
HETATM   26  C   UNL     1      38.647 -11.892   1.060  1.00  0.00     0.034 A 
HETATM   27  C   UNL     1      37.991 -10.948   1.994  1.00  0.00     0.070 C 
ENDBRANCH   4  20
TORSDOF 4
ENDMDL
MODEL 5
REMARK VINA RESULT:      -7.5      1.851      3.658
REMARK  4 active torsions:
REMARK  status: ('A' for Active; 'I' for Inactive)
REMARK    1  A    between atoms: C_2  and  C_3 
REMARK    2  A    between atoms: C_4  and  N_5 
REMARK       I    between atoms: N_5  and  C_6 
REMARK       I    between atoms: C_6  and  N_7 
REMARK    3  A    between atoms: C_8  and  C_9 
REMARK    4  A    between atoms: C_21  and  C_22 
ROOT
HETATM    1  N   UNL     1      41.665 -15.422   5.456  1.00  0.00    -0.209 NA
HETATM    2  C   UNL     1      42.260 -14.250   5.837  1.00  0.00     0.301 C 
HETATM    3  N   UNL     1      42.600 -13.308   4.900  1.00  0.00    -0.330 N 
HETATM    4  C   UNL     1      43.145 -12.011   5.311  1.00  0.00     0.125 C 
HETATM    5  C   UNL     1      43.419 -11.266   3.998  1.00  0.00     0.032 C 
HETATM    6  C   UNL     1      43.689 -12.388   3.014  1.00  0.00     0.022 C 
HETATM    7  C   UNL     1      42.710 -13.467   3.455  1.00  0.00     0.128 C 
HETATM    8  O   UNL     1      42.389 -14.061   7.049  1.00  0.00    -0.254 OA
HETATM    9  H   UNL     1      41.495 -15.912   6.330  1.00  0.00     0.138 HD
ENDROOT
BRANCH   1  10
HETATM   10  C   UNL     1      42.162 -16.317   4.484  1.00  0.00     0.029 A 
HETATM   11  C   UNL     1      41.488 -16.488   3.249  1.00  0.00    -0.036 A 
HETATM   12  C   UNL     1      42.006 -17.395   2.309  1.00  0.00     0.009 A 
HETATM   13  C   UNL     1      43.186 -18.083   2.557  1.00  0.00     0.001 A 
HETATM   14  C   UNL     1      43.881 -17.852   3.740  1.00  0.00     0.009 A 
HETATM   15  C   UNL     1      43.397 -16.963   4.724  1.00  0.00    -0.036 A 
BRANCH  11  16
HETATM   16  C   UNL     1      40.252 -15.711   2.842  1.00  0.00     0.036 C 
HETATM   17  C   UNL     1      39.952 -15.809   1.353  1.00  0.00     0.010 C 
ENDBRANCH  11  16
BRANCH  15  18
HETATM   18  C   UNL     1      44.335 -16.731   5.896  1.00  0.00     0.036 C 
HETATM   19  C   UNL     1      43.971 -17.207   7.293  1.00  0.00     0.010 C 
ENDBRANCH  15  18
ENDBRANCH   1  10
BRANCH   4  20
HETATM   20  C   UNL     1      42.243 -11.211   6.206  1.00  0.00     0.014 A 
HETATM   21  C   UNL     1      40.846 -10.942   6.098  1.00  0.00     0.061 A 
HETATM   22  C   UNL     1      39.879 -11.423   5.081  1.00  0.00     0.073 C 
HETATM   23  N   UNL     1      40.410 -10.148   7.084  1.00  0.00    -0.179 NA
HETATM   24  N   UNL     1      41.494  -9.944   7.841  1.00  0.00    -0.282 N 
HETATM   25  H   UNL     1      41.389  -9.386   8.681  1.00  0.00     0.189 HD
HETATM   26  C   UNL     1      42.625 -10.525   7.349  1.00  0.00     0.034 A 
HETATM   27  C   UNL     1      43.937 -10.389   8.023  1.00  0.00     0.070 C 
ENDBRANCH   4  20
TORSDOF 4
ENDMDL
MODEL 6
REMARK VINA RESULT:      -7.2      2.685      3.664
REMARK  4 active torsions:
REMARK  status: ('A' for Active; 'I' for Inactive)
REMARK    1  A    between atoms: C_2  and  C_3 
REMARK    2  A    between atoms: C_4  and  N_5 
REMARK       I    between atoms: N_5  and  C_6 
REMARK       I    between atoms: C_6  and  N_7 
REMARK    3  A    between atoms: C_8  and  C_9 
REMARK    4  A    between atoms: C_21  and  C_22 
ROOT
HETATM    1  N   UNL     1      40.788 -16.131   3.254  1.00  0.00    -0.209 NA
HETATM    2  C   UNL     1      40.332 -14.857   3.048  1.00  0.00     0.301 C 
HETATM    3  N   UNL     1      41.204 -13.856   2.705  1.00  0.00    -0.330 N 
HETATM    4  C   UNL     1      40.709 -12.514   2.385  1.00  0.00     0.125 C 
HETATM    5  C   UNL     1      41.969 -11.690   2.087  1.00  0.00     0.032 C 
HETATM    6  C   UNL     1      43.034 -12.374   2.922  1.00  0.00     0.022 C 
HETATM    7  C   UNL     1      42.658 -13.845   2.811  1.00  0.00     0.128 C 
HETATM    8  O   UNL     1      39.112 -14.688   3.103  1.00  0.00    -0.254 OA
HETATM    9  H   UNL     1      39.949 -16.666   3.458  1.00  0.00     0.138 HD
ENDROOT
BRANCH   1  10
HETATM   10  C   UNL     1      41.827 -16.498   4.135  1.00  0.00     0.029 A 
HETATM   11  C   UNL     1      41.756 -16.169   5.513  1.00  0.00    -0.036 A 
HETATM   12  C   UNL     1      42.814 -16.541   6.359  1.00  0.00     0.009 A 
HETATM   13  C   UNL     1      43.896 -17.262   5.873  1.00  0.00     0.001 A 
HETATM   14  C   UNL     1      43.921 -17.647   4.537  1.00  0.00     0.009 A 
HETATM   15  C   UNL     1      42.892 -17.286   3.640  1.00  0.00    -0.036 A 
BRANCH  11  16
HETATM   16  C   UNL     1      40.574 -15.474   6.158  1.00  0.00     0.036 C 
HETATM   17  C   UNL     1      40.803 -13.984   6.369  1.00  0.00     0.010 C 
ENDBRANCH  11  16
BRANCH  15  18
HETATM   18  C   UNL     1      43.010 -17.890   2.251  1.00  0.00     0.036 C 
HETATM   19  C   UNL     1      43.197 -19.387   2.064  1.00  0.00     0.010 C 
ENDBRANCH  15  18
ENDBRANCH   1  10
BRANCH   4  20
HETATM   20  C   UNL     1      39.747 -12.462   1.233  1.00  0.00     0.014 A 
HETATM   21  C   UNL     1      38.563 -11.684   1.060  1.00  0.00     0.061 A 
HETATM   22  C   UNL     1      37.973 -10.668   1.966  1.00  0.00     0.073 C 
HETATM   23  N   UNL     1      37.953 -11.951  -0.102  1.00  0.00    -0.179 NA
HETATM   24  N   UNL     1      38.750 -12.849  -0.690  1.00  0.00    -0.282 N 
HETATM   25  H   UNL     1      38.496 -13.177  -1.615  1.00  0.00     0.189 HD
HETATM   26  C   UNL     1      39.818 -13.219   0.073  1.00  0.00     0.034 A 
HETATM   27  C   UNL     1      40.802 -14.227  -0.385  1.00  0.00     0.070 C 
ENDBRANCH   4  20
TORSDOF 4
ENDMDL
MODEL 7
REMARK VINA RESULT:      -7.1      1.557      3.540
REMARK  4 active torsions:
REMARK  status: ('A' for Active; 'I' for Inactive)
REMARK    1  A    between atoms: C_2  and  C_3 
REMARK    2  A    between atoms: C_4  and  N_5 
REMARK       I    between atoms: N_5  and  C_6 
REMARK       I    between atoms: C_6  and  N_7 
REMARK    3  A    between atoms: C_8  and  C_9 
REMARK    4  A    between atoms: C_21  and  C_22 
ROOT
HETATM    1  N   UNL     1      41.106 -15.391   4.566  1.00  0.00    -0.209 NA
HETATM    2  C   UNL     1      40.876 -14.041   4.560  1.00  0.00     0.301 C 
HETATM    3  N   UNL     1      41.682 -13.204   3.832  1.00  0.00    -0.330 N 
HETATM    4  C   UNL     1      41.380 -11.773   3.742  1.00  0.00     0.125 C 
HETATM    5  C   UNL     1      42.507 -11.187   2.880  1.00  0.00     0.032 C 
HETATM    6  C   UNL     1      43.670 -12.121   3.152  1.00  0.00     0.022 C 
HETATM    7  C   UNL     1      42.994 -13.480   3.260  1.00  0.00     0.128 C 
HETATM    8  O   UNL     1      39.876 -13.645   5.163  1.00  0.00    -0.254 OA
HETATM    9  H   UNL     1      40.361 -15.769   5.144  1.00  0.00     0.138 HD
ENDROOT
BRANCH   1  10
HETATM   10  C   UNL     1      42.332 -16.013   4.883  1.00  0.00     0.029 A 
HETATM   11  C   UNL     1      42.902 -16.973   4.008  1.00  0.00    -0.036 A 
HETATM   12  C   UNL     1      44.119 -17.579   4.360  1.00  0.00     0.009 A 
HETATM   13  C   UNL     1      44.787 -17.217   5.522  1.00  0.00     0.001 A 
HETATM   14  C   UNL     1      44.259 -16.220   6.335  1.00  0.00     0.009 A 
HETATM   15  C   UNL     1      43.032 -15.589   6.036  1.00  0.00    -0.036 A 
BRANCH  11  16
HETATM   16  C   UNL     1      42.303 -17.362   2.671  1.00  0.00     0.036 C 
HETATM   17  C   UNL     1      42.850 -18.678   2.136  1.00  0.00     0.010 C 
ENDBRANCH  11  16
BRANCH  15  18
HETATM   18  C   UNL     1      42.660 -14.438   6.956  1.00  0.00     0.036 C 
HETATM   19  C   UNL     1      43.529 -13.194   7.039  1.00  0.00     0.010 C 
ENDBRANCH  15  18
ENDBRANCH   1  10
BRANCH   4  20
HETATM   20  C   UNL     1      40.035 -11.454   3.157  1.00  0.00     0.014 A 
HETATM   21  C   UNL     1      39.423 -11.919   1.954  1.00  0.00     0.061 A 
HETATM   22  C   UNL     1      39.939 -12.892   0.961  1.00  0.00     0.073 C 
HETATM   23  N   UNL     1      38.217 -11.369   1.759  1.00  0.00    -0.179 NA
HETATM   24  N   UNL     1      38.032 -10.599   2.837  1.00  0.00    -0.282 N 
HETATM   25  H   UNL     1      37.154 -10.101   2.920  1.00  0.00     0.189 HD
HETATM   26  C   UNL     1      39.096 -10.582   3.689  1.00  0.00     0.034 A 
HETATM   27  C   UNL     1      39.103  -9.764   4.925  1.00  0.00     0.070 C 
ENDBRANCH   4  20
TORSDOF 4
ENDMDL
MODEL 8
REMARK VINA RESULT:      -7.0      0.688      3.155
REMARK  4 active torsions:
REMARK  status: ('A' for Active; 'I' for Inactive)
REMARK    1  A    between atoms: C_2  and  C_3 
REMARK    2  A    between atoms: C_4  and  N_5 
REMARK       I    between atoms: N_5  and  C_6 
REMARK       I    between atoms: C_6  and  N_7 
REMARK    3  A    between atoms: C_8  and  C_9 
REMARK    4  A    between atoms: C_21  and  C_22 
ROOT
HETATM    1  N   UNL     1      40.113 -14.582   4.950  1.00  0.00    -0.209 NA
HETATM    2  C   UNL     1      40.467 -13.378   5.496  1.00  0.00     0.301 C 
HETATM    3  N   UNL     1      41.196 -12.474   4.767  1.00  0.00    -0.330 N 
HETATM    4  C   UNL     1      41.491 -11.145   5.309  1.00  0.00     0.125 C 
HETATM    5  C   UNL     1      42.333 -10.457   4.227  1.00  0.00     0.032 C 
HETATM    6  C   UNL     1      43.024 -11.617   3.538  1.00  0.00     0.022 C 
HETATM    7  C   UNL     1      41.954 -12.699   3.542  1.00  0.00     0.128 C 
HETATM    8  O   UNL     1      40.028 -13.127   6.621  1.00  0.00    -0.254 OA
HETATM    9  H   UNL     1      39.563 -15.033   5.676  1.00  0.00     0.138 HD
ENDROOT
BRANCH   1  10
HETATM   10  C   UNL     1      41.000 -15.509   4.363  1.00  0.00     0.029 A 
HETATM   11  C   UNL     1      40.864 -15.875   3.000  1.00  0.00    -0.036 A 
HETATM   12  C   UNL     1      41.759 -16.809   2.452  1.00  0.00     0.009 A 
HETATM   13  C   UNL     1      42.794 -17.336   3.211  1.00  0.00     0.001 A 
HETATM   14  C   UNL     1      42.966 -16.914   4.526  1.00  0.00     0.009 A 
HETATM   15  C   UNL     1      42.087 -15.990   5.130  1.00  0.00    -0.036 A 
BRANCH  11  16
HETATM   16  C   UNL     1      39.832 -15.282   2.062  1.00  0.00     0.036 C 
HETATM   17  C   UNL     1      39.838 -15.931   0.685  1.00  0.00     0.010 C 
ENDBRANCH  11  16
BRANCH  15  18
HETATM   18  C   UNL     1      42.487 -15.541   6.525  1.00  0.00     0.036 C 
HETATM   19  C   UNL     1      43.616 -14.545   6.731  1.00  0.00     0.010 C 
ENDBRANCH  15  18
ENDBRANCH   1  10
BRANCH   4  20
HETATM   20  C   UNL     1      40.279 -10.326   5.649  1.00  0.00     0.014 A 
HETATM   21  C   UNL     1      39.102 -10.068   4.885  1.00  0.00     0.061 A 
HETATM   22  C   UNL     1      38.729 -10.580   3.544  1.00  0.00     0.073 C 
HETATM   23  N   UNL     1      38.256  -9.251   5.526  1.00  0.00    -0.179 NA
HETATM   24  N   UNL     1      38.853  -9.021   6.701  1.00  0.00    -0.282 N 
HETATM   25  H   UNL     1      38.368  -8.441   7.375  1.00  0.00     0.189 HD
HETATM   26  C   UNL     1      40.078  -9.608   6.819  1.00  0.00     0.034 A 
HETATM   27  C   UNL     1      40.916  -9.447   8.030  1.00  0.00     0.070 C 
ENDBRANCH   4  20
TORSDOF 4
ENDMDL
MODEL 9
REMARK VINA RESULT:      -7.0      2.818      4.965
REMARK  4 active torsions:
REMARK  status: ('A' for Active; 'I' for Inactive)
REMARK    1  A    between atoms: C_2  and  C_3 
REMARK    2  A    between atoms: C_4  and  N_5 
REMARK       I    between atoms: N_5  and  C_6 
REMARK       I    between atoms: C_6  and  N_7 
REMARK    3  A    between atoms: C_8  and  C_9 
REMARK    4  A    between atoms: C_21  and  C_22 
ROOT
HETATM    1  N   UNL     1      43.178 -14.373   3.448  1.00  0.00    -0.209 NA
HETATM    2  C   UNL     1      42.136 -14.300   2.564  1.00  0.00     0.301 C 
HETATM    3  N   UNL     1      41.051 -13.506   2.835  1.00  0.00    -0.330 N 
HETATM    4  C   UNL     1      39.980 -13.346   1.847  1.00  0.00     0.125 C 
HETATM    5  C   UNL     1      38.956 -12.425   2.523  1.00  0.00     0.032 C 
HETATM    6  C   UNL     1      39.151 -12.716   3.998  1.00  0.00     0.022 C 
HETATM    7  C   UNL     1      40.656 -12.916   4.108  1.00  0.00     0.128 C 
HETATM    8  O   UNL     1      42.268 -14.907   1.499  1.00  0.00    -0.254 OA
HETATM    9  H   UNL     1      43.846 -14.990   2.997  1.00  0.00     0.138 HD
ENDROOT
BRANCH   1  10
HETATM   10  C   UNL     1      43.070 -14.690   4.819  1.00  0.00     0.029 A 
HETATM   11  C   UNL     1      42.774 -16.013   5.233  1.00  0.00    -0.036 A 
HETATM   12  C   UNL     1      42.664 -16.290   6.606  1.00  0.00     0.009 A 
HETATM   13  C   UNL     1      42.887 -15.301   7.554  1.00  0.00     0.001 A 
HETATM   14  C   UNL     1      43.251 -14.023   7.141  1.00  0.00     0.009 A 
HETATM   15  C   UNL     1      43.361 -13.687   5.774  1.00  0.00    -0.036 A 
BRANCH  11  16
HETATM   16  C   UNL     1      42.614 -17.183   4.283  1.00  0.00     0.036 C 
HETATM   17  C   UNL     1      43.873 -18.030   4.166  1.00  0.00     0.010 C 
ENDBRANCH  11  16
BRANCH  15  18
HETATM   18  C   UNL     1      43.888 -12.290   5.497  1.00  0.00     0.036 C 
HETATM   19  C   UNL     1      44.935 -11.658   6.399  1.00  0.00     0.010 C 
ENDBRANCH  15  18
ENDBRANCH   1  10
BRANCH   4  20
HETATM   20  C   UNL     1      40.425 -12.781   0.530  1.00  0.00     0.014 A 
HETATM   21  C   UNL     1      41.114 -11.566   0.238  1.00  0.00     0.061 A 
HETATM   22  C   UNL     1      41.625 -10.535   1.174  1.00  0.00     0.073 C 
HETATM   23  N   UNL     1      41.300 -11.398  -1.078  1.00  0.00    -0.179 NA
HETATM   24  N   UNL     1      40.782 -12.504  -1.624  1.00  0.00    -0.282 N 
HETATM   25  H   UNL     1      40.842 -12.610  -2.630  1.00  0.00     0.189 HD
HETATM   26  C   UNL     1      40.215 -13.350  -0.718  1.00  0.00     0.034 A 
HETATM   27  C   UNL     1      39.558 -14.614  -1.124  1.00  0.00     0.070 C 
ENDBRANCH   4  20
TORSDOF 4
ENDMDL
MODEL 10
REMARK VINA RESULT:      -6.8      2.865      4.561
REMARK  4 active torsions:
REMARK  status: ('A' for Active; 'I' for Inactive)
REMARK    1  A    between atoms: C_2  and  C_3 
REMARK    2  A    between atoms: C_4  and  N_5 
REMARK       I    between atoms: N_5  and  C_6 
REMARK       I    between atoms: C_6  and  N_7 
REMARK    3  A    between atoms: C_8  and  C_9 
REMARK    4  A    between atoms: C_21  and  C_22 
ROOT
HETATM    1  N   UNL     1      43.220 -14.111   3.356  1.00  0.00    -0.209 NA
HETATM    2  C   UNL     1      42.220 -13.977   2.431  1.00  0.00     0.301 C 
HETATM    3  N   UNL     1      41.097 -13.247   2.725  1.00  0.00    -0.330 N 
HETATM    4  C   UNL     1      40.070 -13.017   1.704  1.00  0.00     0.125 C 
HETATM    5  C   UNL     1      38.984 -12.200   2.417  1.00  0.00     0.032 C 
HETATM    6  C   UNL     1      39.116 -12.636   3.863  1.00  0.00     0.022 C 
HETATM    7  C   UNL     1      40.620 -12.803   4.029  1.00  0.00     0.128 C 
HETATM    8  O   UNL     1      42.424 -14.466   1.317  1.00  0.00    -0.254 OA
HETATM    9  H   UNL     1      43.930 -14.659   2.879  1.00  0.00     0.138 HD
ENDROOT
BRANCH   1  10
HETATM   10  C   UNL     1      43.056 -14.571   4.680  1.00  0.00     0.029 A 
HETATM   11  C   UNL     1      43.330 -13.719   5.780  1.00  0.00    -0.036 A 
HETATM   12  C   UNL     1      43.165 -14.214   7.084  1.00  0.00     0.009 A 
HETATM   13  C   UNL     1      42.697 -15.502   7.305  1.00  0.00     0.001 A 
HETATM   14  C   UNL     1      42.359 -16.305   6.221  1.00  0.00     0.009 A 
HETATM   15  C   UNL     1      42.518 -15.863   4.890  1.00  0.00    -0.036 A 
BRANCH  11  16
HETATM   16  C   UNL     1      43.748 -12.268   5.644  1.00  0.00     0.036 C 
HETATM   17  C   UNL     1      44.915 -11.900   6.548  1.00  0.00     0.010 C 
ENDBRANCH  11  16
BRANCH  15  18
HETATM   18  C   UNL     1      41.986 -16.811   3.829  1.00  0.00     0.036 C 
HETATM   19  C   UNL     1      42.934 -17.620   2.959  1.00  0.00     0.010 C 
ENDBRANCH  15  18
ENDBRANCH   1  10
BRANCH   4  20
HETATM   20  C   UNL     1      40.559 -12.306   0.476  1.00  0.00     0.014 A 
HETATM   21  C   UNL     1      41.183 -11.029   0.341  1.00  0.00     0.061 A 
HETATM   22  C   UNL     1      41.562 -10.060   1.398  1.00  0.00     0.073 C 
HETATM   23  N   UNL     1      41.440 -10.729  -0.938  1.00  0.00    -0.179 NA
HETATM   24  N   UNL     1      41.034 -11.808  -1.615  1.00  0.00    -0.282 N 
HETATM   25  H   UNL     1      41.165 -11.817  -2.620  1.00  0.00     0.189 HD
HETATM   26  C   UNL     1      40.468 -12.768  -0.829  1.00  0.00     0.034 A 
HETATM   27  C   UNL     1      39.925 -14.027  -1.390  1.00  0.00     0.070 C 
ENDBRANCH   4  20
TORSDOF 4
ENDMDL
