MODEL 1
REMARK VINA RESULT:      -8.4      0.000      0.000
REMARK  3 active torsions:
REMARK  status: ('A' for Active; 'I' for Inactive)
REMARK    1  A    between atoms: C_3  and  C_4 
REMARK    2  A    between atoms: C_10  and  C_11 
REMARK    3  A    between atoms: C_14  and  O_15 
ROOT
HETATM    1  C   UNL     1      43.461 -11.357   7.253  1.00  0.00    -0.007 A 
HETATM    2  C   UNL     1      43.625 -12.749   7.291  1.00  0.00     0.047 A 
HETATM    3  C   UNL     1      43.446 -13.486   6.110  1.00  0.00     0.086 A 
HETATM    4  C   UNL     1      43.111 -12.832   4.935  1.00  0.00     0.063 A 
HETATM    5  N   UNL     1      43.030 -13.836   4.005  1.00  0.00    -0.338 N 
HETATM    6  H   UNL     1      42.829 -13.710   3.026  1.00  0.00     0.167 HD
HETATM    7  C   UNL     1      43.309 -15.039   4.618  1.00  0.00     0.139 A 
HETATM    8  N   UNL     1      43.566 -14.836   5.900  1.00  0.00    -0.228 NA
HETATM    9  C   UNL     1      42.935 -11.454   4.851  1.00  0.00     0.033 A 
HETATM   10  C   UNL     1      43.116 -10.731   6.038  1.00  0.00     0.016 A 
ENDROOT
BRANCH   1  11
HETATM   11  C   UNL     1      43.663 -10.492   8.469  1.00  0.00     0.069 C 
HETATM   12  C   UNL     1      45.059 -10.327   9.060  1.00  0.00     0.045 C 
HETATM   13  C   UNL     1      45.794  -9.216   8.309  1.00  0.00     0.017 C 
HETATM   14  C   UNL     1      44.960 -10.033  10.550  1.00  0.00     0.115 C 
HETATM   15  C   UNL     1      43.905  -9.009  10.849  1.00  0.00     0.238 C 
HETATM   16  N   UNL     1      42.815  -9.030  10.020  1.00  0.00    -0.247 N 
HETATM   17  O   UNL     1      43.972  -8.255  11.816  1.00  0.00    -0.272 OA
HETATM   18  N   UNL     1      42.640  -9.834   8.940  1.00  0.00    -0.176 NA
HETATM   19  H   UNL     1      42.039  -8.421  10.264  1.00  0.00     0.192 HD
ENDBRANCH   1  11
BRANCH   7  20
HETATM   20  C   UNL     1      43.347 -16.334   3.930  1.00  0.00     0.010 A 
HETATM   21  C   UNL     1      44.029 -17.403   4.525  1.00  0.00     0.018 A 
HETATM   22  C   UNL     1      44.099 -18.648   3.895  1.00  0.00     0.037 A 
HETATM   23  C   UNL     1      43.486 -18.857   2.661  1.00  0.00     0.068 A 
HETATM   24  C   UNL     1      42.794 -17.804   2.063  1.00  0.00     0.037 A 
HETATM   25  C   UNL     1      42.725 -16.553   2.693  1.00  0.00     0.018 A 
BRANCH  23  26
HETATM   26  O   UNL     1      43.632 -20.117   2.153  1.00  0.00    -0.356 OA
HETATM   27  C   UNL     1      43.938 -21.154   3.077  1.00  0.00     0.210 C 
ENDBRANCH  23  26
ENDBRANCH   7  20
TORSDOF 3
ENDMDL
MODEL 2
REMARK VINA RESULT:      -8.2      2.109      9.597
REMARK  3 active torsions:
REMARK  status: ('A' for Active; 'I' for Inactive)
REMARK    1  A    between atoms: C_3  and  C_4 
REMARK    2  A    between atoms: C_10  and  C_11 
REMARK    3  A    between atoms: C_14  and  O_15 
ROOT
HETATM    1  C   UNL     1      43.319 -16.593   5.079  1.00  0.00    -0.007 A 
HETATM    2  C   UNL     1      43.641 -15.256   4.799  1.00  0.00     0.047 A 
HETATM    3  C   UNL     1      43.581 -14.313   5.838  1.00  0.00     0.086 A 
HETATM    4  C   UNL     1      43.206 -14.712   7.110  1.00  0.00     0.063 A 
HETATM    5  N   UNL     1      43.266 -13.562   7.854  1.00  0.00    -0.338 N 
HETATM    6  H   UNL     1      43.080 -13.495   8.841  1.00  0.00     0.167 HD
HETATM    7  C   UNL     1      43.665 -12.523   7.040  1.00  0.00     0.139 A 
HETATM    8  N   UNL     1      43.861 -12.971   5.810  1.00  0.00    -0.228 NA
HETATM    9  C   UNL     1      42.875 -16.026   7.432  1.00  0.00     0.033 A 
HETATM   10  C   UNL     1      42.938 -16.957   6.386  1.00  0.00     0.016 A 
ENDROOT
BRANCH   1  11
HETATM   11  C   UNL     1      43.386 -17.670   4.028  1.00  0.00     0.069 C 
HETATM   12  C   UNL     1      42.603 -17.512   2.729  1.00  0.00     0.045 C 
HETATM   13  C   UNL     1      43.428 -16.682   1.744  1.00  0.00     0.017 C 
HETATM   14  C   UNL     1      42.257 -18.882   2.163  1.00  0.00     0.115 C 
HETATM   15  C   UNL     1      43.426 -19.820   2.213  1.00  0.00     0.238 C 
HETATM   16  N   UNL     1      44.274 -19.645   3.274  1.00  0.00    -0.247 N 
HETATM   17  O   UNL     1      43.576 -20.733   1.405  1.00  0.00    -0.272 OA
HETATM   18  N   UNL     1      44.185 -18.680   4.227  1.00  0.00    -0.176 NA
HETATM   19  H   UNL     1      45.013 -20.332   3.392  1.00  0.00     0.192 HD
ENDBRANCH   1  11
BRANCH   7  20
HETATM   20  C   UNL     1      43.871 -11.144   7.494  1.00  0.00     0.010 A 
HETATM   21  C   UNL     1      42.834 -10.214   7.345  1.00  0.00     0.018 A 
HETATM   22  C   UNL     1      42.994  -8.888   7.753  1.00  0.00     0.037 A 
HETATM   23  C   UNL     1      44.192  -8.461   8.327  1.00  0.00     0.068 A 
HETATM   24  C   UNL     1      45.228  -9.379   8.492  1.00  0.00     0.037 A 
HETATM   25  C   UNL     1      45.068 -10.710   8.080  1.00  0.00     0.018 A 
BRANCH  23  26
HETATM   26  O   UNL     1      44.220  -7.140   8.679  1.00  0.00    -0.356 OA
HETATM   27  C   UNL     1      43.182  -6.678   9.534  1.00  0.00     0.210 C 
ENDBRANCH  23  26
ENDBRANCH   7  20
TORSDOF 3
ENDMDL
MODEL 3
REMARK VINA RESULT:      -8.0      6.121      9.240
REMARK  3 active torsions:
REMARK  status: ('A' for Active; 'I' for Inactive)
REMARK    1  A    between atoms: C_3  and  C_4 
REMARK    2  A    between atoms: C_10  and  C_11 
REMARK    3  A    between atoms: C_14  and  O_15 
ROOT
HETATM    1  C   UNL     1      42.535 -16.026   2.567  1.00  0.00    -0.007 A 
HETATM    2  C   UNL     1      41.368 -16.119   1.794  1.00  0.00     0.047 A 
HETATM    3  C   UNL     1      40.904 -14.974   1.126  1.00  0.00     0.086 A 
HETATM    4  C   UNL     1      41.599 -13.780   1.242  1.00  0.00     0.063 A 
HETATM    5  N   UNL     1      40.885 -12.901   0.470  1.00  0.00    -0.338 N 
HETATM    6  H   UNL     1      41.128 -11.937   0.307  1.00  0.00     0.167 HD
HETATM    7  C   UNL     1      39.807 -13.561  -0.080  1.00  0.00     0.139 A 
HETATM    8  N   UNL     1      39.811 -14.825   0.312  1.00  0.00    -0.228 NA
HETATM    9  C   UNL     1      42.758 -13.642   2.001  1.00  0.00     0.033 A 
HETATM   10  C   UNL     1      43.209 -14.793   2.663  1.00  0.00     0.016 A 
ENDROOT
BRANCH   1  11
HETATM   11  C   UNL     1      43.113 -17.214   3.291  1.00  0.00     0.069 C 
HETATM   12  C   UNL     1      43.639 -17.054   4.713  1.00  0.00     0.045 C 
HETATM   13  C   UNL     1      42.475 -17.186   5.696  1.00  0.00     0.017 C 
HETATM   14  C   UNL     1      44.727 -18.083   4.982  1.00  0.00     0.115 C 
HETATM   15  C   UNL     1      44.345 -19.445   4.485  1.00  0.00     0.238 C 
HETATM   16  N   UNL     1      43.567 -19.461   3.357  1.00  0.00    -0.247 N 
HETATM   17  O   UNL     1      44.761 -20.478   5.002  1.00  0.00    -0.272 OA
HETATM   18  N   UNL     1      43.073 -18.377   2.704  1.00  0.00    -0.176 NA
HETATM   19  H   UNL     1      43.382 -20.367   2.938  1.00  0.00     0.192 HD
ENDBRANCH   1  11
BRANCH   7  20
HETATM   20  C   UNL     1      38.834 -12.948  -0.990  1.00  0.00     0.010 A 
HETATM   21  C   UNL     1      38.434 -11.623  -0.770  1.00  0.00     0.018 A 
HETATM   22  C   UNL     1      37.500 -11.007  -1.607  1.00  0.00     0.037 A 
HETATM   23  C   UNL     1      36.949 -11.697  -2.686  1.00  0.00     0.068 A 
HETATM   24  C   UNL     1      37.347 -13.012  -2.924  1.00  0.00     0.037 A 
HETATM   25  C   UNL     1      38.283 -13.632  -2.083  1.00  0.00     0.018 A 
BRANCH  23  26
HETATM   26  O   UNL     1      36.046 -10.982  -3.423  1.00  0.00    -0.356 OA
HETATM   27  C   UNL     1      34.859 -11.656  -3.821  1.00  0.00     0.210 C 
ENDBRANCH  23  26
ENDBRANCH   7  20
TORSDOF 3
ENDMDL
MODEL 4
REMARK VINA RESULT:      -7.9      5.921      8.561
REMARK  3 active torsions:
REMARK  status: ('A' for Active; 'I' for Inactive)
REMARK    1  A    between atoms: C_3  and  C_4 
REMARK    2  A    between atoms: C_10  and  C_11 
REMARK    3  A    between atoms: C_14  and  O_15 
ROOT
HETATM    1  C   UNL     1      39.138 -12.677   0.241  1.00  0.00    -0.007 A 
HETATM    2  C   UNL     1      39.826 -13.885   0.058  1.00  0.00     0.047 A 
HETATM    3  C   UNL     1      40.515 -14.445   1.146  1.00  0.00     0.086 A 
HETATM    4  C   UNL     1      40.506 -13.799   2.373  1.00  0.00     0.063 A 
HETATM    5  N   UNL     1      41.252 -14.614   3.185  1.00  0.00    -0.338 N 
HETATM    6  H   UNL     1      41.429 -14.457   4.164  1.00  0.00     0.167 HD
HETATM    7  C   UNL     1      41.682 -15.702   2.455  1.00  0.00     0.139 A 
HETATM    8  N   UNL     1      41.236 -15.609   1.213  1.00  0.00    -0.228 NA
HETATM    9  C   UNL     1      39.841 -12.597   2.598  1.00  0.00     0.033 A 
HETATM   10  C   UNL     1      39.158 -12.050   1.503  1.00  0.00     0.016 A 
ENDROOT
BRANCH   1  11
HETATM   11  C   UNL     1      38.352 -12.026  -0.867  1.00  0.00     0.069 C 
HETATM   12  C   UNL     1      38.146 -10.515  -0.865  1.00  0.00     0.045 C 
HETATM   13  C   UNL     1      39.360  -9.842  -1.507  1.00  0.00     0.017 C 
HETATM   14  C   UNL     1      36.855 -10.167  -1.592  1.00  0.00     0.115 C 
HETATM   15  C   UNL     1      36.712 -10.931  -2.874  1.00  0.00     0.238 C 
HETATM   16  N   UNL     1      37.248 -12.192  -2.870  1.00  0.00    -0.247 N 
HETATM   17  O   UNL     1      36.091 -10.492  -3.839  1.00  0.00    -0.272 OA
HETATM   18  N   UNL     1      37.935 -12.771  -1.851  1.00  0.00    -0.176 NA
HETATM   19  H   UNL     1      37.072 -12.769  -3.686  1.00  0.00     0.192 HD
ENDBRANCH   1  11
BRANCH   7  20
HETATM   20  C   UNL     1      42.481 -16.805   3.001  1.00  0.00     0.010 A 
HETATM   21  C   UNL     1      42.870 -16.764   4.346  1.00  0.00     0.018 A 
HETATM   22  C   UNL     1      43.642 -17.789   4.901  1.00  0.00     0.037 A 
HETATM   23  C   UNL     1      44.036 -18.880   4.127  1.00  0.00     0.068 A 
HETATM   24  C   UNL     1      43.646 -18.937   2.790  1.00  0.00     0.037 A 
HETATM   25  C   UNL     1      42.873 -17.908   2.232  1.00  0.00     0.018 A 
BRANCH  23  26
HETATM   26  O   UNL     1      44.790 -19.809   4.789  1.00  0.00    -0.356 OA
HETATM   27  C   UNL     1      44.096 -20.896   5.387  1.00  0.00     0.210 C 
ENDBRANCH  23  26
ENDBRANCH   7  20
TORSDOF 3
ENDMDL
MODEL 5
REMARK VINA RESULT:      -7.7      4.001     10.525
REMARK  3 active torsions:
REMARK  status: ('A' for Active; 'I' for Inactive)
REMARK    1  A    between atoms: C_3  and  C_4 
REMARK    2  A    between atoms: C_10  and  C_11 
REMARK    3  A    between atoms: C_14  and  O_15 
ROOT
HETATM    1  C   UNL     1      43.527 -10.420   7.266  1.00  0.00    -0.007 A 
HETATM    2  C   UNL     1      42.566  -9.926   8.161  1.00  0.00     0.047 A 
HETATM    3  C   UNL     1      42.948  -9.654   9.484  1.00  0.00     0.086 A 
HETATM    4  C   UNL     1      44.257  -9.877   9.883  1.00  0.00     0.063 A 
HETATM    5  N   UNL     1      44.274  -9.501  11.201  1.00  0.00    -0.338 N 
HETATM    6  H   UNL     1      45.084  -9.508  11.800  1.00  0.00     0.167 HD
HETATM    7  C   UNL     1      43.014  -9.071  11.561  1.00  0.00     0.139 A 
HETATM    8  N   UNL     1      42.200  -9.159  10.521  1.00  0.00    -0.228 NA
HETATM    9  C   UNL     1      45.242 -10.369   9.031  1.00  0.00     0.033 A 
HETATM   10  C   UNL     1      44.846 -10.637   7.713  1.00  0.00     0.016 A 
ENDROOT
BRANCH   1  11
HETATM   11  C   UNL     1      43.204 -10.711   5.824  1.00  0.00     0.069 C 
HETATM   12  C   UNL     1      43.833 -11.917   5.134  1.00  0.00     0.045 C 
HETATM   13  C   UNL     1      42.997 -13.161   5.436  1.00  0.00     0.017 C 
HETATM   14  C   UNL     1      43.944 -11.659   3.638  1.00  0.00     0.115 C 
HETATM   15  C   UNL     1      42.688 -11.059   3.080  1.00  0.00     0.238 C 
HETATM   16  N   UNL     1      42.004 -10.231   3.930  1.00  0.00    -0.247 N 
HETATM   17  O   UNL     1      42.334 -11.233   1.916  1.00  0.00    -0.272 OA
HETATM   18  N   UNL     1      42.323  -9.962   5.222  1.00  0.00    -0.176 NA
HETATM   19  H   UNL     1      41.210  -9.729   3.544  1.00  0.00     0.192 HD
ENDBRANCH   1  11
BRANCH   7  20
HETATM   20  C   UNL     1      42.658  -8.562  12.889  1.00  0.00     0.010 A 
HETATM   21  C   UNL     1      43.353  -7.462  13.407  1.00  0.00     0.018 A 
HETATM   22  C   UNL     1      43.053  -6.955  14.674  1.00  0.00     0.037 A 
HETATM   23  C   UNL     1      42.047  -7.530  15.450  1.00  0.00     0.068 A 
HETATM   24  C   UNL     1      41.340  -8.619  14.942  1.00  0.00     0.037 A 
HETATM   25  C   UNL     1      41.643  -9.130  13.671  1.00  0.00     0.018 A 
BRANCH  23  26
HETATM   26  O   UNL     1      41.856  -6.942  16.669  1.00  0.00    -0.356 OA
HETATM   27  C   UNL     1      41.552  -5.553  16.675  1.00  0.00     0.210 C 
ENDBRANCH  23  26
ENDBRANCH   7  20
TORSDOF 3
ENDMDL
MODEL 6
REMARK VINA RESULT:      -7.5      3.264      9.502
REMARK  3 active torsions:
REMARK  status: ('A' for Active; 'I' for Inactive)
REMARK    1  A    between atoms: C_3  and  C_4 
REMARK    2  A    between atoms: C_10  and  C_11 
REMARK    3  A    between atoms: C_14  and  O_15 
ROOT
HETATM    1  C   UNL     1      42.941 -16.114   4.743  1.00  0.00    -0.007 A 
HETATM    2  C   UNL     1      41.915 -15.237   4.363  1.00  0.00     0.047 A 
HETATM    3  C   UNL     1      41.704 -14.072   5.119  1.00  0.00     0.086 A 
HETATM    4  C   UNL     1      42.504 -13.811   6.219  1.00  0.00     0.063 A 
HETATM    5  N   UNL     1      42.035 -12.615   6.698  1.00  0.00    -0.338 N 
HETATM    6  H   UNL     1      42.412 -12.114   7.487  1.00  0.00     0.167 HD
HETATM    7  C   UNL     1      40.993 -12.192   5.902  1.00  0.00     0.139 A 
HETATM    8  N   UNL     1      40.785 -13.071   4.935  1.00  0.00    -0.228 NA
HETATM    9  C   UNL     1      43.531 -14.655   6.635  1.00  0.00     0.033 A 
HETATM   10  C   UNL     1      43.729 -15.814   5.872  1.00  0.00     0.016 A 
ENDROOT
BRANCH   1  11
HETATM   11  C   UNL     1      43.250 -17.370   3.970  1.00  0.00     0.069 C 
HETATM   12  C   UNL     1      42.653 -17.572   2.582  1.00  0.00     0.045 C 
HETATM   13  C   UNL     1      43.537 -16.873   1.548  1.00  0.00     0.017 C 
HETATM   14  C   UNL     1      42.509 -19.058   2.291  1.00  0.00     0.115 C 
HETATM   15  C   UNL     1      43.734 -19.827   2.688  1.00  0.00     0.238 C 
HETATM   16  N   UNL     1      44.402 -19.343   3.781  1.00  0.00    -0.247 N 
HETATM   17  O   UNL     1      44.076 -20.863   2.123  1.00  0.00    -0.272 OA
HETATM   18  N   UNL     1      44.094 -18.221   4.481  1.00  0.00    -0.176 NA
HETATM   19  H   UNL     1      45.171 -19.903   4.136  1.00  0.00     0.192 HD
ENDBRANCH   1  11
BRANCH   7  20
HETATM   20  C   UNL     1      40.261 -10.934   6.090  1.00  0.00     0.010 A 
HETATM   21  C   UNL     1      40.749  -9.992   7.005  1.00  0.00     0.018 A 
HETATM   22  C   UNL     1      40.074  -8.788   7.223  1.00  0.00     0.037 A 
HETATM   23  C   UNL     1      38.903  -8.493   6.527  1.00  0.00     0.068 A 
HETATM   24  C   UNL     1      38.413  -9.417   5.604  1.00  0.00     0.037 A 
HETATM   25  C   UNL     1      39.088 -10.627   5.387  1.00  0.00     0.018 A 
BRANCH  23  26
HETATM   26  O   UNL     1      38.341  -7.285   6.834  1.00  0.00    -0.356 OA
HETATM   27  C   UNL     1      38.543  -6.797   8.154  1.00  0.00     0.210 C 
ENDBRANCH  23  26
ENDBRANCH   7  20
TORSDOF 3
ENDMDL
MODEL 7
REMARK VINA RESULT:      -7.5      1.837      9.399
REMARK  3 active torsions:
REMARK  status: ('A' for Active; 'I' for Inactive)
REMARK    1  A    between atoms: C_3  and  C_4 
REMARK    2  A    between atoms: C_10  and  C_11 
REMARK    3  A    between atoms: C_14  and  O_15 
ROOT
HETATM    1  C   UNL     1      43.262 -15.710   4.118  1.00  0.00    -0.007 A 
HETATM    2  C   UNL     1      43.618 -15.251   5.395  1.00  0.00     0.047 A 
HETATM    3  C   UNL     1      43.456 -13.889   5.696  1.00  0.00     0.086 A 
HETATM    4  C   UNL     1      42.955 -13.026   4.734  1.00  0.00     0.063 A 
HETATM    5  N   UNL     1      42.923 -11.808   5.362  1.00  0.00    -0.338 N 
HETATM    6  H   UNL     1      42.583 -10.951   4.956  1.00  0.00     0.167 HD
HETATM    7  C   UNL     1      43.391 -11.955   6.650  1.00  0.00     0.139 A 
HETATM    8  N   UNL     1      43.716 -13.220   6.864  1.00  0.00    -0.228 NA
HETATM    9  C   UNL     1      42.593 -13.437   3.454  1.00  0.00     0.033 A 
HETATM   10  C   UNL     1      42.760 -14.799   3.167  1.00  0.00     0.016 A 
ENDROOT
BRANCH   1  11
HETATM   11  C   UNL     1      43.378 -17.160   3.726  1.00  0.00     0.069 C 
HETATM   12  C   UNL     1      44.210 -18.112   4.578  1.00  0.00     0.045 C 
HETATM   13  C   UNL     1      43.353 -18.628   5.735  1.00  0.00     0.017 C 
HETATM   14  C   UNL     1      44.741 -19.248   3.717  1.00  0.00     0.115 C 
HETATM   15  C   UNL     1      43.686 -19.801   2.806  1.00  0.00     0.238 C 
HETATM   16  N   UNL     1      42.765 -18.893   2.356  1.00  0.00    -0.247 N 
HETATM   17  O   UNL     1      43.687 -20.969   2.426  1.00  0.00    -0.272 OA
HETATM   18  N   UNL     1      42.690 -17.582   2.703  1.00  0.00    -0.176 NA
HETATM   19  H   UNL     1      42.104 -19.216   1.655  1.00  0.00     0.192 HD
ENDBRANCH   1  11
BRANCH   7  20
HETATM   20  C   UNL     1      43.473 -10.869   7.633  1.00  0.00     0.010 A 
HETATM   21  C   UNL     1      42.408  -9.966   7.742  1.00  0.00     0.018 A 
HETATM   22  C   UNL     1      42.453  -8.911   8.657  1.00  0.00     0.037 A 
HETATM   23  C   UNL     1      43.559  -8.737   9.488  1.00  0.00     0.068 A 
HETATM   24  C   UNL     1      44.621  -9.636   9.397  1.00  0.00     0.037 A 
HETATM   25  C   UNL     1      44.578 -10.694   8.478  1.00  0.00     0.018 A 
BRANCH  23  26
HETATM   26  O   UNL     1      43.479  -7.666  10.334  1.00  0.00    -0.356 OA
HETATM   27  C   UNL     1      42.958  -7.909  11.635  1.00  0.00     0.210 C 
ENDBRANCH  23  26
ENDBRANCH   7  20
TORSDOF 3
ENDMDL
MODEL 8
REMARK VINA RESULT:      -7.3     17.525     19.961
REMARK  3 active torsions:
REMARK  status: ('A' for Active; 'I' for Inactive)
REMARK    1  A    between atoms: C_3  and  C_4 
REMARK    2  A    between atoms: C_10  and  C_11 
REMARK    3  A    between atoms: C_14  and  O_15 
ROOT
HETATM    1  C   UNL     1      46.675 -29.690  -1.797  1.00  0.00    -0.007 A 
HETATM    2  C   UNL     1      46.997 -30.737  -0.920  1.00  0.00     0.047 A 
HETATM    3  C   UNL     1      47.780 -30.457   0.212  1.00  0.00     0.086 A 
HETATM    4  C   UNL     1      48.218 -29.162   0.442  1.00  0.00     0.063 A 
HETATM    5  N   UNL     1      48.928 -29.253   1.612  1.00  0.00    -0.338 N 
HETATM    6  H   UNL     1      49.368 -28.482   2.089  1.00  0.00     0.167 HD
HETATM    7  C   UNL     1      48.903 -30.559   2.051  1.00  0.00     0.139 A 
HETATM    8  N   UNL     1      48.204 -31.300   1.206  1.00  0.00    -0.228 NA
HETATM    9  C   UNL     1      47.926 -28.095  -0.402  1.00  0.00     0.033 A 
HETATM   10  C   UNL     1      47.145 -28.389  -1.529  1.00  0.00     0.016 A 
ENDROOT
BRANCH   1  11
HETATM   11  C   UNL     1      45.818 -29.902  -3.017  1.00  0.00     0.069 C 
HETATM   12  C   UNL     1      44.632 -28.981  -3.281  1.00  0.00     0.045 C 
HETATM   13  C   UNL     1      45.123 -27.725  -4.003  1.00  0.00     0.017 C 
HETATM   14  C   UNL     1      43.571 -29.718  -4.084  1.00  0.00     0.115 C 
HETATM   15  C   UNL     1      44.169 -30.496  -5.219  1.00  0.00     0.238 C 
HETATM   16  N   UNL     1      45.417 -31.010  -4.985  1.00  0.00    -0.247 N 
HETATM   17  O   UNL     1      43.555 -30.726  -6.258  1.00  0.00    -0.272 OA
HETATM   18  N   UNL     1      46.166 -30.827  -3.867  1.00  0.00    -0.176 NA
HETATM   19  H   UNL     1      45.800 -31.629  -5.693  1.00  0.00     0.192 HD
ENDBRANCH   1  11
BRANCH   7  20
HETATM   20  C   UNL     1      49.531 -31.032   3.290  1.00  0.00     0.010 A 
HETATM   21  C   UNL     1      50.734 -30.449   3.710  1.00  0.00     0.018 A 
HETATM   22  C   UNL     1      51.370 -30.879   4.877  1.00  0.00     0.037 A 
HETATM   23  C   UNL     1      50.817 -31.895   5.655  1.00  0.00     0.068 A 
HETATM   24  C   UNL     1      49.615 -32.476   5.254  1.00  0.00     0.037 A 
HETATM   25  C   UNL     1      48.976 -32.047   4.081  1.00  0.00     0.018 A 
BRANCH  23  26
HETATM   26  O   UNL     1      51.539 -32.223   6.768  1.00  0.00    -0.356 OA
HETATM   27  C   UNL     1      52.833 -31.646   6.892  1.00  0.00     0.210 C 
ENDBRANCH  23  26
ENDBRANCH   7  20
TORSDOF 3
ENDMDL
MODEL 9
REMARK VINA RESULT:      -7.3     16.866     19.736
REMARK  3 active torsions:
REMARK  status: ('A' for Active; 'I' for Inactive)
REMARK    1  A    between atoms: C_3  and  C_4 
REMARK    2  A    between atoms: C_10  and  C_11 
REMARK    3  A    between atoms: C_14  and  O_15 
ROOT
HETATM    1  C   UNL     1      46.726 -29.193  -1.151  1.00  0.00    -0.007 A 
HETATM    2  C   UNL     1      46.871 -30.292  -2.011  1.00  0.00     0.047 A 
HETATM    3  C   UNL     1      46.226 -30.268  -3.258  1.00  0.00     0.086 A 
HETATM    4  C   UNL     1      45.461 -29.169  -3.616  1.00  0.00     0.063 A 
HETATM    5  N   UNL     1      45.002 -29.476  -4.870  1.00  0.00    -0.338 N 
HETATM    6  H   UNL     1      44.430 -28.878  -5.445  1.00  0.00     0.167 HD
HETATM    7  C   UNL     1      45.484 -30.715  -5.233  1.00  0.00     0.139 A 
HETATM    8  N   UNL     1      46.233 -31.205  -4.258  1.00  0.00    -0.228 NA
HETATM    9  C   UNL     1      45.286 -28.059  -2.794  1.00  0.00     0.033 A 
HETATM   10  C   UNL     1      45.935 -28.097  -1.551  1.00  0.00     0.016 A 
ENDROOT
BRANCH   1  11
HETATM   11  C   UNL     1      47.407 -29.129   0.191  1.00  0.00     0.069 C 
HETATM   12  C   UNL     1      48.356 -30.245   0.614  1.00  0.00     0.045 C 
HETATM   13  C   UNL     1      49.746 -29.966   0.040  1.00  0.00     0.017 C 
HETATM   14  C   UNL     1      48.382 -30.355   2.132  1.00  0.00     0.115 C 
HETATM   15  C   UNL     1      48.482 -29.011   2.789  1.00  0.00     0.238 C 
HETATM   16  N   UNL     1      47.859 -27.986   2.127  1.00  0.00    -0.247 N 
HETATM   17  O   UNL     1      49.018 -28.848   3.882  1.00  0.00    -0.272 OA
HETATM   18  N   UNL     1      47.228 -28.068   0.927  1.00  0.00    -0.176 NA
HETATM   19  H   UNL     1      47.820 -27.089   2.601  1.00  0.00     0.192 HD
ENDBRANCH   1  11
BRANCH   7  20
HETATM   20  C   UNL     1      45.226 -31.361  -6.525  1.00  0.00     0.010 A 
HETATM   21  C   UNL     1      46.235 -32.133  -7.115  1.00  0.00     0.018 A 
HETATM   22  C   UNL     1      46.034 -32.754  -8.350  1.00  0.00     0.037 A 
HETATM   23  C   UNL     1      44.819 -32.625  -9.021  1.00  0.00     0.068 A 
HETATM   24  C   UNL     1      43.802 -31.869  -8.439  1.00  0.00     0.037 A 
HETATM   25  C   UNL     1      44.004 -31.243  -7.200  1.00  0.00     0.018 A 
BRANCH  23  26
HETATM   26  O   UNL     1      44.753 -33.279 -10.220  1.00  0.00    -0.356 OA
HETATM   27  C   UNL     1      43.584 -33.076 -11.003  1.00  0.00     0.210 C 
ENDBRANCH  23  26
ENDBRANCH   7  20
TORSDOF 3
ENDMDL
MODEL 10
REMARK VINA RESULT:      -7.2      3.140      3.854
REMARK  3 active torsions:
REMARK  status: ('A' for Active; 'I' for Inactive)
REMARK    1  A    between atoms: C_3  and  C_4 
REMARK    2  A    between atoms: C_10  and  C_11 
REMARK    3  A    between atoms: C_14  and  O_15 
ROOT
HETATM    1  C   UNL     1      43.276 -10.910   7.428  1.00  0.00    -0.007 A 
HETATM    2  C   UNL     1      42.317 -10.770   6.414  1.00  0.00     0.047 A 
HETATM    3  C   UNL     1      42.312 -11.689   5.353  1.00  0.00     0.086 A 
HETATM    4  C   UNL     1      43.249 -12.710   5.322  1.00  0.00     0.063 A 
HETATM    5  N   UNL     1      42.949 -13.404   4.179  1.00  0.00    -0.338 N 
HETATM    6  H   UNL     1      43.422 -14.235   3.859  1.00  0.00     0.167 HD
HETATM    7  C   UNL     1      41.871 -12.807   3.562  1.00  0.00     0.139 A 
HETATM    8  N   UNL     1      41.474 -11.763   4.270  1.00  0.00    -0.228 NA
HETATM    9  C   UNL     1      44.221 -12.885   6.303  1.00  0.00     0.033 A 
HETATM   10  C   UNL     1      44.214 -11.959   7.357  1.00  0.00     0.016 A 
ENDROOT
BRANCH   1  11
HETATM   11  C   UNL     1      43.330  -9.984   8.615  1.00  0.00     0.069 C 
HETATM   12  C   UNL     1      44.652  -9.757   9.340  1.00  0.00     0.045 C 
HETATM   13  C   UNL     1      45.441  -8.665   8.617  1.00  0.00     0.017 C 
HETATM   14  C   UNL     1      44.389  -9.395  10.795  1.00  0.00     0.115 C 
HETATM   15  C   UNL     1      43.288  -8.386  10.930  1.00  0.00     0.238 C 
HETATM   16  N   UNL     1      42.294  -8.472   9.993  1.00  0.00    -0.247 N 
HETATM   17  O   UNL     1      43.237  -7.585  11.860  1.00  0.00    -0.272 OA
HETATM   18  N   UNL     1      42.250  -9.331   8.941  1.00  0.00    -0.176 NA
HETATM   19  H   UNL     1      41.485  -7.872  10.123  1.00  0.00     0.192 HD
ENDBRANCH   1  11
BRANCH   7  20
HETATM   20  C   UNL     1      41.247 -13.293   2.326  1.00  0.00     0.010 A 
HETATM   21  C   UNL     1      40.671 -14.570   2.309  1.00  0.00     0.018 A 
HETATM   22  C   UNL     1      40.078 -15.075   1.149  1.00  0.00     0.037 A 
HETATM   23  C   UNL     1      40.041 -14.314  -0.019  1.00  0.00     0.068 A 
HETATM   24  C   UNL     1      40.601 -13.037  -0.013  1.00  0.00     0.037 A 
HETATM   25  C   UNL     1      41.198 -12.531   1.151  1.00  0.00     0.018 A 
BRANCH  23  26
HETATM   26  O   UNL     1      39.436 -14.924  -1.082  1.00  0.00    -0.356 OA
HETATM   27  C   UNL     1      39.617 -14.326  -2.359  1.00  0.00     0.210 C 
ENDBRANCH  23  26
ENDBRANCH   7  20
TORSDOF 3
ENDMDL
