MODEL 1
REMARK VINA RESULT:      -9.9      0.000      0.000
REMARK  9 active torsions:
REMARK  status: ('A' for Active; 'I' for Inactive)
REMARK    1  A    between atoms: C_2  and  O_3 
REMARK    2  A    between atoms: O_3  and  C_4 
REMARK    3  A    between atoms: C_4  and  C_5 
REMARK    4  A    between atoms: C_8  and  N_9 
REMARK       I    between atoms: N_9  and  C_10 
REMARK    5  A    between atoms: C_10  and  C_11 
REMARK    6  A    between atoms: C_11  and  C_12 
REMARK    7  A    between atoms: N_13  and  C_14 
REMARK    8  A    between atoms: C_14  and  C_15 
REMARK    9  A    between atoms: N_23  and  C_24 
ROOT
HETATM    1  C   UNL     1      42.907 -12.928   4.571  1.00  0.00     0.191 A 
HETATM    2  N   UNL     1      42.995 -13.622   5.839  1.00  0.00    -0.315 N 
HETATM    3  C   UNL     1      43.148 -14.993   5.685  1.00  0.00     0.333 A 
HETATM    4  O   UNL     1      43.224 -15.754   6.639  1.00  0.00    -0.246 OA
HETATM    5  N   UNL     1      43.182 -15.286   4.338  1.00  0.00    -0.232 N 
HETATM    6  C   UNL     1      43.090 -14.113   3.617  1.00  0.00     0.256 A 
HETATM    7  O   UNL     1      43.143 -13.953   2.400  1.00  0.00    -0.270 OA
ENDROOT
BRANCH   1   8
HETATM    8  C   UNL     1      41.577 -12.266   4.230  1.00  0.00     0.138 C 
BRANCH   8   9
HETATM    9  C   UNL     1      40.369 -13.122   4.481  1.00  0.00     0.224 C 
HETATM   10  N   UNL     1      39.632 -13.709   3.506  1.00  0.00    -0.327 N 
HETATM   11  H   UNL     1      38.792 -14.107   3.914  1.00  0.00     0.169 HD
HETATM   12  O   UNL     1      39.963 -13.262   5.640  1.00  0.00    -0.273 OA
BRANCH  10  13
HETATM   13  C   UNL     1      39.763 -13.907   2.124  1.00  0.00     0.034 A 
HETATM   14  C   UNL     1      39.915 -15.134   1.483  1.00  0.00     0.030 A 
HETATM   15  C   UNL     1      39.982 -15.196   0.081  1.00  0.00     0.020 A 
HETATM   16  C   UNL     1      39.896 -14.034  -0.698  1.00  0.00     0.039 A 
HETATM   17  C   UNL     1      39.751 -12.803  -0.057  1.00  0.00     0.020 A 
HETATM   18  C   UNL     1      39.677 -12.747   1.338  1.00  0.00     0.030 A 
BRANCH  16  19
HETATM   19  C   UNL     1      39.928 -14.158  -2.181  1.00  0.00     0.293 C 
HETATM   20  O   UNL     1      40.719 -13.558  -2.890  1.00  0.00    -0.259 OA
BRANCH  19  21
HETATM   21  O   UNL     1      38.987 -15.041  -2.600  1.00  0.00    -0.318 OA
BRANCH  21  22
HETATM   22  C   UNL     1      38.036 -14.547  -3.554  1.00  0.00     0.174 C 
HETATM   23  C   UNL     1      37.179 -13.458  -2.939  1.00  0.00     0.034 C 
ENDBRANCH  21  22
ENDBRANCH  19  21
ENDBRANCH  16  19
ENDBRANCH  10  13
ENDBRANCH   8   9
ENDBRANCH   1   8
BRANCH   2  24
HETATM   24  C   UNL     1      43.005 -12.982   7.148  1.00  0.00     0.168 C 
BRANCH  24  25
HETATM   25  C   UNL     1      44.044 -11.906   7.305  1.00  0.00    -0.023 A 
HETATM   26  C   UNL     1      43.803 -10.828   8.154  1.00  0.00     0.125 A 
HETATM   27  N   UNL     1      44.674  -9.817   8.371  1.00  0.00    -0.273 NA
HETATM   28  C   UNL     1      45.862  -9.896   7.736  1.00  0.00     0.116 A 
HETATM   29  C   UNL     1      46.218 -10.939   6.899  1.00  0.00     0.020 A 
HETATM   30  C   UNL     1      45.299 -11.963   6.692  1.00  0.00     0.012 A 
ENDBRANCH  24  25
ENDBRANCH   2  24
BRANCH   5  31
HETATM   31  C   UNL     1      43.283 -16.601   3.790  1.00  0.00     0.047 A 
HETATM   32  C   UNL     1      42.497 -17.005   2.698  1.00  0.00     0.031 A 
HETATM   33  C   UNL     1      42.621 -18.279   2.129  1.00  0.00     0.009 A 
HETATM   34  C   UNL     1      43.536 -19.197   2.639  1.00  0.00    -0.062 A 
HETATM   35  C   UNL     1      43.709 -20.538   1.991  1.00  0.00     0.048 C 
HETATM   36  C   UNL     1      44.329 -18.815   3.721  1.00  0.00     0.009 A 
HETATM   37  C   UNL     1      44.196 -17.541   4.293  1.00  0.00     0.031 A 
ENDBRANCH   5  31
TORSDOF 9
ENDMDL
MODEL 2
REMARK VINA RESULT:      -8.9      3.080      6.236
REMARK  9 active torsions:
REMARK  status: ('A' for Active; 'I' for Inactive)
REMARK    1  A    between atoms: C_2  and  O_3 
REMARK    2  A    between atoms: O_3  and  C_4 
REMARK    3  A    between atoms: C_4  and  C_5 
REMARK    4  A    between atoms: C_8  and  N_9 
REMARK       I    between atoms: N_9  and  C_10 
REMARK    5  A    between atoms: C_10  and  C_11 
REMARK    6  A    between atoms: C_11  and  C_12 
REMARK    7  A    between atoms: N_13  and  C_14 
REMARK    8  A    between atoms: C_14  and  C_15 
REMARK    9  A    between atoms: N_23  and  C_24 
ROOT
HETATM    1  C   UNL     1      42.841 -12.870   3.775  1.00  0.00     0.191 A 
HETATM    2  N   UNL     1      42.695 -13.366   5.128  1.00  0.00    -0.315 N 
HETATM    3  C   UNL     1      42.846 -14.744   5.207  1.00  0.00     0.333 A 
HETATM    4  O   UNL     1      42.740 -15.353   6.263  1.00  0.00    -0.246 OA
HETATM    5  N   UNL     1      43.106 -15.234   3.945  1.00  0.00    -0.232 N 
HETATM    6  C   UNL     1      43.162 -14.183   3.053  1.00  0.00     0.256 A 
HETATM    7  O   UNL     1      43.427 -14.206   1.854  1.00  0.00    -0.270 OA
ENDROOT
BRANCH   1   8
HETATM    8  C   UNL     1      41.603 -12.275   3.114  1.00  0.00     0.138 C 
BRANCH   8   9
HETATM    9  C   UNL     1      41.733 -10.830   2.727  1.00  0.00     0.224 C 
HETATM   10  N   UNL     1      41.293  -9.794   3.483  1.00  0.00    -0.327 N 
HETATM   11  H   UNL     1      41.361  -8.934   2.946  1.00  0.00     0.169 HD
HETATM   12  O   UNL     1      42.211 -10.545   1.623  1.00  0.00    -0.273 OA
BRANCH  10  13
HETATM   13  C   UNL     1      40.806  -9.633   4.788  1.00  0.00     0.034 A 
HETATM   14  C   UNL     1      39.559 -10.045   5.254  1.00  0.00     0.030 A 
HETATM   15  C   UNL     1      39.215  -9.868   6.605  1.00  0.00     0.020 A 
HETATM   16  C   UNL     1      40.113  -9.280   7.507  1.00  0.00     0.039 A 
HETATM   17  C   UNL     1      41.359  -8.859   7.039  1.00  0.00     0.020 A 
HETATM   18  C   UNL     1      41.699  -9.045   5.697  1.00  0.00     0.030 A 
BRANCH  16  19
HETATM   19  C   UNL     1      39.718  -9.155   8.937  1.00  0.00     0.293 C 
HETATM   20  O   UNL     1      38.569  -8.975   9.304  1.00  0.00    -0.259 OA
BRANCH  19  21
HETATM   21  O   UNL     1      40.802  -9.301   9.739  1.00  0.00    -0.318 OA
BRANCH  21  22
HETATM   22  C   UNL     1      40.920  -8.363  10.819  1.00  0.00     0.174 C 
HETATM   23  C   UNL     1      41.443  -7.032  10.316  1.00  0.00     0.034 C 
ENDBRANCH  21  22
ENDBRANCH  19  21
ENDBRANCH  16  19
ENDBRANCH  10  13
ENDBRANCH   8   9
ENDBRANCH   1   8
BRANCH   2  24
HETATM   24  C   UNL     1      42.492 -12.538   6.309  1.00  0.00     0.168 C 
BRANCH  24  25
HETATM   25  C   UNL     1      43.739 -11.870   6.821  1.00  0.00    -0.023 A 
HETATM   26  C   UNL     1      43.807 -11.456   8.149  1.00  0.00     0.125 A 
HETATM   27  N   UNL     1      44.883 -10.857   8.708  1.00  0.00    -0.273 NA
HETATM   28  C   UNL     1      45.961 -10.687   7.913  1.00  0.00     0.116 A 
HETATM   29  C   UNL     1      46.012 -11.093   6.591  1.00  0.00     0.020 A 
HETATM   30  C   UNL     1      44.888 -11.703   6.044  1.00  0.00     0.012 A 
ENDBRANCH  24  25
ENDBRANCH   2  24
BRANCH   5  31
HETATM   31  C   UNL     1      43.274 -16.616   3.624  1.00  0.00     0.047 A 
HETATM   32  C   UNL     1      42.603 -17.206   2.540  1.00  0.00     0.031 A 
HETATM   33  C   UNL     1      42.796 -18.549   2.193  1.00  0.00     0.009 A 
HETATM   34  C   UNL     1      43.665 -19.353   2.927  1.00  0.00    -0.062 A 
HETATM   35  C   UNL     1      43.916 -20.773   2.519  1.00  0.00     0.048 C 
HETATM   36  C   UNL     1      44.344 -18.786   4.007  1.00  0.00     0.009 A 
HETATM   37  C   UNL     1      44.142 -17.442   4.355  1.00  0.00     0.031 A 
ENDBRANCH   5  31
TORSDOF 9
ENDMDL
MODEL 3
REMARK VINA RESULT:      -8.8      2.877      7.967
REMARK  9 active torsions:
REMARK  status: ('A' for Active; 'I' for Inactive)
REMARK    1  A    between atoms: C_2  and  O_3 
REMARK    2  A    between atoms: O_3  and  C_4 
REMARK    3  A    between atoms: C_4  and  C_5 
REMARK    4  A    between atoms: C_8  and  N_9 
REMARK       I    between atoms: N_9  and  C_10 
REMARK    5  A    between atoms: C_10  and  C_11 
REMARK    6  A    between atoms: C_11  and  C_12 
REMARK    7  A    between atoms: N_13  and  C_14 
REMARK    8  A    between atoms: C_14  and  C_15 
REMARK    9  A    between atoms: N_23  and  C_24 
ROOT
HETATM    1  C   UNL     1      41.887 -11.574   3.885  1.00  0.00     0.191 A 
HETATM    2  N   UNL     1      42.129 -12.410   2.727  1.00  0.00    -0.315 N 
HETATM    3  C   UNL     1      41.187 -12.216   1.725  1.00  0.00     0.333 A 
HETATM    4  O   UNL     1      41.212 -12.842   0.675  1.00  0.00    -0.246 OA
HETATM    5  N   UNL     1      40.290 -11.255   2.142  1.00  0.00    -0.232 N 
HETATM    6  C   UNL     1      40.663 -10.797   3.389  1.00  0.00     0.256 A 
HETATM    7  O   UNL     1      40.154  -9.907   4.064  1.00  0.00    -0.270 OA
ENDROOT
BRANCH   1   8
HETATM    8  C   UNL     1      41.490 -12.276   5.179  1.00  0.00     0.138 C 
BRANCH   8   9
HETATM    9  C   UNL     1      42.478 -12.127   6.300  1.00  0.00     0.224 C 
HETATM   10  N   UNL     1      43.036 -13.165   6.970  1.00  0.00    -0.327 N 
HETATM   11  H   UNL     1      43.551 -12.810   7.771  1.00  0.00     0.169 HD
HETATM   12  O   UNL     1      42.769 -10.992   6.698  1.00  0.00    -0.273 OA
BRANCH  10  13
HETATM   13  C   UNL     1      43.087 -14.557   6.812  1.00  0.00     0.034 A 
HETATM   14  C   UNL     1      42.044 -15.448   7.057  1.00  0.00     0.030 A 
HETATM   15  C   UNL     1      42.213 -16.821   6.806  1.00  0.00     0.020 A 
HETATM   16  C   UNL     1      43.423 -17.319   6.306  1.00  0.00     0.039 A 
HETATM   17  C   UNL     1      44.471 -16.429   6.067  1.00  0.00     0.020 A 
HETATM   18  C   UNL     1      44.296 -15.064   6.311  1.00  0.00     0.030 A 
BRANCH  16  19
HETATM   19  C   UNL     1      43.536 -18.775   6.016  1.00  0.00     0.293 C 
HETATM   20  O   UNL     1      43.215 -19.646   6.807  1.00  0.00    -0.259 OA
BRANCH  19  21
HETATM   21  O   UNL     1      44.008 -18.968   4.758  1.00  0.00    -0.318 OA
BRANCH  21  22
HETATM   22  C   UNL     1      44.224 -20.333   4.367  1.00  0.00     0.174 C 
HETATM   23  C   UNL     1      43.726 -20.567   2.954  1.00  0.00     0.034 C 
ENDBRANCH  21  22
ENDBRANCH  19  21
ENDBRANCH  16  19
ENDBRANCH  10  13
ENDBRANCH   8   9
ENDBRANCH   1   8
BRANCH   2  24
HETATM   24  C   UNL     1      43.266 -13.306   2.561  1.00  0.00     0.168 C 
BRANCH  24  25
HETATM   25  C   UNL     1      42.909 -14.767   2.553  1.00  0.00    -0.023 A 
HETATM   26  C   UNL     1      41.827 -15.220   3.305  1.00  0.00     0.125 A 
HETATM   27  N   UNL     1      41.419 -16.507   3.358  1.00  0.00    -0.273 NA
HETATM   28  C   UNL     1      42.103 -17.390   2.599  1.00  0.00     0.116 A 
HETATM   29  C   UNL     1      43.170 -17.042   1.789  1.00  0.00     0.020 A 
HETATM   30  C   UNL     1      43.569 -15.709   1.759  1.00  0.00     0.012 A 
ENDBRANCH  24  25
ENDBRANCH   2  24
BRANCH   5  31
HETATM   31  C   UNL     1      39.151 -10.823   1.395  1.00  0.00     0.047 A 
HETATM   32  C   UNL     1      39.276  -9.941   0.309  1.00  0.00     0.031 A 
HETATM   33  C   UNL     1      38.169  -9.547  -0.454  1.00  0.00     0.009 A 
HETATM   34  C   UNL     1      36.895 -10.019  -0.150  1.00  0.00    -0.062 A 
HETATM   35  C   UNL     1      35.721  -9.644  -1.004  1.00  0.00     0.048 C 
HETATM   36  C   UNL     1      36.749 -10.899   0.923  1.00  0.00     0.009 A 
HETATM   37  C   UNL     1      37.859 -11.285   1.690  1.00  0.00     0.031 A 
ENDBRANCH   5  31
TORSDOF 9
ENDMDL
MODEL 4
REMARK VINA RESULT:      -8.7      4.295      9.033
REMARK  9 active torsions:
REMARK  status: ('A' for Active; 'I' for Inactive)
REMARK    1  A    between atoms: C_2  and  O_3 
REMARK    2  A    between atoms: O_3  and  C_4 
REMARK    3  A    between atoms: C_4  and  C_5 
REMARK    4  A    between atoms: C_8  and  N_9 
REMARK       I    between atoms: N_9  and  C_10 
REMARK    5  A    between atoms: C_10  and  C_11 
REMARK    6  A    between atoms: C_11  and  C_12 
REMARK    7  A    between atoms: N_13  and  C_14 
REMARK    8  A    between atoms: C_14  and  C_15 
REMARK    9  A    between atoms: N_23  and  C_24 
ROOT
HETATM    1  C   UNL     1      43.847  -9.245   8.850  1.00  0.00     0.191 A 
HETATM    2  N   UNL     1      42.571  -8.586   8.664  1.00  0.00    -0.315 N 
HETATM    3  C   UNL     1      41.989  -8.206   9.866  1.00  0.00     0.333 A 
HETATM    4  O   UNL     1      40.900  -7.651   9.918  1.00  0.00    -0.246 OA
HETATM    5  N   UNL     1      42.827  -8.570  10.898  1.00  0.00    -0.232 N 
HETATM    6  C   UNL     1      43.965  -9.150  10.375  1.00  0.00     0.256 A 
HETATM    7  O   UNL     1      44.965  -9.549  10.966  1.00  0.00    -0.270 OA
ENDROOT
BRANCH   1   8
HETATM    8  C   UNL     1      43.930 -10.721   8.476  1.00  0.00     0.138 C 
BRANCH   8   9
HETATM    9  C   UNL     1      45.092 -11.079   7.596  1.00  0.00     0.224 C 
HETATM   10  N   UNL     1      45.046 -12.007   6.609  1.00  0.00    -0.327 N 
HETATM   11  H   UNL     1      45.986 -12.173   6.260  1.00  0.00     0.169 HD
HETATM   12  O   UNL     1      46.191 -10.552   7.807  1.00  0.00    -0.273 OA
BRANCH  10  13
HETATM   13  C   UNL     1      44.043 -12.748   5.967  1.00  0.00     0.034 A 
HETATM   14  C   UNL     1      43.344 -13.824   6.511  1.00  0.00     0.030 A 
HETATM   15  C   UNL     1      42.322 -14.448   5.774  1.00  0.00     0.020 A 
HETATM   16  C   UNL     1      41.985 -14.003   4.489  1.00  0.00     0.039 A 
HETATM   17  C   UNL     1      42.690 -12.930   3.940  1.00  0.00     0.020 A 
HETATM   18  C   UNL     1      43.700 -12.309   4.679  1.00  0.00     0.030 A 
BRANCH  16  19
HETATM   19  C   UNL     1      40.866 -14.669   3.768  1.00  0.00     0.293 C 
HETATM   20  O   UNL     1      39.939 -14.063   3.256  1.00  0.00    -0.259 OA
BRANCH  19  21
HETATM   21  O   UNL     1      41.053 -16.013   3.747  1.00  0.00    -0.318 OA
BRANCH  21  22
HETATM   22  C   UNL     1      41.584 -16.558   2.530  1.00  0.00     0.174 C 
HETATM   23  C   UNL     1      42.958 -17.154   2.767  1.00  0.00     0.034 C 
ENDBRANCH  21  22
ENDBRANCH  19  21
ENDBRANCH  16  19
ENDBRANCH  10  13
ENDBRANCH   8   9
ENDBRANCH   1   8
BRANCH   2  24
HETATM   24  C   UNL     1      41.970  -8.268   7.375  1.00  0.00     0.168 C 
BRANCH  24  25
HETATM   25  C   UNL     1      40.870  -9.204   6.956  1.00  0.00    -0.023 A 
HETATM   26  C   UNL     1      39.551  -8.756   6.928  1.00  0.00     0.125 A 
HETATM   27  N   UNL     1      38.494  -9.513   6.558  1.00  0.00    -0.273 NA
HETATM   28  C   UNL     1      38.764 -10.775   6.162  1.00  0.00     0.116 A 
HETATM   29  C   UNL     1      40.039 -11.310   6.117  1.00  0.00     0.020 A 
HETATM   30  C   UNL     1      41.107 -10.507   6.509  1.00  0.00     0.012 A 
ENDBRANCH  24  25
ENDBRANCH   2  24
BRANCH   5  31
HETATM   31  C   UNL     1      42.543  -8.384  12.286  1.00  0.00     0.047 A 
HETATM   32  C   UNL     1      43.163  -7.370  13.033  1.00  0.00     0.031 A 
HETATM   33  C   UNL     1      42.857  -7.153  14.383  1.00  0.00     0.009 A 
HETATM   34  C   UNL     1      41.921  -7.953  15.035  1.00  0.00    -0.062 A 
HETATM   35  C   UNL     1      41.551  -7.682  16.462  1.00  0.00     0.048 C 
HETATM   36  C   UNL     1      41.290  -8.965  14.309  1.00  0.00     0.009 A 
HETATM   37  C   UNL     1      41.605  -9.182  12.959  1.00  0.00     0.031 A 
ENDBRANCH   5  31
TORSDOF 9
ENDMDL
MODEL 5
REMARK VINA RESULT:      -8.6      3.122      5.559
REMARK  9 active torsions:
REMARK  status: ('A' for Active; 'I' for Inactive)
REMARK    1  A    between atoms: C_2  and  O_3 
REMARK    2  A    between atoms: O_3  and  C_4 
REMARK    3  A    between atoms: C_4  and  C_5 
REMARK    4  A    between atoms: C_8  and  N_9 
REMARK       I    between atoms: N_9  and  C_10 
REMARK    5  A    between atoms: C_10  and  C_11 
REMARK    6  A    between atoms: C_11  and  C_12 
REMARK    7  A    between atoms: N_13  and  C_14 
REMARK    8  A    between atoms: C_14  and  C_15 
REMARK    9  A    between atoms: N_23  and  C_24 
ROOT
HETATM    1  C   UNL     1      40.680 -13.941   3.403  1.00  0.00     0.191 A 
HETATM    2  N   UNL     1      41.666 -13.878   2.343  1.00  0.00    -0.315 N 
HETATM    3  C   UNL     1      42.525 -14.968   2.352  1.00  0.00     0.333 A 
HETATM    4  O   UNL     1      43.436 -15.087   1.545  1.00  0.00    -0.246 OA
HETATM    5  N   UNL     1      42.165 -15.807   3.384  1.00  0.00    -0.232 N 
HETATM    6  C   UNL     1      41.057 -15.290   4.023  1.00  0.00     0.256 A 
HETATM    7  O   UNL     1      40.408 -15.772   4.948  1.00  0.00    -0.270 OA
ENDROOT
BRANCH   1   8
HETATM    8  C   UNL     1      40.771 -12.889   4.503  1.00  0.00     0.138 C 
BRANCH   8   9
HETATM    9  C   UNL     1      39.453 -12.309   4.926  1.00  0.00     0.224 C 
HETATM   10  N   UNL     1      38.765 -11.378   4.220  1.00  0.00    -0.327 N 
HETATM   11  H   UNL     1      37.986 -11.041   4.779  1.00  0.00     0.169 HD
HETATM   12  O   UNL     1      38.973 -12.640   6.017  1.00  0.00    -0.273 OA
BRANCH  10  13
HETATM   13  C   UNL     1      38.859 -10.809   2.942  1.00  0.00     0.034 A 
HETATM   14  C   UNL     1      39.729  -9.790   2.561  1.00  0.00     0.030 A 
HETATM   15  C   UNL     1      39.757  -9.346   1.227  1.00  0.00     0.020 A 
HETATM   16  C   UNL     1      38.919  -9.916   0.259  1.00  0.00     0.039 A 
HETATM   17  C   UNL     1      38.042 -10.932   0.642  1.00  0.00     0.020 A 
HETATM   18  C   UNL     1      38.023 -11.375   1.967  1.00  0.00     0.030 A 
BRANCH  16  19
HETATM   19  C   UNL     1      39.018  -9.440  -1.148  1.00  0.00     0.293 C 
HETATM   20  O   UNL     1      38.295  -9.839  -2.046  1.00  0.00    -0.259 OA
BRANCH  19  21
HETATM   21  O   UNL     1      39.990  -8.500  -1.259  1.00  0.00    -0.318 OA
BRANCH  21  22
HETATM   22  C   UNL     1      41.067  -8.807  -2.157  1.00  0.00     0.174 C 
HETATM   23  C   UNL     1      42.392  -8.811  -1.420  1.00  0.00     0.034 C 
ENDBRANCH  21  22
ENDBRANCH  19  21
ENDBRANCH  16  19
ENDBRANCH  10  13
ENDBRANCH   8   9
ENDBRANCH   1   8
BRANCH   2  24
HETATM   24  C   UNL     1      41.731 -12.845   1.317  1.00  0.00     0.168 C 
BRANCH  24  25
HETATM   25  C   UNL     1      40.931 -13.147   0.080  1.00  0.00    -0.023 A 
HETATM   26  C   UNL     1      41.125 -12.390  -1.073  1.00  0.00     0.125 A 
HETATM   27  N   UNL     1      40.465 -12.587  -2.236  1.00  0.00    -0.273 NA
HETATM   28  C   UNL     1      39.587 -13.611  -2.267  1.00  0.00     0.116 A 
HETATM   29  C   UNL     1      39.343 -14.447  -1.191  1.00  0.00     0.020 A 
HETATM   30  C   UNL     1      40.035 -14.216  -0.006  1.00  0.00     0.012 A 
ENDBRANCH  24  25
ENDBRANCH   2  24
BRANCH   5  31
HETATM   31  C   UNL     1      42.849 -17.011   3.735  1.00  0.00     0.047 A 
HETATM   32  C   UNL     1      43.319 -17.236   5.039  1.00  0.00     0.031 A 
HETATM   33  C   UNL     1      43.953 -18.432   5.401  1.00  0.00     0.009 A 
HETATM   34  C   UNL     1      44.144 -19.445   4.463  1.00  0.00    -0.062 A 
HETATM   35  C   UNL     1      44.768 -20.747   4.867  1.00  0.00     0.048 C 
HETATM   36  C   UNL     1      43.681 -19.243   3.162  1.00  0.00     0.009 A 
HETATM   37  C   UNL     1      43.053 -18.040   2.803  1.00  0.00     0.031 A 
ENDBRANCH   5  31
TORSDOF 9
ENDMDL
MODEL 6
REMARK VINA RESULT:      -8.5      3.212      7.429
REMARK  9 active torsions:
REMARK  status: ('A' for Active; 'I' for Inactive)
REMARK    1  A    between atoms: C_2  and  O_3 
REMARK    2  A    between atoms: O_3  and  C_4 
REMARK    3  A    between atoms: C_4  and  C_5 
REMARK    4  A    between atoms: C_8  and  N_9 
REMARK       I    between atoms: N_9  and  C_10 
REMARK    5  A    between atoms: C_10  and  C_11 
REMARK    6  A    between atoms: C_11  and  C_12 
REMARK    7  A    between atoms: N_13  and  C_14 
REMARK    8  A    between atoms: C_14  and  C_15 
REMARK    9  A    between atoms: N_23  and  C_24 
ROOT
HETATM    1  C   UNL     1      39.978 -11.719   4.544  1.00  0.00     0.191 A 
HETATM    2  N   UNL     1      41.263 -11.779   5.208  1.00  0.00    -0.315 N 
HETATM    3  C   UNL     1      41.349 -10.899   6.279  1.00  0.00     0.333 A 
HETATM    4  O   UNL     1      42.362 -10.789   6.955  1.00  0.00    -0.246 OA
HETATM    5  N   UNL     1      40.151 -10.226   6.396  1.00  0.00    -0.232 N 
HETATM    6  C   UNL     1      39.276 -10.688   5.434  1.00  0.00     0.256 A 
HETATM    7  O   UNL     1      38.101 -10.380   5.252  1.00  0.00    -0.270 OA
ENDROOT
BRANCH   1   8
HETATM    8  C   UNL     1      39.955 -11.184   3.117  1.00  0.00     0.138 C 
BRANCH   8   9
HETATM    9  C   UNL     1      39.087 -11.961   2.170  1.00  0.00     0.224 C 
HETATM   10  N   UNL     1      39.412 -13.172   1.653  1.00  0.00    -0.327 N 
HETATM   11  H   UNL     1      38.740 -13.421   0.933  1.00  0.00     0.169 HD
HETATM   12  O   UNL     1      38.031 -11.456   1.771  1.00  0.00    -0.273 OA
BRANCH  10  13
HETATM   13  C   UNL     1      40.406 -14.133   1.885  1.00  0.00     0.034 A 
HETATM   14  C   UNL     1      41.752 -14.019   1.543  1.00  0.00     0.030 A 
HETATM   15  C   UNL     1      42.656 -15.041   1.882  1.00  0.00     0.020 A 
HETATM   16  C   UNL     1      42.228 -16.185   2.568  1.00  0.00     0.039 A 
HETATM   17  C   UNL     1      40.879 -16.304   2.905  1.00  0.00     0.020 A 
HETATM   18  C   UNL     1      39.985 -15.283   2.572  1.00  0.00     0.030 A 
BRANCH  16  19
HETATM   19  C   UNL     1      43.234 -17.217   2.942  1.00  0.00     0.293 C 
HETATM   20  O   UNL     1      43.831 -17.222   4.006  1.00  0.00    -0.259 OA
BRANCH  19  21
HETATM   21  O   UNL     1      43.351 -18.140   1.954  1.00  0.00    -0.318 OA
BRANCH  21  22
HETATM   22  C   UNL     1      42.819 -19.442   2.238  1.00  0.00     0.174 C 
HETATM   23  C   UNL     1      43.823 -20.519   1.878  1.00  0.00     0.034 C 
ENDBRANCH  21  22
ENDBRANCH  19  21
ENDBRANCH  16  19
ENDBRANCH  10  13
ENDBRANCH   8   9
ENDBRANCH   1   8
BRANCH   2  24
HETATM   24  C   UNL     1      42.341 -12.699   4.871  1.00  0.00     0.168 C 
BRANCH  24  25
HETATM   25  C   UNL     1      42.348 -13.970   5.676  1.00  0.00    -0.023 A 
HETATM   26  C   UNL     1      43.540 -14.438   6.223  1.00  0.00     0.125 A 
HETATM   27  N   UNL     1      43.650 -15.560   6.968  1.00  0.00    -0.273 NA
HETATM   28  C   UNL     1      42.509 -16.239   7.211  1.00  0.00     0.116 A 
HETATM   29  C   UNL     1      41.266 -15.844   6.747  1.00  0.00     0.020 A 
HETATM   30  C   UNL     1      41.186 -14.686   5.978  1.00  0.00     0.012 A 
ENDBRANCH  24  25
ENDBRANCH   2  24
BRANCH   5  31
HETATM   31  C   UNL     1      39.878  -9.205   7.356  1.00  0.00     0.047 A 
HETATM   32  C   UNL     1      39.337  -9.507   8.617  1.00  0.00     0.031 A 
HETATM   33  C   UNL     1      39.108  -8.516   9.580  1.00  0.00     0.009 A 
HETATM   34  C   UNL     1      39.407  -7.182   9.310  1.00  0.00    -0.062 A 
HETATM   35  C   UNL     1      39.216  -6.132  10.362  1.00  0.00     0.048 C 
HETATM   36  C   UNL     1      39.948  -6.861   8.064  1.00  0.00     0.009 A 
HETATM   37  C   UNL     1      40.170  -7.856   7.100  1.00  0.00     0.031 A 
ENDBRANCH   5  31
TORSDOF 9
ENDMDL
MODEL 7
REMARK VINA RESULT:      -8.3      3.067      7.402
REMARK  9 active torsions:
REMARK  status: ('A' for Active; 'I' for Inactive)
REMARK    1  A    between atoms: C_2  and  O_3 
REMARK    2  A    between atoms: O_3  and  C_4 
REMARK    3  A    between atoms: C_4  and  C_5 
REMARK    4  A    between atoms: C_8  and  N_9 
REMARK       I    between atoms: N_9  and  C_10 
REMARK    5  A    between atoms: C_10  and  C_11 
REMARK    6  A    between atoms: C_11  and  C_12 
REMARK    7  A    between atoms: N_13  and  C_14 
REMARK    8  A    between atoms: C_14  and  C_15 
REMARK    9  A    between atoms: N_23  and  C_24 
ROOT
HETATM    1  C   UNL     1      41.755 -10.348   6.235  1.00  0.00     0.191 A 
HETATM    2  N   UNL     1      42.866 -11.196   6.613  1.00  0.00    -0.315 N 
HETATM    3  C   UNL     1      43.335 -10.918   7.890  1.00  0.00     0.333 A 
HETATM    4  O   UNL     1      44.281 -11.517   8.383  1.00  0.00    -0.246 OA
HETATM    5  N   UNL     1      42.576  -9.902   8.429  1.00  0.00    -0.232 N 
HETATM    6  C   UNL     1      41.594  -9.542   7.528  1.00  0.00     0.256 A 
HETATM    7  O   UNL     1      40.691  -8.721   7.663  1.00  0.00    -0.270 OA
ENDROOT
BRANCH   1   8
HETATM    8  C   UNL     1      41.990  -9.354   5.103  1.00  0.00     0.138 C 
BRANCH   8   9
HETATM    9  C   UNL     1      40.770  -9.031   4.289  1.00  0.00     0.224 C 
HETATM   10  N   UNL     1      40.208  -9.872   3.387  1.00  0.00    -0.327 N 
HETATM   11  H   UNL     1      39.492  -9.376   2.865  1.00  0.00     0.169 HD
HETATM   12  O   UNL     1      40.266  -7.906   4.384  1.00  0.00    -0.273 OA
BRANCH  10  13
HETATM   13  C   UNL     1      40.362 -11.221   3.033  1.00  0.00     0.034 A 
HETATM   14  C   UNL     1      41.532 -11.818   2.570  1.00  0.00     0.030 A 
HETATM   15  C   UNL     1      41.563 -13.197   2.299  1.00  0.00     0.020 A 
HETATM   16  C   UNL     1      40.427 -13.995   2.492  1.00  0.00     0.039 A 
HETATM   17  C   UNL     1      39.252 -13.397   2.949  1.00  0.00     0.020 A 
HETATM   18  C   UNL     1      39.228 -12.027   3.223  1.00  0.00     0.030 A 
BRANCH  16  19
HETATM   19  C   UNL     1      40.524 -15.458   2.233  1.00  0.00     0.293 C 
HETATM   20  O   UNL     1      39.913 -16.027   1.344  1.00  0.00    -0.259 OA
BRANCH  19  21
HETATM   21  O   UNL     1      41.398 -16.032   3.098  1.00  0.00    -0.318 OA
BRANCH  21  22
HETATM   22  C   UNL     1      42.141 -17.153   2.597  1.00  0.00     0.174 C 
HETATM   23  C   UNL     1      43.414 -17.351   3.397  1.00  0.00     0.034 C 
ENDBRANCH  21  22
ENDBRANCH  19  21
ENDBRANCH  16  19
ENDBRANCH  10  13
ENDBRANCH   8   9
ENDBRANCH   1   8
BRANCH   2  24
HETATM   24  C   UNL     1      43.408 -12.281   5.805  1.00  0.00     0.168 C 
BRANCH  24  25
HETATM   25  C   UNL     1      42.798 -13.627   6.085  1.00  0.00    -0.023 A 
HETATM   26  C   UNL     1      43.612 -14.690   6.469  1.00  0.00     0.125 A 
HETATM   27  N   UNL     1      43.162 -15.934   6.752  1.00  0.00    -0.273 NA
HETATM   28  C   UNL     1      41.828 -16.124   6.680  1.00  0.00     0.116 A 
HETATM   29  C   UNL     1      40.926 -15.130   6.344  1.00  0.00     0.020 A 
HETATM   30  C   UNL     1      41.420 -13.861   6.054  1.00  0.00     0.012 A 
ENDBRANCH  24  25
ENDBRANCH   2  24
BRANCH   5  31
HETATM   31  C   UNL     1      42.792  -9.313   9.713  1.00  0.00     0.047 A 
HETATM   32  C   UNL     1      42.866  -7.921   9.880  1.00  0.00     0.031 A 
HETATM   33  C   UNL     1      43.034  -7.336  11.142  1.00  0.00     0.009 A 
HETATM   34  C   UNL     1      43.141  -8.128  12.282  1.00  0.00    -0.062 A 
HETATM   35  C   UNL     1      43.261  -7.499  13.638  1.00  0.00     0.048 C 
HETATM   36  C   UNL     1      43.067  -9.515  12.138  1.00  0.00     0.009 A 
HETATM   37  C   UNL     1      42.905 -10.097  10.872  1.00  0.00     0.031 A 
ENDBRANCH   5  31
TORSDOF 9
ENDMDL
MODEL 8
REMARK VINA RESULT:      -8.2      3.956      8.829
REMARK  9 active torsions:
REMARK  status: ('A' for Active; 'I' for Inactive)
REMARK    1  A    between atoms: C_2  and  O_3 
REMARK    2  A    between atoms: O_3  and  C_4 
REMARK    3  A    between atoms: C_4  and  C_5 
REMARK    4  A    between atoms: C_8  and  N_9 
REMARK       I    between atoms: N_9  and  C_10 
REMARK    5  A    between atoms: C_10  and  C_11 
REMARK    6  A    between atoms: C_11  and  C_12 
REMARK    7  A    between atoms: N_13  and  C_14 
REMARK    8  A    between atoms: C_14  and  C_15 
REMARK    9  A    between atoms: N_23  and  C_24 
ROOT
HETATM    1  C   UNL     1      42.886 -11.477   6.645  1.00  0.00     0.191 A 
HETATM    2  N   UNL     1      41.712 -11.296   5.816  1.00  0.00    -0.315 N 
HETATM    3  C   UNL     1      41.495 -12.369   4.962  1.00  0.00     0.333 A 
HETATM    4  O   UNL     1      40.563 -12.395   4.171  1.00  0.00    -0.246 OA
HETATM    5  N   UNL     1      42.480 -13.310   5.174  1.00  0.00    -0.232 N 
HETATM    6  C   UNL     1      43.313 -12.875   6.184  1.00  0.00     0.256 A 
HETATM    7  O   UNL     1      44.266 -13.455   6.697  1.00  0.00    -0.270 OA
ENDROOT
BRANCH   1   8
HETATM    8  C   UNL     1      44.061 -10.537   6.405  1.00  0.00     0.138 C 
BRANCH   8   9
HETATM    9  C   UNL     1      45.300 -10.869   7.185  1.00  0.00     0.224 C 
HETATM   10  N   UNL     1      45.471 -10.593   8.501  1.00  0.00    -0.327 N 
HETATM   11  H   UNL     1      46.436 -10.778   8.761  1.00  0.00     0.169 HD
HETATM   12  O   UNL     1      46.265 -11.371   6.596  1.00  0.00    -0.273 OA
BRANCH  10  13
HETATM   13  C   UNL     1      44.657 -10.150   9.553  1.00  0.00     0.034 A 
HETATM   14  C   UNL     1      44.120 -10.943  10.564  1.00  0.00     0.030 A 
HETATM   15  C   UNL     1      43.359 -10.360  11.593  1.00  0.00     0.020 A 
HETATM   16  C   UNL     1      43.129  -8.978  11.624  1.00  0.00     0.039 A 
HETATM   17  C   UNL     1      43.659  -8.183  10.608  1.00  0.00     0.020 A 
HETATM   18  C   UNL     1      44.421  -8.766   9.592  1.00  0.00     0.030 A 
BRANCH  16  19
HETATM   19  C   UNL     1      42.354  -8.405  12.759  1.00  0.00     0.293 C 
HETATM   20  O   UNL     1      42.868  -7.999  13.788  1.00  0.00    -0.259 OA
BRANCH  19  21
HETATM   21  O   UNL     1      41.031  -8.378  12.459  1.00  0.00    -0.318 OA
BRANCH  21  22
HETATM   22  C   UNL     1      40.380  -7.105  12.583  1.00  0.00     0.174 C 
HETATM   23  C   UNL     1      38.965  -7.276  13.101  1.00  0.00     0.034 C 
ENDBRANCH  21  22
ENDBRANCH  19  21
ENDBRANCH  16  19
ENDBRANCH  10  13
ENDBRANCH   8   9
ENDBRANCH   1   8
BRANCH   2  24
HETATM   24  C   UNL     1      40.794 -10.168   5.896  1.00  0.00     0.168 C 
BRANCH  24  25
HETATM   25  C   UNL     1      40.204  -9.942   7.260  1.00  0.00    -0.023 A 
HETATM   26  C   UNL     1      39.157 -10.747   7.704  1.00  0.00     0.125 A 
HETATM   27  N   UNL     1      38.565 -10.632   8.914  1.00  0.00    -0.273 NA
HETATM   28  C   UNL     1      39.060  -9.688   9.742  1.00  0.00     0.116 A 
HETATM   29  C   UNL     1      40.120  -8.859   9.416  1.00  0.00     0.020 A 
HETATM   30  C   UNL     1      40.705  -8.999   8.161  1.00  0.00     0.012 A 
ENDBRANCH  24  25
ENDBRANCH   2  24
BRANCH   5  31
HETATM   31  C   UNL     1      42.612 -14.532   4.445  1.00  0.00     0.047 A 
HETATM   32  C   UNL     1      43.056 -14.548   3.113  1.00  0.00     0.031 A 
HETATM   33  C   UNL     1      43.230 -15.745   2.406  1.00  0.00     0.009 A 
HETATM   34  C   UNL     1      42.958 -16.971   3.010  1.00  0.00    -0.062 A 
HETATM   35  C   UNL     1      43.201 -18.253   2.272  1.00  0.00     0.048 C 
HETATM   36  C   UNL     1      42.519 -16.977   4.334  1.00  0.00     0.009 A 
HETATM   37  C   UNL     1      42.339 -15.775   5.036  1.00  0.00     0.031 A 
ENDBRANCH   5  31
TORSDOF 9
ENDMDL
MODEL 9
REMARK VINA RESULT:      -8.2      4.330      8.907
REMARK  9 active torsions:
REMARK  status: ('A' for Active; 'I' for Inactive)
REMARK    1  A    between atoms: C_2  and  O_3 
REMARK    2  A    between atoms: O_3  and  C_4 
REMARK    3  A    between atoms: C_4  and  C_5 
REMARK    4  A    between atoms: C_8  and  N_9 
REMARK       I    between atoms: N_9  and  C_10 
REMARK    5  A    between atoms: C_10  and  C_11 
REMARK    6  A    between atoms: C_11  and  C_12 
REMARK    7  A    between atoms: N_13  and  C_14 
REMARK    8  A    between atoms: C_14  and  C_15 
REMARK    9  A    between atoms: N_23  and  C_24 
ROOT
HETATM    1  C   UNL     1      43.783  -9.193   8.867  1.00  0.00     0.191 A 
HETATM    2  N   UNL     1      42.503  -8.556   8.636  1.00  0.00    -0.315 N 
HETATM    3  C   UNL     1      41.880  -8.171   9.816  1.00  0.00     0.333 A 
HETATM    4  O   UNL     1      40.783  -7.631   9.829  1.00  0.00    -0.246 OA
HETATM    5  N   UNL     1      42.694  -8.509  10.876  1.00  0.00    -0.232 N 
HETATM    6  C   UNL     1      43.855  -9.077  10.394  1.00  0.00     0.256 A 
HETATM    7  O   UNL     1      44.843  -9.454  11.018  1.00  0.00    -0.270 OA
ENDROOT
BRANCH   1   8
HETATM    8  C   UNL     1      43.899 -10.672   8.515  1.00  0.00     0.138 C 
BRANCH   8   9
HETATM    9  C   UNL     1      45.123 -11.033   7.723  1.00  0.00     0.224 C 
HETATM   10  N   UNL     1      45.121 -11.853   6.644  1.00  0.00    -0.327 N 
HETATM   11  H   UNL     1      46.079 -12.057   6.376  1.00  0.00     0.169 HD
HETATM   12  O   UNL     1      46.225 -10.617   8.099  1.00  0.00    -0.273 OA
BRANCH  10  13
HETATM   13  C   UNL     1      44.145 -12.446   5.829  1.00  0.00     0.034 A 
HETATM   14  C   UNL     1      43.404 -13.584   6.135  1.00  0.00     0.030 A 
HETATM   15  C   UNL     1      42.416 -14.045   5.247  1.00  0.00     0.020 A 
HETATM   16  C   UNL     1      42.156 -13.372   4.046  1.00  0.00     0.039 A 
HETATM   17  C   UNL     1      42.903 -12.235   3.735  1.00  0.00     0.020 A 
HETATM   18  C   UNL     1      43.879 -11.777   4.624  1.00  0.00     0.030 A 
BRANCH  16  19
HETATM   19  C   UNL     1      41.069 -13.874   3.161  1.00  0.00     0.293 C 
HETATM   20  O   UNL     1      40.816 -15.058   3.012  1.00  0.00    -0.259 OA
BRANCH  19  21
HETATM   21  O   UNL     1      40.408 -12.835   2.591  1.00  0.00    -0.318 OA
BRANCH  21  22
HETATM   22  C   UNL     1      38.995 -12.773   2.837  1.00  0.00     0.174 C 
HETATM   23  C   UNL     1      38.355 -11.684   1.999  1.00  0.00     0.034 C 
ENDBRANCH  21  22
ENDBRANCH  19  21
ENDBRANCH  16  19
ENDBRANCH  10  13
ENDBRANCH   8   9
ENDBRANCH   1   8
BRANCH   2  24
HETATM   24  C   UNL     1      41.935  -8.263   7.326  1.00  0.00     0.168 C 
BRANCH  24  25
HETATM   25  C   UNL     1      40.821  -9.185   6.913  1.00  0.00    -0.023 A 
HETATM   26  C   UNL     1      39.526  -8.689   6.775  1.00  0.00     0.125 A 
HETATM   27  N   UNL     1      38.460  -9.430   6.400  1.00  0.00    -0.273 NA
HETATM   28  C   UNL     1      38.697 -10.728   6.115  1.00  0.00     0.116 A 
HETATM   29  C   UNL     1      39.948 -11.315   6.184  1.00  0.00     0.020 A 
HETATM   30  C   UNL     1      41.026 -10.526   6.578  1.00  0.00     0.012 A 
ENDBRANCH  24  25
ENDBRANCH   2  24
BRANCH   5  31
HETATM   31  C   UNL     1      42.366  -8.310  12.252  1.00  0.00     0.047 A 
HETATM   32  C   UNL     1      41.423  -9.119  12.908  1.00  0.00     0.031 A 
HETATM   33  C   UNL     1      41.129  -8.957  14.268  1.00  0.00     0.009 A 
HETATM   34  C   UNL     1      41.767  -7.973  15.019  1.00  0.00    -0.062 A 
HETATM   35  C   UNL     1      41.495  -7.841  16.488  1.00  0.00     0.048 C 
HETATM   36  C   UNL     1      42.710  -7.161  14.388  1.00  0.00     0.009 A 
HETATM   37  C   UNL     1      42.996  -7.321  13.024  1.00  0.00     0.031 A 
ENDBRANCH   5  31
TORSDOF 9
ENDMDL
MODEL 10
REMARK VINA RESULT:      -8.1      3.828      9.934
REMARK  9 active torsions:
REMARK  status: ('A' for Active; 'I' for Inactive)
REMARK    1  A    between atoms: C_2  and  O_3 
REMARK    2  A    between atoms: O_3  and  C_4 
REMARK    3  A    between atoms: C_4  and  C_5 
REMARK    4  A    between atoms: C_8  and  N_9 
REMARK       I    between atoms: N_9  and  C_10 
REMARK    5  A    between atoms: C_10  and  C_11 
REMARK    6  A    between atoms: C_11  and  C_12 
REMARK    7  A    between atoms: N_13  and  C_14 
REMARK    8  A    between atoms: C_14  and  C_15 
REMARK    9  A    between atoms: N_23  and  C_24 
ROOT
HETATM    1  C   UNL     1      43.063 -12.902   5.922  1.00  0.00     0.191 A 
HETATM    2  N   UNL     1      41.894 -13.735   6.115  1.00  0.00    -0.315 N 
HETATM    3  C   UNL     1      40.708 -13.022   6.005  1.00  0.00     0.333 A 
HETATM    4  O   UNL     1      39.614 -13.547   6.154  1.00  0.00    -0.246 OA
HETATM    5  N   UNL     1      41.009 -11.705   5.727  1.00  0.00    -0.232 N 
HETATM    6  C   UNL     1      42.377 -11.565   5.619  1.00  0.00     0.256 A 
HETATM    7  O   UNL     1      43.026 -10.565   5.324  1.00  0.00    -0.270 OA
ENDROOT
BRANCH   1   8
HETATM    8  C   UNL     1      43.973 -12.687   7.126  1.00  0.00     0.138 C 
BRANCH   8   9
HETATM    9  C   UNL     1      45.014 -11.621   6.941  1.00  0.00     0.224 C 
HETATM   10  N   UNL     1      45.096 -10.494   7.690  1.00  0.00    -0.327 N 
HETATM   11  H   UNL     1      45.784  -9.868   7.281  1.00  0.00     0.169 HD
HETATM   12  O   UNL     1      45.823 -11.726   6.011  1.00  0.00    -0.273 OA
BRANCH  10  13
HETATM   13  C   UNL     1      44.493 -10.016   8.862  1.00  0.00     0.034 A 
HETATM   14  C   UNL     1      45.084  -9.957  10.122  1.00  0.00     0.030 A 
HETATM   15  C   UNL     1      44.382  -9.404  11.207  1.00  0.00     0.020 A 
HETATM   16  C   UNL     1      43.084  -8.901  11.046  1.00  0.00     0.039 A 
HETATM   17  C   UNL     1      42.488  -8.966   9.786  1.00  0.00     0.020 A 
HETATM   18  C   UNL     1      43.192  -9.510   8.708  1.00  0.00     0.030 A 
BRANCH  16  19
HETATM   19  C   UNL     1      42.401  -8.285  12.217  1.00  0.00     0.293 C 
HETATM   20  O   UNL     1      42.989  -7.900  13.213  1.00  0.00    -0.259 OA
BRANCH  19  21
HETATM   21  O   UNL     1      41.067  -8.196  11.989  1.00  0.00    -0.318 OA
BRANCH  21  22
HETATM   22  C   UNL     1      40.212  -8.661  13.045  1.00  0.00     0.174 C 
HETATM   23  C   UNL     1      40.178 -10.176  13.076  1.00  0.00     0.034 C 
ENDBRANCH  21  22
ENDBRANCH  19  21
ENDBRANCH  16  19
ENDBRANCH  10  13
ENDBRANCH   8   9
ENDBRANCH   1   8
BRANCH   2  24
HETATM   24  C   UNL     1      41.917 -15.177   6.325  1.00  0.00     0.168 C 
BRANCH  24  25
HETATM   25  C   UNL     1      42.270 -15.977   5.101  1.00  0.00    -0.023 A 
HETATM   26  C   UNL     1      43.419 -16.764   5.096  1.00  0.00     0.125 A 
HETATM   27  N   UNL     1      43.818 -17.526   4.053  1.00  0.00    -0.273 NA
HETATM   28  C   UNL     1      43.016 -17.532   2.967  1.00  0.00     0.116 A 
HETATM   29  C   UNL     1      41.835 -16.816   2.880  1.00  0.00     0.020 A 
HETATM   30  C   UNL     1      41.453 -16.037   3.969  1.00  0.00     0.012 A 
ENDBRANCH  24  25
ENDBRANCH   2  24
BRANCH   5  31
HETATM   31  C   UNL     1      40.045 -10.660   5.589  1.00  0.00     0.047 A 
HETATM   32  C   UNL     1      39.868  -9.687   6.587  1.00  0.00     0.031 A 
HETATM   33  C   UNL     1      38.956  -8.634   6.440  1.00  0.00     0.009 A 
HETATM   34  C   UNL     1      38.182  -8.522   5.287  1.00  0.00    -0.062 A 
HETATM   35  C   UNL     1      37.250  -7.362   5.106  1.00  0.00     0.048 C 
HETATM   36  C   UNL     1      38.345  -9.476   4.282  1.00  0.00     0.009 A 
HETATM   37  C   UNL     1      39.255 -10.533   4.436  1.00  0.00     0.031 A 
ENDBRANCH   5  31
TORSDOF 9
ENDMDL
