MODEL 1
REMARK VINA RESULT:      -8.4      0.000      0.000
REMARK  8 active torsions:
REMARK  status: ('A' for Active; 'I' for Inactive)
REMARK    1  A    between atoms: C_3  and  C_4 
REMARK       I    between atoms: C_4  and  N_5 
REMARK    2  A    between atoms: N_5  and  C_6 
REMARK    3  A    between atoms: C_8  and  C_9 
REMARK    4  A    between atoms: C_9  and  C_10 
REMARK    5  A    between atoms: C_10  and  N_11 
REMARK    6  A    between atoms: C_21  and  O_22 
REMARK    7  A    between atoms: O_22  and  C_23 
REMARK    8  A    between atoms: C_23  and  C_24 
ROOT
HETATM    1  C   UNL     1      42.820 -16.861   2.240  1.00  0.00     0.259 C 
HETATM    2  N   UNL     1      41.486 -16.519   2.383  1.00  0.00    -0.323 N 
HETATM    3  O   UNL     1      43.656 -16.190   1.643  1.00  0.00    -0.267 OA
HETATM    4  H   UNL     1      40.909 -17.197   2.868  1.00  0.00     0.169 HD
ENDROOT
BRANCH   2   5
HETATM    5  C   UNL     1      40.857 -15.329   1.950  1.00  0.00     0.035 A 
HETATM    6  C   UNL     1      40.445 -15.253   0.609  1.00  0.00     0.036 A 
HETATM    7  C   UNL     1      39.784 -14.114   0.103  1.00  0.00    -0.054 A 
HETATM    8  C   UNL     1      39.523 -13.053   0.981  1.00  0.00     0.007 A 
HETATM    9  C   UNL     1      39.942 -13.114   2.307  1.00  0.00     0.003 A 
HETATM   10  C   UNL     1      40.606 -14.242   2.785  1.00  0.00     0.029 A 
BRANCH   7  11
HETATM   11  C   UNL     1      39.311 -14.110  -1.335  1.00  0.00     0.066 C 
BRANCH  11  12
HETATM   12  C   UNL     1      38.369 -12.953  -1.699  1.00  0.00     0.239 C 
BRANCH  12  13
HETATM   13  N   UNL     1      38.807 -12.249  -2.969  1.00  0.00    -0.071 N 
HETATM   14  H   UNL     1      38.426 -12.772  -3.768  1.00  0.00     0.279 HD
HETATM   15  C   UNL     1      40.322 -12.230  -3.123  1.00  0.00     0.235 C 
HETATM   16  C   UNL     1      40.708 -10.803  -2.802  1.00  0.00     0.029 C 
HETATM   17  C   UNL     1      39.583 -10.009  -3.431  1.00  0.00     0.029 C 
HETATM   18  C   UNL     1      38.340 -10.801  -3.064  1.00  0.00     0.235 C 
ENDBRANCH  12  13
ENDBRANCH  11  12
ENDBRANCH   7  11
ENDBRANCH   2   5
BRANCH   1  19
HETATM   19  C   UNL     1      43.275 -18.149   2.871  1.00  0.00     0.065 A 
HETATM   20  C   UNL     1      43.104 -19.313   2.095  1.00  0.00     0.020 A 
HETATM   21  C   UNL     1      43.489 -20.566   2.568  1.00  0.00     0.001 A 
HETATM   22  C   UNL     1      44.043 -20.681   3.836  1.00  0.00     0.003 A 
HETATM   23  C   UNL     1      44.219 -19.543   4.622  1.00  0.00     0.038 A 
HETATM   24  C   UNL     1      43.867 -18.270   4.143  1.00  0.00     0.084 A 
BRANCH  24  25
HETATM   25  O   UNL     1      44.003 -17.161   4.941  1.00  0.00    -0.348 OA
BRANCH  25  26
HETATM   26  C   UNL     1      43.717 -17.368   6.332  1.00  0.00     0.207 C 
BRANCH  26  27
HETATM   27  C   UNL     1      42.533 -16.490   6.764  1.00  0.00     0.145 C 
HETATM   28  O   UNL     1      42.089 -15.722   5.631  1.00  0.00    -0.384 OA
HETATM   29  C   UNL     1      42.383 -14.335   5.866  1.00  0.00     0.168 C 
HETATM   30  C   UNL     1      43.310 -14.277   7.060  1.00  0.00     0.029 C 
HETATM   31  C   UNL     1      42.869 -15.482   7.854  1.00  0.00     0.036 C 
ENDBRANCH  26  27
ENDBRANCH  25  26
ENDBRANCH  24  25
ENDBRANCH   1  19
TORSDOF 8
ENDMDL
MODEL 2
REMARK VINA RESULT:      -8.3      2.575      7.635
REMARK  8 active torsions:
REMARK  status: ('A' for Active; 'I' for Inactive)
REMARK    1  A    between atoms: C_3  and  C_4 
REMARK       I    between atoms: C_4  and  N_5 
REMARK    2  A    between atoms: N_5  and  C_6 
REMARK    3  A    between atoms: C_8  and  C_9 
REMARK    4  A    between atoms: C_9  and  C_10 
REMARK    5  A    between atoms: C_10  and  N_11 
REMARK    6  A    between atoms: C_21  and  O_22 
REMARK    7  A    between atoms: O_22  and  C_23 
REMARK    8  A    between atoms: C_23  and  C_24 
ROOT
HETATM    1  C   UNL     1      40.357 -15.103   0.315  1.00  0.00     0.259 C 
HETATM    2  N   UNL     1      41.591 -14.966   0.925  1.00  0.00    -0.323 N 
HETATM    3  O   UNL     1      39.532 -15.970   0.588  1.00  0.00    -0.267 OA
HETATM    4  H   UNL     1      42.180 -14.224   0.563  1.00  0.00     0.169 HD
ENDROOT
BRANCH   2   5
HETATM    5  C   UNL     1      42.102 -15.725   2.004  1.00  0.00     0.035 A 
HETATM    6  C   UNL     1      41.474 -15.597   3.253  1.00  0.00     0.036 A 
HETATM    7  C   UNL     1      41.902 -16.340   4.374  1.00  0.00    -0.054 A 
HETATM    8  C   UNL     1      42.967 -17.237   4.209  1.00  0.00     0.007 A 
HETATM    9  C   UNL     1      43.604 -17.358   2.978  1.00  0.00     0.003 A 
HETATM   10  C   UNL     1      43.176 -16.605   1.886  1.00  0.00     0.029 A 
BRANCH   7  11
HETATM   11  C   UNL     1      41.151 -16.206   5.682  1.00  0.00     0.066 C 
BRANCH  11  12
HETATM   12  C   UNL     1      40.514 -14.829   5.918  1.00  0.00     0.239 C 
BRANCH  12  13
HETATM   13  N   UNL     1      41.461 -13.887   6.637  1.00  0.00    -0.071 N 
HETATM   14  H   UNL     1      40.974 -13.520   7.466  1.00  0.00     0.279 HD
HETATM   15  C   UNL     1      41.848 -12.692   5.777  1.00  0.00     0.235 C 
HETATM   16  C   UNL     1      43.271 -12.987   5.355  1.00  0.00     0.029 C 
HETATM   17  C   UNL     1      43.860 -13.612   6.602  1.00  0.00     0.029 C 
HETATM   18  C   UNL     1      42.762 -14.543   7.085  1.00  0.00     0.235 C 
ENDBRANCH  12  13
ENDBRANCH  11  12
ENDBRANCH   7  11
ENDBRANCH   2   5
BRANCH   1  19
HETATM   19  C   UNL     1      40.001 -14.109  -0.757  1.00  0.00     0.065 A 
HETATM   20  C   UNL     1      39.165 -14.584  -1.787  1.00  0.00     0.020 A 
HETATM   21  C   UNL     1      38.762 -13.758  -2.837  1.00  0.00     0.001 A 
HETATM   22  C   UNL     1      39.199 -12.441  -2.881  1.00  0.00     0.003 A 
HETATM   23  C   UNL     1      40.030 -11.952  -1.872  1.00  0.00     0.038 A 
HETATM   24  C   UNL     1      40.414 -12.764  -0.792  1.00  0.00     0.084 A 
BRANCH  24  25
HETATM   25  O   UNL     1      41.266 -12.286   0.172  1.00  0.00    -0.348 OA
BRANCH  25  26
HETATM   26  C   UNL     1      40.999 -10.947   0.618  1.00  0.00     0.207 C 
BRANCH  26  27
HETATM   27  C   UNL     1      40.494 -10.965   2.068  1.00  0.00     0.145 C 
HETATM   28  O   UNL     1      40.468 -12.327   2.533  1.00  0.00    -0.384 OA
HETATM   29  C   UNL     1      39.100 -12.727   2.722  1.00  0.00     0.168 C 
HETATM   30  C   UNL     1      38.238 -11.670   2.070  1.00  0.00     0.029 C 
HETATM   31  C   UNL     1      39.079 -10.430   2.244  1.00  0.00     0.036 C 
ENDBRANCH  26  27
ENDBRANCH  25  26
ENDBRANCH  24  25
ENDBRANCH   1  19
TORSDOF 8
ENDMDL
MODEL 3
REMARK VINA RESULT:      -8.3      2.132      4.018
REMARK  8 active torsions:
REMARK  status: ('A' for Active; 'I' for Inactive)
REMARK    1  A    between atoms: C_3  and  C_4 
REMARK       I    between atoms: C_4  and  N_5 
REMARK    2  A    between atoms: N_5  and  C_6 
REMARK    3  A    between atoms: C_8  and  C_9 
REMARK    4  A    between atoms: C_9  and  C_10 
REMARK    5  A    between atoms: C_10  and  N_11 
REMARK    6  A    between atoms: C_21  and  O_22 
REMARK    7  A    between atoms: O_22  and  C_23 
REMARK    8  A    between atoms: C_23  and  C_24 
ROOT
HETATM    1  C   UNL     1      42.744 -16.428   2.023  1.00  0.00     0.259 C 
HETATM    2  N   UNL     1      41.379 -16.213   1.947  1.00  0.00    -0.323 N 
HETATM    3  O   UNL     1      43.598 -15.689   1.544  1.00  0.00    -0.267 OA
HETATM    4  H   UNL     1      40.797 -16.936   2.357  1.00  0.00     0.169 HD
ENDROOT
BRANCH   2   5
HETATM    5  C   UNL     1      40.719 -15.095   1.388  1.00  0.00     0.035 A 
HETATM    6  C   UNL     1      40.605 -13.937   2.175  1.00  0.00     0.036 A 
HETATM    7  C   UNL     1      39.987 -12.767   1.684  1.00  0.00    -0.054 A 
HETATM    8  C   UNL     1      39.501 -12.776   0.369  1.00  0.00     0.007 A 
HETATM    9  C   UNL     1      39.595 -13.924  -0.412  1.00  0.00     0.003 A 
HETATM   10  C   UNL     1      40.197 -15.074   0.096  1.00  0.00     0.029 A 
BRANCH   7  11
HETATM   11  C   UNL     1      39.945 -11.530   2.555  1.00  0.00     0.066 C 
BRANCH  11  12
HETATM   12  C   UNL     1      40.479 -11.730   3.981  1.00  0.00     0.239 C 
BRANCH  12  13
HETATM   13  N   UNL     1      41.704 -10.876   4.247  1.00  0.00    -0.071 N 
HETATM   14  H   UNL     1      41.403  -9.892   4.277  1.00  0.00     0.279 HD
HETATM   15  C   UNL     1      42.742 -10.997   3.141  1.00  0.00     0.235 C 
HETATM   16  C   UNL     1      43.832 -11.852   3.749  1.00  0.00     0.029 C 
HETATM   17  C   UNL     1      43.880 -11.355   5.178  1.00  0.00     0.029 C 
HETATM   18  C   UNL     1      42.416 -11.210   5.553  1.00  0.00     0.235 C 
ENDBRANCH  12  13
ENDBRANCH  11  12
ENDBRANCH   7  11
ENDBRANCH   2   5
BRANCH   1  19
HETATM   19  C   UNL     1      43.211 -17.658   2.754  1.00  0.00     0.065 A 
HETATM   20  C   UNL     1      43.055 -18.880   2.070  1.00  0.00     0.020 A 
HETATM   21  C   UNL     1      43.452 -20.089   2.641  1.00  0.00     0.001 A 
HETATM   22  C   UNL     1      44.003 -20.099   3.915  1.00  0.00     0.003 A 
HETATM   23  C   UNL     1      44.163 -18.901   4.610  1.00  0.00     0.038 A 
HETATM   24  C   UNL     1      43.800 -17.673   4.032  1.00  0.00     0.084 A 
BRANCH  24  25
HETATM   25  O   UNL     1      43.921 -16.504   4.742  1.00  0.00    -0.348 OA
BRANCH  25  26
HETATM   26  C   UNL     1      43.657 -16.611   6.149  1.00  0.00     0.207 C 
BRANCH  26  27
HETATM   27  C   UNL     1      42.710 -15.486   6.595  1.00  0.00     0.145 C 
HETATM   28  O   UNL     1      41.676 -16.053   7.422  1.00  0.00    -0.384 OA
HETATM   29  C   UNL     1      40.423 -15.967   6.723  1.00  0.00     0.168 C 
HETATM   30  C   UNL     1      40.741 -15.601   5.290  1.00  0.00     0.029 C 
HETATM   31  C   UNL     1      41.996 -14.779   5.451  1.00  0.00     0.036 C 
ENDBRANCH  26  27
ENDBRANCH  25  26
ENDBRANCH  24  25
ENDBRANCH   1  19
TORSDOF 8
ENDMDL
MODEL 4
REMARK VINA RESULT:      -8.0      3.845      8.287
REMARK  8 active torsions:
REMARK  status: ('A' for Active; 'I' for Inactive)
REMARK    1  A    between atoms: C_3  and  C_4 
REMARK       I    between atoms: C_4  and  N_5 
REMARK    2  A    between atoms: N_5  and  C_6 
REMARK    3  A    between atoms: C_8  and  C_9 
REMARK    4  A    between atoms: C_9  and  C_10 
REMARK    5  A    between atoms: C_10  and  N_11 
REMARK    6  A    between atoms: C_21  and  O_22 
REMARK    7  A    between atoms: O_22  and  C_23 
REMARK    8  A    between atoms: C_23  and  C_24 
ROOT
HETATM    1  C   UNL     1      42.940 -15.463   6.369  1.00  0.00     0.259 C 
HETATM    2  N   UNL     1      43.515 -14.320   5.843  1.00  0.00    -0.323 N 
HETATM    3  O   UNL     1      42.148 -15.482   7.307  1.00  0.00    -0.267 OA
HETATM    4  H   UNL     1      44.183 -14.469   5.095  1.00  0.00     0.169 HD
ENDROOT
BRANCH   2   5
HETATM    5  C   UNL     1      43.256 -12.981   6.218  1.00  0.00     0.035 A 
HETATM    6  C   UNL     1      44.251 -12.293   6.931  1.00  0.00     0.036 A 
HETATM    7  C   UNL     1      44.085 -10.946   7.318  1.00  0.00    -0.054 A 
HETATM    8  C   UNL     1      42.900 -10.292   6.954  1.00  0.00     0.007 A 
HETATM    9  C   UNL     1      41.902 -10.972   6.261  1.00  0.00     0.003 A 
HETATM   10  C   UNL     1      42.078 -12.306   5.900  1.00  0.00     0.029 A 
BRANCH   7  11
HETATM   11  C   UNL     1      45.215 -10.236   8.033  1.00  0.00     0.066 C 
BRANCH  11  12
HETATM   12  C   UNL     1      45.208 -10.393   9.560  1.00  0.00     0.239 C 
BRANCH  12  13
HETATM   13  N   UNL     1      43.822 -10.186  10.140  1.00  0.00    -0.071 N 
HETATM   14  H   UNL     1      43.139 -10.558   9.467  1.00  0.00     0.279 HD
HETATM   15  C   UNL     1      43.497  -8.713  10.346  1.00  0.00     0.235 C 
HETATM   16  C   UNL     1      43.600  -8.517  11.843  1.00  0.00     0.029 C 
HETATM   17  C   UNL     1      43.010  -9.803  12.382  1.00  0.00     0.029 C 
HETATM   18  C   UNL     1      43.607 -10.872  11.484  1.00  0.00     0.235 C 
ENDBRANCH  12  13
ENDBRANCH  11  12
ENDBRANCH   7  11
ENDBRANCH   2   5
BRANCH   1  19
HETATM   19  C   UNL     1      43.309 -16.777   5.737  1.00  0.00     0.065 A 
HETATM   20  C   UNL     1      43.321 -17.895   6.595  1.00  0.00     0.020 A 
HETATM   21  C   UNL     1      43.645 -19.168   6.129  1.00  0.00     0.001 A 
HETATM   22  C   UNL     1      43.977 -19.346   4.792  1.00  0.00     0.003 A 
HETATM   23  C   UNL     1      43.974 -18.252   3.926  1.00  0.00     0.038 A 
HETATM   24  C   UNL     1      43.616 -16.971   4.377  1.00  0.00     0.084 A 
BRANCH  24  25
HETATM   25  O   UNL     1      43.659 -15.894   3.526  1.00  0.00    -0.348 OA
BRANCH  25  26
HETATM   26  C   UNL     1      43.145 -16.134   2.207  1.00  0.00     0.207 C 
BRANCH  26  27
HETATM   27  C   UNL     1      42.084 -15.081   1.854  1.00  0.00     0.145 C 
HETATM   28  O   UNL     1      41.856 -14.249   3.007  1.00  0.00    -0.384 OA
HETATM   29  C   UNL     1      40.530 -14.497   3.503  1.00  0.00     0.168 C 
HETATM   30  C   UNL     1      40.025 -15.742   2.810  1.00  0.00     0.029 C 
HETATM   31  C   UNL     1      40.728 -15.662   1.477  1.00  0.00     0.036 C 
ENDBRANCH  26  27
ENDBRANCH  25  26
ENDBRANCH  24  25
ENDBRANCH   1  19
TORSDOF 8
ENDMDL
MODEL 5
REMARK VINA RESULT:      -7.9      3.386      7.345
REMARK  8 active torsions:
REMARK  status: ('A' for Active; 'I' for Inactive)
REMARK    1  A    between atoms: C_3  and  C_4 
REMARK       I    between atoms: C_4  and  N_5 
REMARK    2  A    between atoms: N_5  and  C_6 
REMARK    3  A    between atoms: C_8  and  C_9 
REMARK    4  A    between atoms: C_9  and  C_10 
REMARK    5  A    between atoms: C_10  and  N_11 
REMARK    6  A    between atoms: C_21  and  O_22 
REMARK    7  A    between atoms: O_22  and  C_23 
REMARK    8  A    between atoms: C_23  and  C_24 
ROOT
HETATM    1  C   UNL     1      42.104 -15.724   5.183  1.00  0.00     0.259 C 
HETATM    2  N   UNL     1      41.979 -14.457   4.641  1.00  0.00    -0.323 N 
HETATM    3  O   UNL     1      41.769 -16.036   6.322  1.00  0.00    -0.267 OA
HETATM    4  H   UNL     1      42.338 -14.345   3.699  1.00  0.00     0.169 HD
ENDROOT
BRANCH   2   5
HETATM    5  C   UNL     1      41.389 -13.322   5.244  1.00  0.00     0.035 A 
HETATM    6  C   UNL     1      42.242 -12.315   5.725  1.00  0.00     0.036 A 
HETATM    7  C   UNL     1      41.736 -11.138   6.315  1.00  0.00    -0.054 A 
HETATM    8  C   UNL     1      40.345 -10.980   6.394  1.00  0.00     0.007 A 
HETATM    9  C   UNL     1      39.493 -11.980   5.934  1.00  0.00     0.003 A 
HETATM   10  C   UNL     1      40.013 -13.142   5.367  1.00  0.00     0.029 A 
BRANCH   7  11
HETATM   11  C   UNL     1      42.700 -10.059   6.763  1.00  0.00     0.066 C 
BRANCH  11  12
HETATM   12  C   UNL     1      42.882  -9.951   8.284  1.00  0.00     0.239 C 
BRANCH  12  13
HETATM   13  N   UNL     1      44.245 -10.449   8.724  1.00  0.00    -0.071 N 
HETATM   14  H   UNL     1      44.106 -11.094   9.514  1.00  0.00     0.279 HD
HETATM   15  C   UNL     1      45.140  -9.320   9.216  1.00  0.00     0.235 C 
HETATM   16  C   UNL     1      46.137  -9.123   8.095  1.00  0.00     0.029 C 
HETATM   17  C   UNL     1      46.400 -10.542   7.637  1.00  0.00     0.029 C 
HETATM   18  C   UNL     1      45.020 -11.175   7.630  1.00  0.00     0.235 C 
ENDBRANCH  12  13
ENDBRANCH  11  12
ENDBRANCH   7  11
ENDBRANCH   2   5
BRANCH   1  19
HETATM   19  C   UNL     1      42.686 -16.798   4.305  1.00  0.00     0.065 A 
HETATM   20  C   UNL     1      43.777 -17.512   4.841  1.00  0.00     0.020 A 
HETATM   21  C   UNL     1      44.402 -18.532   4.126  1.00  0.00     0.001 A 
HETATM   22  C   UNL     1      43.953 -18.851   2.851  1.00  0.00     0.003 A 
HETATM   23  C   UNL     1      42.877 -18.155   2.300  1.00  0.00     0.038 A 
HETATM   24  C   UNL     1      42.218 -17.149   3.025  1.00  0.00     0.084 A 
BRANCH  24  25
HETATM   25  O   UNL     1      41.188 -16.440   2.456  1.00  0.00    -0.348 OA
BRANCH  25  26
HETATM   26  C   UNL     1      41.561 -15.583   1.367  1.00  0.00     0.207 C 
BRANCH  26  27
HETATM   27  C   UNL     1      40.337 -14.803   0.865  1.00  0.00     0.145 C 
HETATM   28  O   UNL     1      40.702 -14.089  -0.331  1.00  0.00    -0.384 OA
HETATM   29  C   UNL     1      40.692 -12.679  -0.050  1.00  0.00     0.168 C 
HETATM   30  C   UNL     1      40.605 -12.529   1.452  1.00  0.00     0.029 C 
HETATM   31  C   UNL     1      39.820 -13.757   1.842  1.00  0.00     0.036 C 
ENDBRANCH  26  27
ENDBRANCH  25  26
ENDBRANCH  24  25
ENDBRANCH   1  19
TORSDOF 8
ENDMDL
MODEL 6
REMARK VINA RESULT:      -7.8      4.913      9.287
REMARK  8 active torsions:
REMARK  status: ('A' for Active; 'I' for Inactive)
REMARK    1  A    between atoms: C_3  and  C_4 
REMARK       I    between atoms: C_4  and  N_5 
REMARK    2  A    between atoms: N_5  and  C_6 
REMARK    3  A    between atoms: C_8  and  C_9 
REMARK    4  A    between atoms: C_9  and  C_10 
REMARK    5  A    between atoms: C_10  and  N_11 
REMARK    6  A    between atoms: C_21  and  O_22 
REMARK    7  A    between atoms: O_22  and  C_23 
REMARK    8  A    between atoms: C_23  and  C_24 
ROOT
HETATM    1  C   UNL     1      43.552 -12.260   4.760  1.00  0.00     0.259 C 
HETATM    2  N   UNL     1      43.910 -12.512   6.073  1.00  0.00    -0.323 N 
HETATM    3  O   UNL     1      43.678 -11.179   4.193  1.00  0.00    -0.267 OA
HETATM    4  H   UNL     1      43.707 -13.445   6.412  1.00  0.00     0.169 HD
ENDROOT
BRANCH   2   5
HETATM    5  C   UNL     1      44.545 -11.623   6.972  1.00  0.00     0.035 A 
HETATM    6  C   UNL     1      43.869 -11.295   8.159  1.00  0.00     0.036 A 
HETATM    7  C   UNL     1      44.443 -10.439   9.122  1.00  0.00    -0.054 A 
HETATM    8  C   UNL     1      45.727  -9.933   8.880  1.00  0.00     0.007 A 
HETATM    9  C   UNL     1      46.397 -10.241   7.699  1.00  0.00     0.003 A 
HETATM   10  C   UNL     1      45.808 -11.077   6.752  1.00  0.00     0.029 A 
BRANCH   7  11
HETATM   11  C   UNL     1      43.694 -10.166  10.410  1.00  0.00     0.066 C 
BRANCH  11  12
HETATM   12  C   UNL     1      43.591  -8.682  10.792  1.00  0.00     0.239 C 
BRANCH  12  13
HETATM   13  N   UNL     1      42.321  -8.388  11.566  1.00  0.00    -0.071 N 
HETATM   14  H   UNL     1      41.829  -7.621  11.086  1.00  0.00     0.279 HD
HETATM   15  C   UNL     1      42.606  -7.921  12.986  1.00  0.00     0.235 C 
HETATM   16  C   UNL     1      42.250  -9.114  13.846  1.00  0.00     0.029 C 
HETATM   17  C   UNL     1      41.021  -9.662  13.152  1.00  0.00     0.029 C 
HETATM   18  C   UNL     1      41.377  -9.579  11.679  1.00  0.00     0.235 C 
ENDBRANCH  12  13
ENDBRANCH  11  12
ENDBRANCH   7  11
ENDBRANCH   2   5
BRANCH   1  19
HETATM   19  C   UNL     1      42.972 -13.402   3.971  1.00  0.00     0.065 A 
HETATM   20  C   UNL     1      43.283 -13.425   2.596  1.00  0.00     0.020 A 
HETATM   21  C   UNL     1      42.807 -14.433   1.758  1.00  0.00     0.001 A 
HETATM   22  C   UNL     1      41.997 -15.434   2.280  1.00  0.00     0.003 A 
HETATM   23  C   UNL     1      41.675 -15.428   3.637  1.00  0.00     0.038 A 
HETATM   24  C   UNL     1      42.177 -14.438   4.497  1.00  0.00     0.084 A 
BRANCH  24  25
HETATM   25  O   UNL     1      41.819 -14.417   5.822  1.00  0.00    -0.348 OA
BRANCH  25  26
HETATM   26  C   UNL     1      41.436 -15.686   6.374  1.00  0.00     0.207 C 
BRANCH  26  27
HETATM   27  C   UNL     1      42.582 -16.260   7.220  1.00  0.00     0.145 C 
HETATM   28  O   UNL     1      43.727 -15.396   7.096  1.00  0.00    -0.384 OA
HETATM   29  C   UNL     1      44.758 -16.093   6.376  1.00  0.00     0.168 C 
HETATM   30  C   UNL     1      44.120 -17.326   5.776  1.00  0.00     0.029 C 
HETATM   31  C   UNL     1      43.046 -17.644   6.786  1.00  0.00     0.036 C 
ENDBRANCH  26  27
ENDBRANCH  25  26
ENDBRANCH  24  25
ENDBRANCH   1  19
TORSDOF 8
ENDMDL
MODEL 7
REMARK VINA RESULT:      -7.8      1.291      2.037
REMARK  8 active torsions:
REMARK  status: ('A' for Active; 'I' for Inactive)
REMARK    1  A    between atoms: C_3  and  C_4 
REMARK       I    between atoms: C_4  and  N_5 
REMARK    2  A    between atoms: N_5  and  C_6 
REMARK    3  A    between atoms: C_8  and  C_9 
REMARK    4  A    between atoms: C_9  and  C_10 
REMARK    5  A    between atoms: C_10  and  N_11 
REMARK    6  A    between atoms: C_21  and  O_22 
REMARK    7  A    between atoms: O_22  and  C_23 
REMARK    8  A    between atoms: C_23  and  C_24 
ROOT
HETATM    1  C   UNL     1      42.628 -16.040   2.962  1.00  0.00     0.259 C 
HETATM    2  N   UNL     1      41.297 -15.661   2.931  1.00  0.00    -0.323 N 
HETATM    3  O   UNL     1      43.503 -15.589   2.229  1.00  0.00    -0.267 OA
HETATM    4  H   UNL     1      40.685 -16.153   3.572  1.00  0.00     0.169 HD
ENDROOT
BRANCH   2   5
HETATM    5  C   UNL     1      40.713 -14.655   2.126  1.00  0.00     0.035 A 
HETATM    6  C   UNL     1      40.373 -14.984   0.804  1.00  0.00     0.036 A 
HETATM    7  C   UNL     1      39.761 -14.048  -0.057  1.00  0.00    -0.054 A 
HETATM    8  C   UNL     1      39.473 -12.773   0.448  1.00  0.00     0.007 A 
HETATM    9  C   UNL     1      39.820 -12.433   1.752  1.00  0.00     0.003 A 
HETATM   10  C   UNL     1      40.438 -13.367   2.582  1.00  0.00     0.029 A 
BRANCH   7  11
HETATM   11  C   UNL     1      39.364 -14.477  -1.454  1.00  0.00     0.066 C 
BRANCH  11  12
HETATM   12  C   UNL     1      39.954 -13.617  -2.581  1.00  0.00     0.239 C 
BRANCH  12  13
HETATM   13  N   UNL     1      38.891 -12.774  -3.260  1.00  0.00    -0.071 N 
HETATM   14  H   UNL     1      38.886 -13.017  -4.260  1.00  0.00     0.279 HD
HETATM   15  C   UNL     1      39.187 -11.284  -3.159  1.00  0.00     0.235 C 
HETATM   16  C   UNL     1      38.203 -10.781  -2.125  1.00  0.00     0.029 C 
HETATM   17  C   UNL     1      36.958 -11.581  -2.441  1.00  0.00     0.029 C 
HETATM   18  C   UNL     1      37.489 -12.980  -2.699  1.00  0.00     0.235 C 
ENDBRANCH  12  13
ENDBRANCH  11  12
ENDBRANCH   7  11
ENDBRANCH   2   5
BRANCH   1  19
HETATM   19  C   UNL     1      43.028 -17.077   3.976  1.00  0.00     0.065 A 
HETATM   20  C   UNL     1      43.755 -18.178   3.481  1.00  0.00     0.020 A 
HETATM   21  C   UNL     1      44.184 -19.204   4.322  1.00  0.00     0.001 A 
HETATM   22  C   UNL     1      43.884 -19.153   5.676  1.00  0.00     0.003 A 
HETATM   23  C   UNL     1      43.163 -18.073   6.187  1.00  0.00     0.038 A 
HETATM   24  C   UNL     1      42.755 -17.017   5.355  1.00  0.00     0.084 A 
BRANCH  24  25
HETATM   25  O   UNL     1      42.009 -15.981   5.860  1.00  0.00    -0.348 OA
BRANCH  25  26
HETATM   26  C   UNL     1      42.651 -15.203   6.882  1.00  0.00     0.207 C 
BRANCH  26  27
HETATM   27  C   UNL     1      43.616 -14.191   6.247  1.00  0.00     0.145 C 
HETATM   28  O   UNL     1      44.155 -13.352   7.286  1.00  0.00    -0.384 OA
HETATM   29  C   UNL     1      43.649 -12.018   7.113  1.00  0.00     0.168 C 
HETATM   30  C   UNL     1      42.524 -12.099   6.106  1.00  0.00     0.029 C 
HETATM   31  C   UNL     1      42.965 -13.253   5.240  1.00  0.00     0.036 C 
ENDBRANCH  26  27
ENDBRANCH  25  26
ENDBRANCH  24  25
ENDBRANCH   1  19
TORSDOF 8
ENDMDL
MODEL 8
REMARK VINA RESULT:      -7.7      4.657      8.811
REMARK  8 active torsions:
REMARK  status: ('A' for Active; 'I' for Inactive)
REMARK    1  A    between atoms: C_3  and  C_4 
REMARK       I    between atoms: C_4  and  N_5 
REMARK    2  A    between atoms: N_5  and  C_6 
REMARK    3  A    between atoms: C_8  and  C_9 
REMARK    4  A    between atoms: C_9  and  C_10 
REMARK    5  A    between atoms: C_10  and  N_11 
REMARK    6  A    between atoms: C_21  and  O_22 
REMARK    7  A    between atoms: O_22  and  C_23 
REMARK    8  A    between atoms: C_23  and  C_24 
ROOT
HETATM    1  C   UNL     1      43.707 -12.365   7.043  1.00  0.00     0.259 C 
HETATM    2  N   UNL     1      43.154 -12.261   5.778  1.00  0.00    -0.323 N 
HETATM    3  O   UNL     1      43.561 -13.324   7.795  1.00  0.00    -0.267 OA
HETATM    4  H   UNL     1      43.330 -11.389   5.292  1.00  0.00     0.169 HD
ENDROOT
BRANCH   2   5
HETATM    5  C   UNL     1      42.398 -13.240   5.092  1.00  0.00     0.035 A 
HETATM    6  C   UNL     1      43.073 -14.375   4.613  1.00  0.00     0.036 A 
HETATM    7  C   UNL     1      42.390 -15.411   3.942  1.00  0.00    -0.054 A 
HETATM    8  C   UNL     1      41.003 -15.296   3.780  1.00  0.00     0.007 A 
HETATM    9  C   UNL     1      40.329 -14.168   4.238  1.00  0.00     0.003 A 
HETATM   10  C   UNL     1      41.023 -13.147   4.886  1.00  0.00     0.029 A 
BRANCH   7  11
HETATM   11  C   UNL     1      43.159 -16.639   3.499  1.00  0.00     0.066 C 
BRANCH  11  12
HETATM   12  C   UNL     1      43.690 -17.512   4.645  1.00  0.00     0.239 C 
BRANCH  12  13
HETATM   13  N   UNL     1      44.478 -18.700   4.128  1.00  0.00    -0.071 N 
HETATM   14  H   UNL     1      45.478 -18.500   4.263  1.00  0.00     0.279 HD
HETATM   15  C   UNL     1      44.262 -18.931   2.639  1.00  0.00     0.235 C 
HETATM   16  C   UNL     1      43.363 -20.147   2.580  1.00  0.00     0.029 C 
HETATM   17  C   UNL     1      43.900 -21.006   3.704  1.00  0.00     0.029 C 
HETATM   18  C   UNL     1      44.144 -20.013   4.826  1.00  0.00     0.235 C 
ENDBRANCH  12  13
ENDBRANCH  11  12
ENDBRANCH   7  11
ENDBRANCH   2   5
BRANCH   1  19
HETATM   19  C   UNL     1      44.554 -11.219   7.523  1.00  0.00     0.065 A 
HETATM   20  C   UNL     1      45.868 -11.165   7.016  1.00  0.00     0.020 A 
HETATM   21  C   UNL     1      46.750 -10.150   7.384  1.00  0.00     0.001 A 
HETATM   22  C   UNL     1      46.337  -9.172   8.279  1.00  0.00     0.003 A 
HETATM   23  C   UNL     1      45.041  -9.208   8.796  1.00  0.00     0.038 A 
HETATM   24  C   UNL     1      44.133 -10.206   8.405  1.00  0.00     0.084 A 
BRANCH  24  25
HETATM   25  O   UNL     1      42.875 -10.257   8.953  1.00  0.00    -0.348 OA
BRANCH  25  26
HETATM   26  C   UNL     1      42.335  -8.994   9.368  1.00  0.00     0.207 C 
BRANCH  26  27
HETATM   27  C   UNL     1      41.797  -9.095  10.803  1.00  0.00     0.145 C 
HETATM   28  O   UNL     1      41.418  -7.779  11.250  1.00  0.00    -0.384 OA
HETATM   29  C   UNL     1      42.317  -7.367  12.293  1.00  0.00     0.168 C 
HETATM   30  C   UNL     1      43.474  -8.341  12.289  1.00  0.00     0.029 C 
HETATM   31  C   UNL     1      42.810  -9.611  11.816  1.00  0.00     0.036 C 
ENDBRANCH  26  27
ENDBRANCH  25  26
ENDBRANCH  24  25
ENDBRANCH   1  19
TORSDOF 8
ENDMDL
MODEL 9
REMARK VINA RESULT:      -7.7      4.095      7.343
REMARK  8 active torsions:
REMARK  status: ('A' for Active; 'I' for Inactive)
REMARK    1  A    between atoms: C_3  and  C_4 
REMARK       I    between atoms: C_4  and  N_5 
REMARK    2  A    between atoms: N_5  and  C_6 
REMARK    3  A    between atoms: C_8  and  C_9 
REMARK    4  A    between atoms: C_9  and  C_10 
REMARK    5  A    between atoms: C_10  and  N_11 
REMARK    6  A    between atoms: C_21  and  O_22 
REMARK    7  A    between atoms: O_22  and  C_23 
REMARK    8  A    between atoms: C_23  and  C_24 
ROOT
HETATM    1  C   UNL     1      41.968 -13.002   3.408  1.00  0.00     0.259 C 
HETATM    2  N   UNL     1      40.935 -12.786   4.303  1.00  0.00    -0.323 N 
HETATM    3  O   UNL     1      42.653 -12.118   2.901  1.00  0.00    -0.267 OA
HETATM    4  H   UNL     1      40.435 -13.615   4.604  1.00  0.00     0.169 HD
ENDROOT
BRANCH   2   5
HETATM    5  C   UNL     1      40.525 -11.550   4.855  1.00  0.00     0.035 A 
HETATM    6  C   UNL     1      41.407 -10.896   5.731  1.00  0.00     0.036 A 
HETATM    7  C   UNL     1      41.087  -9.646   6.303  1.00  0.00    -0.054 A 
HETATM    8  C   UNL     1      39.866  -9.051   5.958  1.00  0.00     0.007 A 
HETATM    9  C   UNL     1      38.979  -9.700   5.103  1.00  0.00     0.003 A 
HETATM   10  C   UNL     1      39.306 -10.941   4.560  1.00  0.00     0.029 A 
BRANCH   7  11
HETATM   11  C   UNL     1      42.101  -8.958   7.193  1.00  0.00     0.066 C 
BRANCH  11  12
HETATM   12  C   UNL     1      41.987  -9.308   8.684  1.00  0.00     0.239 C 
BRANCH  12  13
HETATM   13  N   UNL     1      43.039 -10.317   9.106  1.00  0.00    -0.071 N 
HETATM   14  H   UNL     1      42.643 -11.258   8.978  1.00  0.00     0.279 HD
HETATM   15  C   UNL     1      43.411 -10.180  10.576  1.00  0.00     0.235 C 
HETATM   16  C   UNL     1      44.775  -9.527  10.553  1.00  0.00     0.029 C 
HETATM   17  C   UNL     1      45.436 -10.192   9.365  1.00  0.00     0.029 C 
HETATM   18  C   UNL     1      44.338 -10.220   8.316  1.00  0.00     0.235 C 
ENDBRANCH  12  13
ENDBRANCH  11  12
ENDBRANCH   7  11
ENDBRANCH   2   5
BRANCH   1  19
HETATM   19  C   UNL     1      42.276 -14.427   3.037  1.00  0.00     0.065 A 
HETATM   20  C   UNL     1      43.132 -14.607   1.932  1.00  0.00     0.020 A 
HETATM   21  C   UNL     1      43.494 -15.880   1.491  1.00  0.00     0.001 A 
HETATM   22  C   UNL     1      42.995 -16.999   2.143  1.00  0.00     0.003 A 
HETATM   23  C   UNL     1      42.145 -16.844   3.238  1.00  0.00     0.038 A 
HETATM   24  C   UNL     1      41.801 -15.567   3.713  1.00  0.00     0.084 A 
BRANCH  24  25
HETATM   25  O   UNL     1      40.929 -15.424   4.763  1.00  0.00    -0.348 OA
BRANCH  25  26
HETATM   26  C   UNL     1      41.077 -16.386   5.818  1.00  0.00     0.207 C 
BRANCH  26  27
HETATM   27  C   UNL     1      41.752 -15.736   7.035  1.00  0.00     0.145 C 
HETATM   28  O   UNL     1      41.999 -14.348   6.740  1.00  0.00    -0.384 OA
HETATM   29  C   UNL     1      43.418 -14.140   6.641  1.00  0.00     0.168 C 
HETATM   30  C   UNL     1      44.061 -15.507   6.580  1.00  0.00     0.029 C 
HETATM   31  C   UNL     1      43.103 -16.338   7.397  1.00  0.00     0.036 C 
ENDBRANCH  26  27
ENDBRANCH  25  26
ENDBRANCH  24  25
ENDBRANCH   1  19
TORSDOF 8
ENDMDL
MODEL 10
REMARK VINA RESULT:      -7.6      3.662      7.586
REMARK  8 active torsions:
REMARK  status: ('A' for Active; 'I' for Inactive)
REMARK    1  A    between atoms: C_3  and  C_4 
REMARK       I    between atoms: C_4  and  N_5 
REMARK    2  A    between atoms: N_5  and  C_6 
REMARK    3  A    between atoms: C_8  and  C_9 
REMARK    4  A    between atoms: C_9  and  C_10 
REMARK    5  A    between atoms: C_10  and  N_11 
REMARK    6  A    between atoms: C_21  and  O_22 
REMARK    7  A    between atoms: O_22  and  C_23 
REMARK    8  A    between atoms: C_23  and  C_24 
ROOT
HETATM    1  C   UNL     1      44.349 -12.048   7.111  1.00  0.00     0.259 C 
HETATM    2  N   UNL     1      43.269 -12.878   7.356  1.00  0.00    -0.323 N 
HETATM    3  O   UNL     1      45.347 -12.366   6.472  1.00  0.00    -0.267 OA
HETATM    4  H   UNL     1      42.535 -12.485   7.935  1.00  0.00     0.169 HD
ENDROOT
BRANCH   2   5
HETATM    5  C   UNL     1      43.071 -14.191   6.870  1.00  0.00     0.035 A 
HETATM    6  C   UNL     1      42.974 -14.371   5.481  1.00  0.00     0.036 A 
HETATM    7  C   UNL     1      42.805 -15.651   4.911  1.00  0.00    -0.054 A 
HETATM    8  C   UNL     1      42.759 -16.758   5.770  1.00  0.00     0.007 A 
HETATM    9  C   UNL     1      42.839 -16.587   7.149  1.00  0.00     0.003 A 
HETATM   10  C   UNL     1      42.991 -15.313   7.693  1.00  0.00     0.029 A 
BRANCH   7  11
HETATM   11  C   UNL     1      42.765 -15.792   3.404  1.00  0.00     0.066 C 
BRANCH  11  12
HETATM   12  C   UNL     1      42.796 -14.464   2.634  1.00  0.00     0.239 C 
BRANCH  12  13
HETATM   13  N   UNL     1      41.401 -13.990   2.276  1.00  0.00    -0.071 N 
HETATM   14  H   UNL     1      41.135 -13.255   2.945  1.00  0.00     0.279 HD
HETATM   15  C   UNL     1      40.367 -15.101   2.392  1.00  0.00     0.235 C 
HETATM   16  C   UNL     1      40.060 -15.472   0.957  1.00  0.00     0.029 C 
HETATM   17  C   UNL     1      40.077 -14.128   0.261  1.00  0.00     0.029 C 
HETATM   18  C   UNL     1      41.283 -13.430   0.863  1.00  0.00     0.235 C 
ENDBRANCH  12  13
ENDBRANCH  11  12
ENDBRANCH   7  11
ENDBRANCH   2   5
BRANCH   1  19
HETATM   19  C   UNL     1      44.286 -10.650   7.664  1.00  0.00     0.065 A 
HETATM   20  C   UNL     1      45.473 -10.163   8.249  1.00  0.00     0.020 A 
HETATM   21  C   UNL     1      45.543  -8.882   8.795  1.00  0.00     0.001 A 
HETATM   22  C   UNL     1      44.420  -8.065   8.776  1.00  0.00     0.003 A 
HETATM   23  C   UNL     1      43.235  -8.529   8.204  1.00  0.00     0.038 A 
HETATM   24  C   UNL     1      43.162  -9.805   7.620  1.00  0.00     0.084 A 
BRANCH  24  25
HETATM   25  O   UNL     1      41.979 -10.267   7.099  1.00  0.00    -0.348 OA
BRANCH  25  26
HETATM   26  C   UNL     1      41.637  -9.753   5.803  1.00  0.00     0.207 C 
BRANCH  26  27
HETATM   27  C   UNL     1      41.563 -10.900   4.784  1.00  0.00     0.145 C 
HETATM   28  O   UNL     1      41.397 -10.338   3.468  1.00  0.00    -0.384 OA
HETATM   29  C   UNL     1      40.084 -10.670   2.984  1.00  0.00     0.168 C 
HETATM   30  C   UNL     1      39.302 -11.205   4.162  1.00  0.00     0.029 C 
HETATM   31  C   UNL     1      40.388 -11.845   4.991  1.00  0.00     0.036 C 
ENDBRANCH  26  27
ENDBRANCH  25  26
ENDBRANCH  24  25
ENDBRANCH   1  19
TORSDOF 8
ENDMDL
