MODEL 1
REMARK VINA RESULT:      -8.0      0.000      0.000
REMARK  9 active torsions:
REMARK  status: ('A' for Active; 'I' for Inactive)
REMARK    1  A    between atoms: C_2  and  N_3 
REMARK    2  A    between atoms: C_2  and  C_23 
REMARK       I    between atoms: N_3  and  C_4 
REMARK       I    between atoms: C_4  and  N_5 
REMARK    3  A    between atoms: N_5  and  C_6 
REMARK    4  A    between atoms: C_6  and  C_7 
REMARK    5  A    between atoms: C_7  and  N_8 
REMARK    6  A    between atoms: C_7  and  C_14 
REMARK    7  A    between atoms: C_15  and  O_16 
REMARK    8  A    between atoms: C_23  and  C_24 
REMARK    9  A    between atoms: C_27  and  O_28 
ROOT
HETATM    1  N   UNL     1      41.609 -14.441   2.943  1.00  0.00    -0.339 N 
HETATM    2  C   UNL     1      40.664 -14.081   2.028  1.00  0.00     0.316 C 
HETATM    3  N   UNL     1      40.580 -12.714   1.880  1.00  0.00    -0.341 N 
HETATM    4  O   UNL     1      40.004 -14.849   1.346  1.00  0.00    -0.248 OA
HETATM    5  H   UNL     1      41.906 -13.726   3.592  1.00  0.00     0.164 HD
HETATM    6  H   UNL     1      40.768 -12.214   2.741  1.00  0.00     0.164 HD
ENDROOT
BRANCH   3   7
HETATM    7  C   UNL     1      39.498 -12.162   1.057  1.00  0.00     0.162 C 
BRANCH   7   8
HETATM    8  C   UNL     1      39.908 -11.906  -0.433  1.00  0.00     0.241 C 
BRANCH   8   9
HETATM    9  N   UNL     1      39.811 -10.392  -0.695  1.00  0.00    -0.061 N 
HETATM   10  H   UNL     1      38.790 -10.251  -0.732  1.00  0.00     0.280 HD
HETATM   11  C   UNL     1      40.405  -9.848  -1.953  1.00  0.00     0.236 C 
HETATM   12  C   UNL     1      41.768  -9.318  -1.555  1.00  0.00     0.029 C 
HETATM   13  C   UNL     1      41.718  -9.087  -0.051  1.00  0.00     0.029 C 
HETATM   14  C   UNL     1      40.337  -9.519   0.408  1.00  0.00     0.236 C 
ENDBRANCH   8   9
BRANCH   8  15
HETATM   15  C   UNL     1      39.206 -12.809  -1.436  1.00  0.00     0.007 A 
HETATM   16  C   UNL     1      37.876 -12.535  -1.827  1.00  0.00     0.076 A 
HETATM   17  C   UNL     1      37.223 -13.362  -2.747  1.00  0.00     0.037 A 
HETATM   18  C   UNL     1      37.887 -14.452  -3.309  1.00  0.00     0.003 A 
HETATM   19  C   UNL     1      39.201 -14.725  -2.950  1.00  0.00     0.001 A 
HETATM   20  C   UNL     1      39.856 -13.913  -2.022  1.00  0.00     0.012 A 
BRANCH  16  21
HETATM   21  O   UNL     1      37.273 -11.460  -1.227  1.00  0.00    -0.355 OA
HETATM   22  C   UNL     1      36.608 -10.538  -2.091  1.00  0.00     0.210 C 
ENDBRANCH  16  21
ENDBRANCH   8  15
ENDBRANCH   7   8
ENDBRANCH   3   7
BRANCH   1  23
HETATM   23  C   UNL     1      41.722 -15.804   3.479  1.00  0.00     0.086 C 
HETATM   24  C   UNL     1      40.772 -16.072   4.645  1.00  0.00     0.032 C 
BRANCH  23  25
HETATM   25  C   UNL     1      43.179 -16.162   3.850  1.00  0.00     0.063 C 
BRANCH  25  26
HETATM   26  C   UNL     1      43.463 -17.642   3.697  1.00  0.00    -0.056 A 
HETATM   27  C   UNL     1      43.180 -18.302   2.492  1.00  0.00     0.010 A 
HETATM   28  C   UNL     1      43.402 -19.676   2.365  1.00  0.00     0.037 A 
HETATM   29  C   UNL     1      43.906 -20.389   3.447  1.00  0.00     0.065 A 
HETATM   30  C   UNL     1      44.197 -19.752   4.647  1.00  0.00     0.037 A 
HETATM   31  C   UNL     1      43.982 -18.380   4.771  1.00  0.00     0.010 A 
BRANCH  29  32
HETATM   32  O   UNL     1      44.131 -21.731   3.372  1.00  0.00    -0.361 OA
HETATM   33  H   UNL     1      43.376 -22.201   3.762  1.00  0.00     0.217 HD
ENDBRANCH  29  32
ENDBRANCH  25  26
ENDBRANCH  23  25
ENDBRANCH   1  23
TORSDOF 9
ENDMDL
MODEL 2
REMARK VINA RESULT:      -7.9      2.691      4.251
REMARK  9 active torsions:
REMARK  status: ('A' for Active; 'I' for Inactive)
REMARK    1  A    between atoms: C_2  and  N_3 
REMARK    2  A    between atoms: C_2  and  C_23 
REMARK       I    between atoms: N_3  and  C_4 
REMARK       I    between atoms: C_4  and  N_5 
REMARK    3  A    between atoms: N_5  and  C_6 
REMARK    4  A    between atoms: C_6  and  C_7 
REMARK    5  A    between atoms: C_7  and  N_8 
REMARK    6  A    between atoms: C_7  and  C_14 
REMARK    7  A    between atoms: C_15  and  O_16 
REMARK    8  A    between atoms: C_23  and  C_24 
REMARK    9  A    between atoms: C_27  and  O_28 
ROOT
HETATM    1  N   UNL     1      40.945 -15.717   5.648  1.00  0.00    -0.339 N 
HETATM    2  C   UNL     1      40.901 -14.389   5.341  1.00  0.00     0.316 C 
HETATM    3  N   UNL     1      39.799 -14.070   4.579  1.00  0.00    -0.341 N 
HETATM    4  O   UNL     1      41.683 -13.540   5.739  1.00  0.00    -0.248 OA
HETATM    5  H   UNL     1      40.387 -16.333   5.074  1.00  0.00     0.164 HD
HETATM    6  H   UNL     1      39.529 -14.815   3.949  1.00  0.00     0.164 HD
ENDROOT
BRANCH   3   7
HETATM    7  C   UNL     1      39.695 -12.713   4.029  1.00  0.00     0.162 C 
BRANCH   7   8
HETATM    8  C   UNL     1      40.185 -12.596   2.546  1.00  0.00     0.241 C 
BRANCH   8   9
HETATM    9  N   UNL     1      38.942 -12.597   1.637  1.00  0.00    -0.061 N 
HETATM   10  H   UNL     1      38.564 -13.543   1.802  1.00  0.00     0.280 HD
HETATM   11  C   UNL     1      39.135 -12.420   0.167  1.00  0.00     0.236 C 
HETATM   12  C   UNL     1      38.871 -10.951  -0.097  1.00  0.00     0.029 C 
HETATM   13  C   UNL     1      38.044 -10.445   1.077  1.00  0.00     0.029 C 
HETATM   14  C   UNL     1      37.870 -11.619   2.023  1.00  0.00     0.236 C 
ENDBRANCH   8   9
BRANCH   8  15
HETATM   15  C   UNL     1      41.290 -13.573   2.176  1.00  0.00     0.007 A 
HETATM   16  C   UNL     1      42.645 -13.204   2.334  1.00  0.00     0.076 A 
HETATM   17  C   UNL     1      43.667 -14.096   1.994  1.00  0.00     0.037 A 
HETATM   18  C   UNL     1      43.360 -15.371   1.520  1.00  0.00     0.003 A 
HETATM   19  C   UNL     1      42.033 -15.757   1.376  1.00  0.00     0.001 A 
HETATM   20  C   UNL     1      41.007 -14.868   1.699  1.00  0.00     0.012 A 
BRANCH  16  21
HETATM   21  O   UNL     1      42.882 -11.932   2.789  1.00  0.00    -0.355 OA
HETATM   22  C   UNL     1      43.967 -11.774   3.703  1.00  0.00     0.210 C 
ENDBRANCH  16  21
ENDBRANCH   8  15
ENDBRANCH   7   8
ENDBRANCH   3   7
BRANCH   1  23
HETATM   23  C   UNL     1      42.134 -16.365   6.219  1.00  0.00     0.086 C 
HETATM   24  C   UNL     1      42.592 -15.730   7.532  1.00  0.00     0.032 C 
BRANCH  23  25
HETATM   25  C   UNL     1      43.295 -16.447   5.202  1.00  0.00     0.063 C 
BRANCH  25  26
HETATM   26  C   UNL     1      43.571 -17.868   4.758  1.00  0.00    -0.056 A 
HETATM   27  C   UNL     1      43.625 -18.192   3.394  1.00  0.00     0.010 A 
HETATM   28  C   UNL     1      43.837 -19.511   2.985  1.00  0.00     0.037 A 
HETATM   29  C   UNL     1      43.993 -20.507   3.943  1.00  0.00     0.065 A 
HETATM   30  C   UNL     1      43.948 -20.205   5.298  1.00  0.00     0.037 A 
HETATM   31  C   UNL     1      43.743 -18.887   5.707  1.00  0.00     0.010 A 
BRANCH  29  32
HETATM   32  O   UNL     1      44.194 -21.808   3.591  1.00  0.00    -0.361 OA
HETATM   33  H   UNL     1      43.333 -22.248   3.499  1.00  0.00     0.217 HD
ENDBRANCH  29  32
ENDBRANCH  25  26
ENDBRANCH  23  25
ENDBRANCH   1  23
TORSDOF 9
ENDMDL
MODEL 3
REMARK VINA RESULT:      -7.9      1.720      2.774
REMARK  9 active torsions:
REMARK  status: ('A' for Active; 'I' for Inactive)
REMARK    1  A    between atoms: C_2  and  N_3 
REMARK    2  A    between atoms: C_2  and  C_23 
REMARK       I    between atoms: N_3  and  C_4 
REMARK       I    between atoms: C_4  and  N_5 
REMARK    3  A    between atoms: N_5  and  C_6 
REMARK    4  A    between atoms: C_6  and  C_7 
REMARK    5  A    between atoms: C_7  and  N_8 
REMARK    6  A    between atoms: C_7  and  C_14 
REMARK    7  A    between atoms: C_15  and  O_16 
REMARK    8  A    between atoms: C_23  and  C_24 
REMARK    9  A    between atoms: C_27  and  O_28 
ROOT
HETATM    1  N   UNL     1      41.796 -14.988   4.699  1.00  0.00    -0.339 N 
HETATM    2  C   UNL     1      41.068 -15.161   3.558  1.00  0.00     0.316 C 
HETATM    3  N   UNL     1      40.633 -13.963   3.035  1.00  0.00    -0.341 N 
HETATM    4  O   UNL     1      40.871 -16.225   2.994  1.00  0.00    -0.248 OA
HETATM    5  H   UNL     1      41.686 -14.105   5.176  1.00  0.00     0.164 HD
HETATM    6  H   UNL     1      40.428 -13.275   3.750  1.00  0.00     0.164 HD
ENDROOT
BRANCH   3   7
HETATM    7  C   UNL     1      39.699 -13.990   1.903  1.00  0.00     0.162 C 
BRANCH   7   8
HETATM    8  C   UNL     1      39.651 -12.649   1.095  1.00  0.00     0.241 C 
BRANCH   8   9
HETATM    9  N   UNL     1      38.286 -11.987   1.363  1.00  0.00    -0.061 N 
HETATM   10  H   UNL     1      37.736 -12.782   1.723  1.00  0.00     0.280 HD
HETATM   11  C   UNL     1      37.547 -11.389   0.212  1.00  0.00     0.236 C 
HETATM   12  C   UNL     1      37.861  -9.906   0.263  1.00  0.00     0.029 C 
HETATM   13  C   UNL     1      38.313  -9.611   1.686  1.00  0.00     0.029 C 
HETATM   14  C   UNL     1      38.288 -10.933   2.432  1.00  0.00     0.236 C 
ENDBRANCH   8   9
BRANCH   8  15
HETATM   15  C   UNL     1      40.057 -12.786  -0.364  1.00  0.00     0.007 A 
HETATM   16  C   UNL     1      40.896 -11.816  -0.959  1.00  0.00     0.076 A 
HETATM   17  C   UNL     1      41.272 -11.934  -2.301  1.00  0.00     0.037 A 
HETATM   18  C   UNL     1      40.846 -13.023  -3.060  1.00  0.00     0.003 A 
HETATM   19  C   UNL     1      40.037 -13.995  -2.485  1.00  0.00     0.001 A 
HETATM   20  C   UNL     1      39.644 -13.878  -1.150  1.00  0.00     0.012 A 
BRANCH  16  21
HETATM   21  O   UNL     1      41.268 -10.762  -0.167  1.00  0.00    -0.355 OA
HETATM   22  C   UNL     1      41.792  -9.615  -0.836  1.00  0.00     0.210 C 
ENDBRANCH  16  21
ENDBRANCH   8  15
ENDBRANCH   7   8
ENDBRANCH   3   7
BRANCH   1  23
HETATM   23  C   UNL     1      42.154 -16.098   5.592  1.00  0.00     0.086 C 
HETATM   24  C   UNL     1      41.849 -15.808   7.062  1.00  0.00     0.032 C 
BRANCH  23  25
HETATM   25  C   UNL     1      43.620 -16.546   5.402  1.00  0.00     0.063 C 
BRANCH  25  26
HETATM   26  C   UNL     1      43.724 -17.957   4.859  1.00  0.00    -0.056 A 
HETATM   27  C   UNL     1      43.836 -19.050   5.732  1.00  0.00     0.010 A 
HETATM   28  C   UNL     1      43.975 -20.347   5.230  1.00  0.00     0.037 A 
HETATM   29  C   UNL     1      44.004 -20.548   3.855  1.00  0.00     0.065 A 
HETATM   30  C   UNL     1      43.890 -19.479   2.976  1.00  0.00     0.037 A 
HETATM   31  C   UNL     1      43.744 -18.185   3.476  1.00  0.00     0.010 A 
BRANCH  29  32
HETATM   32  O   UNL     1      44.146 -21.794   3.321  1.00  0.00    -0.361 OA
HETATM   33  H   UNL     1      43.844 -21.780   2.398  1.00  0.00     0.217 HD
ENDBRANCH  29  32
ENDBRANCH  25  26
ENDBRANCH  23  25
ENDBRANCH   1  23
TORSDOF 9
ENDMDL
MODEL 4
REMARK VINA RESULT:      -7.9      1.444      2.458
REMARK  9 active torsions:
REMARK  status: ('A' for Active; 'I' for Inactive)
REMARK    1  A    between atoms: C_2  and  N_3 
REMARK    2  A    between atoms: C_2  and  C_23 
REMARK       I    between atoms: N_3  and  C_4 
REMARK       I    between atoms: C_4  and  N_5 
REMARK    3  A    between atoms: N_5  and  C_6 
REMARK    4  A    between atoms: C_6  and  C_7 
REMARK    5  A    between atoms: C_7  and  N_8 
REMARK    6  A    between atoms: C_7  and  C_14 
REMARK    7  A    between atoms: C_15  and  O_16 
REMARK    8  A    between atoms: C_23  and  C_24 
REMARK    9  A    between atoms: C_27  and  O_28 
ROOT
HETATM    1  N   UNL     1      41.791 -15.096   1.906  1.00  0.00    -0.339 N 
HETATM    2  C   UNL     1      40.702 -15.200   1.092  1.00  0.00     0.316 C 
HETATM    3  N   UNL     1      40.762 -14.324   0.031  1.00  0.00    -0.341 N 
HETATM    4  O   UNL     1      39.799 -16.013   1.211  1.00  0.00    -0.248 OA
HETATM    5  H   UNL     1      42.331 -14.245   1.832  1.00  0.00     0.164 HD
HETATM    6  H   UNL     1      41.222 -13.452   0.268  1.00  0.00     0.164 HD
ENDROOT
BRANCH   3   7
HETATM    7  C   UNL     1      39.589 -14.197  -0.842  1.00  0.00     0.162 C 
BRANCH   7   8
HETATM    8  C   UNL     1      39.396 -12.760  -1.433  1.00  0.00     0.241 C 
BRANCH   8   9
HETATM    9  N   UNL     1      40.793 -12.164  -1.689  1.00  0.00    -0.061 N 
HETATM   10  H   UNL     1      41.404 -12.872  -1.255  1.00  0.00     0.280 HD
HETATM   11  C   UNL     1      41.119 -10.835  -1.091  1.00  0.00     0.236 C 
HETATM   12  C   UNL     1      40.893  -9.830  -2.203  1.00  0.00     0.029 C 
HETATM   13  C   UNL     1      40.960 -10.611  -3.508  1.00  0.00     0.029 C 
HETATM   14  C   UNL     1      41.189 -12.064  -3.133  1.00  0.00     0.236 C 
ENDBRANCH   8   9
BRANCH   8  15
HETATM   15  C   UNL     1      38.425 -11.890  -0.650  1.00  0.00     0.007 A 
HETATM   16  C   UNL     1      37.498 -11.070  -1.333  1.00  0.00     0.076 A 
HETATM   17  C   UNL     1      36.604 -10.265  -0.619  1.00  0.00     0.037 A 
HETATM   18  C   UNL     1      36.599 -10.282   0.775  1.00  0.00     0.003 A 
HETATM   19  C   UNL     1      37.491 -11.096   1.462  1.00  0.00     0.001 A 
HETATM   20  C   UNL     1      38.397 -11.892   0.758  1.00  0.00     0.012 A 
BRANCH  16  21
HETATM   21  O   UNL     1      37.564 -11.085  -2.702  1.00  0.00    -0.355 OA
HETATM   22  C   UNL     1      37.122  -9.906  -3.374  1.00  0.00     0.210 C 
ENDBRANCH  16  21
ENDBRANCH   8  15
ENDBRANCH   7   8
ENDBRANCH   3   7
BRANCH   1  23
HETATM   23  C   UNL     1      41.857 -15.719   3.234  1.00  0.00     0.086 C 
HETATM   24  C   UNL     1      41.196 -14.878   4.327  1.00  0.00     0.032 C 
BRANCH  23  25
HETATM   25  C   UNL     1      43.301 -16.106   3.623  1.00  0.00     0.063 C 
BRANCH  25  26
HETATM   26  C   UNL     1      43.538 -17.600   3.540  1.00  0.00    -0.056 A 
HETATM   27  C   UNL     1      43.166 -18.319   2.393  1.00  0.00     0.010 A 
HETATM   28  C   UNL     1      43.345 -19.703   2.334  1.00  0.00     0.037 A 
HETATM   29  C   UNL     1      43.895 -20.369   3.424  1.00  0.00     0.065 A 
HETATM   30  C   UNL     1      44.273 -19.673   4.566  1.00  0.00     0.037 A 
HETATM   31  C   UNL     1      44.102 -18.291   4.623  1.00  0.00     0.010 A 
BRANCH  29  32
HETATM   32  O   UNL     1      44.080 -21.718   3.415  1.00  0.00    -0.361 OA
HETATM   33  H   UNL     1      43.443 -22.122   2.802  1.00  0.00     0.217 HD
ENDBRANCH  29  32
ENDBRANCH  25  26
ENDBRANCH  23  25
ENDBRANCH   1  23
TORSDOF 9
ENDMDL
MODEL 5
REMARK VINA RESULT:      -7.8      1.399      2.274
REMARK  9 active torsions:
REMARK  status: ('A' for Active; 'I' for Inactive)
REMARK    1  A    between atoms: C_2  and  N_3 
REMARK    2  A    between atoms: C_2  and  C_23 
REMARK       I    between atoms: N_3  and  C_4 
REMARK       I    between atoms: C_4  and  N_5 
REMARK    3  A    between atoms: N_5  and  C_6 
REMARK    4  A    between atoms: C_6  and  C_7 
REMARK    5  A    between atoms: C_7  and  N_8 
REMARK    6  A    between atoms: C_7  and  C_14 
REMARK    7  A    between atoms: C_15  and  O_16 
REMARK    8  A    between atoms: C_23  and  C_24 
REMARK    9  A    between atoms: C_27  and  O_28 
ROOT
HETATM    1  N   UNL     1      40.219 -15.511   3.847  1.00  0.00    -0.339 N 
HETATM    2  C   UNL     1      40.240 -14.225   3.394  1.00  0.00     0.316 C 
HETATM    3  N   UNL     1      39.205 -13.967   2.522  1.00  0.00    -0.341 N 
HETATM    4  O   UNL     1      41.018 -13.355   3.754  1.00  0.00    -0.248 OA
HETATM    5  H   UNL     1      39.684 -16.174   3.304  1.00  0.00     0.164 HD
HETATM    6  H   UNL     1      38.957 -14.771   1.958  1.00  0.00     0.164 HD
ENDROOT
BRANCH   3   7
HETATM    7  C   UNL     1      39.185 -12.678   1.820  1.00  0.00     0.162 C 
BRANCH   7   8
HETATM    8  C   UNL     1      39.563 -12.781   0.304  1.00  0.00     0.241 C 
BRANCH   8   9
HETATM    9  N   UNL     1      40.995 -12.241   0.137  1.00  0.00    -0.061 N 
HETATM   10  H   UNL     1      41.558 -13.094   0.278  1.00  0.00     0.280 HD
HETATM   11  C   UNL     1      41.478 -11.200   1.093  1.00  0.00     0.236 C 
HETATM   12  C   UNL     1      41.293  -9.879   0.373  1.00  0.00     0.029 C 
HETATM   13  C   UNL     1      41.217 -10.206  -1.112  1.00  0.00     0.029 C 
HETATM   14  C   UNL     1      41.324 -11.715  -1.230  1.00  0.00     0.236 C 
ENDBRANCH   8   9
BRANCH   8  15
HETATM   15  C   UNL     1      38.515 -12.211  -0.640  1.00  0.00     0.007 A 
HETATM   16  C   UNL     1      38.163 -12.912  -1.815  1.00  0.00     0.076 A 
HETATM   17  C   UNL     1      37.202 -12.393  -2.689  1.00  0.00     0.037 A 
HETATM   18  C   UNL     1      36.560 -11.191  -2.396  1.00  0.00     0.003 A 
HETATM   19  C   UNL     1      36.880 -10.498  -1.235  1.00  0.00     0.001 A 
HETATM   20  C   UNL     1      37.849 -11.001  -0.365  1.00  0.00     0.012 A 
BRANCH  16  21
HETATM   21  O   UNL     1      38.841 -14.079  -2.055  1.00  0.00    -0.355 OA
HETATM   22  C   UNL     1      38.354 -14.891  -3.123  1.00  0.00     0.210 C 
ENDBRANCH  16  21
ENDBRANCH   8  15
ENDBRANCH   7   8
ENDBRANCH   3   7
BRANCH   1  23
HETATM   23  C   UNL     1      41.343 -16.119   4.573  1.00  0.00     0.086 C 
HETATM   24  C   UNL     1      41.642 -15.430   5.904  1.00  0.00     0.032 C 
BRANCH  23  25
HETATM   25  C   UNL     1      42.612 -16.221   3.697  1.00  0.00     0.063 C 
BRANCH  25  26
HETATM   26  C   UNL     1      43.080 -17.651   3.527  1.00  0.00    -0.056 A 
HETATM   27  C   UNL     1      42.844 -18.342   2.329  1.00  0.00     0.010 A 
HETATM   28  C   UNL     1      43.238 -19.674   2.188  1.00  0.00     0.037 A 
HETATM   29  C   UNL     1      43.867 -20.317   3.248  1.00  0.00     0.065 A 
HETATM   30  C   UNL     1      44.113 -19.649   4.441  1.00  0.00     0.037 A 
HETATM   31  C   UNL     1      43.727 -18.316   4.580  1.00  0.00     0.010 A 
BRANCH  29  32
HETATM   32  O   UNL     1      44.261 -21.619   3.159  1.00  0.00    -0.361 OA
HETATM   33  H   UNL     1      43.683 -22.083   2.532  1.00  0.00     0.217 HD
ENDBRANCH  29  32
ENDBRANCH  25  26
ENDBRANCH  23  25
ENDBRANCH   1  23
TORSDOF 9
ENDMDL
MODEL 6
REMARK VINA RESULT:      -7.7      1.370      3.041
REMARK  9 active torsions:
REMARK  status: ('A' for Active; 'I' for Inactive)
REMARK    1  A    between atoms: C_2  and  N_3 
REMARK    2  A    between atoms: C_2  and  C_23 
REMARK       I    between atoms: N_3  and  C_4 
REMARK       I    between atoms: C_4  and  N_5 
REMARK    3  A    between atoms: N_5  and  C_6 
REMARK    4  A    between atoms: C_6  and  C_7 
REMARK    5  A    between atoms: C_7  and  N_8 
REMARK    6  A    between atoms: C_7  and  C_14 
REMARK    7  A    between atoms: C_15  and  O_16 
REMARK    8  A    between atoms: C_23  and  C_24 
REMARK    9  A    between atoms: C_27  and  O_28 
ROOT
HETATM    1  N   UNL     1      41.484 -14.550   3.298  1.00  0.00    -0.339 N 
HETATM    2  C   UNL     1      41.596 -14.356   1.952  1.00  0.00     0.316 C 
HETATM    3  N   UNL     1      41.152 -13.110   1.570  1.00  0.00    -0.341 N 
HETATM    4  O   UNL     1      42.095 -15.138   1.159  1.00  0.00    -0.248 OA
HETATM    5  H   UNL     1      40.852 -13.937   3.792  1.00  0.00     0.164 HD
HETATM    6  H   UNL     1      40.381 -12.777   2.138  1.00  0.00     0.164 HD
ENDROOT
BRANCH   3   7
HETATM    7  C   UNL     1      41.052 -12.809   0.137  1.00  0.00     0.162 C 
BRANCH   7   8
HETATM    8  C   UNL     1      39.682 -12.175  -0.280  1.00  0.00     0.241 C 
BRANCH   8   9
HETATM    9  N   UNL     1      38.748 -13.318  -0.720  1.00  0.00    -0.061 N 
HETATM   10  H   UNL     1      38.240 -13.521   0.155  1.00  0.00     0.280 HD
HETATM   11  C   UNL     1      39.362 -14.588  -1.210  1.00  0.00     0.236 C 
HETATM   12  C   UNL     1      39.340 -14.485  -2.722  1.00  0.00     0.029 C 
HETATM   13  C   UNL     1      38.278 -13.450  -3.068  1.00  0.00     0.029 C 
HETATM   14  C   UNL     1      37.722 -12.943  -1.750  1.00  0.00     0.236 C 
ENDBRANCH   8   9
BRANCH   8  15
HETATM   15  C   UNL     1      39.804 -10.999  -1.236  1.00  0.00     0.007 A 
HETATM   16  C   UNL     1      39.010  -9.846  -1.047  1.00  0.00     0.076 A 
HETATM   17  C   UNL     1      39.116  -8.762  -1.924  1.00  0.00     0.037 A 
HETATM   18  C   UNL     1      40.025  -8.795  -2.980  1.00  0.00     0.003 A 
HETATM   19  C   UNL     1      40.827  -9.914  -3.170  1.00  0.00     0.001 A 
HETATM   20  C   UNL     1      40.718 -11.007  -2.308  1.00  0.00     0.012 A 
BRANCH  16  21
HETATM   21  O   UNL     1      38.124  -9.880  -0.001  1.00  0.00    -0.355 OA
HETATM   22  C   UNL     1      37.694  -8.619   0.511  1.00  0.00     0.210 C 
ENDBRANCH  16  21
ENDBRANCH   8  15
ENDBRANCH   7   8
ENDBRANCH   3   7
BRANCH   1  23
HETATM   23  C   UNL     1      41.638 -15.867   3.929  1.00  0.00     0.086 C 
HETATM   24  C   UNL     1      40.785 -16.035   5.186  1.00  0.00     0.032 C 
BRANCH  23  25
HETATM   25  C   UNL     1      43.119 -16.208   4.209  1.00  0.00     0.063 C 
BRANCH  25  26
HETATM   26  C   UNL     1      43.434 -17.665   3.944  1.00  0.00    -0.056 A 
HETATM   27  C   UNL     1      43.197 -18.228   2.680  1.00  0.00     0.010 A 
HETATM   28  C   UNL     1      43.447 -19.583   2.448  1.00  0.00     0.037 A 
HETATM   29  C   UNL     1      43.932 -20.375   3.482  1.00  0.00     0.065 A 
HETATM   30  C   UNL     1      44.178 -19.835   4.739  1.00  0.00     0.037 A 
HETATM   31  C   UNL     1      43.935 -18.481   4.969  1.00  0.00     0.010 A 
BRANCH  29  32
HETATM   32  O   UNL     1      44.183 -21.703   3.305  1.00  0.00    -0.361 OA
HETATM   33  H   UNL     1      43.548 -22.062   2.664  1.00  0.00     0.217 HD
ENDBRANCH  29  32
ENDBRANCH  25  26
ENDBRANCH  23  25
ENDBRANCH   1  23
TORSDOF 9
ENDMDL
MODEL 7
REMARK VINA RESULT:      -7.6      1.416      3.785
REMARK  9 active torsions:
REMARK  status: ('A' for Active; 'I' for Inactive)
REMARK    1  A    between atoms: C_2  and  N_3 
REMARK    2  A    between atoms: C_2  and  C_23 
REMARK       I    between atoms: N_3  and  C_4 
REMARK       I    between atoms: C_4  and  N_5 
REMARK    3  A    between atoms: N_5  and  C_6 
REMARK    4  A    between atoms: C_6  and  C_7 
REMARK    5  A    between atoms: C_7  and  N_8 
REMARK    6  A    between atoms: C_7  and  C_14 
REMARK    7  A    between atoms: C_15  and  O_16 
REMARK    8  A    between atoms: C_23  and  C_24 
REMARK    9  A    between atoms: C_27  and  O_28 
ROOT
HETATM    1  N   UNL     1      40.565 -15.636   2.942  1.00  0.00    -0.339 N 
HETATM    2  C   UNL     1      40.769 -14.694   1.977  1.00  0.00     0.316 C 
HETATM    3  N   UNL     1      39.854 -14.795   0.953  1.00  0.00    -0.341 N 
HETATM    4  O   UNL     1      41.603 -13.803   2.018  1.00  0.00    -0.248 OA
HETATM    5  H   UNL     1      40.012 -16.440   2.680  1.00  0.00     0.164 HD
HETATM    6  H   UNL     1      39.572 -15.751   0.772  1.00  0.00     0.164 HD
ENDROOT
BRANCH   3   7
HETATM    7  C   UNL     1      40.042 -13.960  -0.240  1.00  0.00     0.162 C 
BRANCH   7   8
HETATM    8  C   UNL     1      38.964 -12.834  -0.395  1.00  0.00     0.241 C 
BRANCH   8   9
HETATM    9  N   UNL     1      38.848 -12.497  -1.894  1.00  0.00    -0.061 N 
HETATM   10  H   UNL     1      39.474 -11.681  -1.973  1.00  0.00     0.280 HD
HETATM   11  C   UNL     1      37.510 -12.114  -2.435  1.00  0.00     0.236 C 
HETATM   12  C   UNL     1      36.953 -13.380  -3.055  1.00  0.00     0.029 C 
HETATM   13  C   UNL     1      38.145 -14.287  -3.326  1.00  0.00     0.029 C 
HETATM   14  C   UNL     1      39.374 -13.549  -2.826  1.00  0.00     0.236 C 
ENDBRANCH   8   9
BRANCH   8  15
HETATM   15  C   UNL     1      39.154 -11.656   0.547  1.00  0.00     0.007 A 
HETATM   16  C   UNL     1      40.128 -10.671   0.264  1.00  0.00     0.076 A 
HETATM   17  C   UNL     1      40.310  -9.587   1.128  1.00  0.00     0.037 A 
HETATM   18  C   UNL     1      39.514  -9.449   2.264  1.00  0.00     0.003 A 
HETATM   19  C   UNL     1      38.539 -10.398   2.548  1.00  0.00     0.001 A 
HETATM   20  C   UNL     1      38.361 -11.492   1.699  1.00  0.00     0.012 A 
BRANCH  16  21
HETATM   21  O   UNL     1      40.889 -10.871  -0.858  1.00  0.00    -0.355 OA
HETATM   22  C   UNL     1      41.777  -9.815  -1.223  1.00  0.00     0.210 C 
ENDBRANCH  16  21
ENDBRANCH   8  15
ENDBRANCH   7   8
ENDBRANCH   3   7
BRANCH   1  23
HETATM   23  C   UNL     1      41.543 -15.918   4.002  1.00  0.00     0.086 C 
HETATM   24  C   UNL     1      41.608 -14.823   5.066  1.00  0.00     0.032 C 
BRANCH  23  25
HETATM   25  C   UNL     1      42.945 -16.226   3.430  1.00  0.00     0.063 C 
BRANCH  25  26
HETATM   26  C   UNL     1      43.261 -17.708   3.452  1.00  0.00    -0.056 A 
HETATM   27  C   UNL     1      43.844 -18.296   4.585  1.00  0.00     0.010 A 
HETATM   28  C   UNL     1      44.175 -19.653   4.589  1.00  0.00     0.037 A 
HETATM   29  C   UNL     1      43.925 -20.421   3.457  1.00  0.00     0.065 A 
HETATM   30  C   UNL     1      43.344 -19.857   2.328  1.00  0.00     0.037 A 
HETATM   31  C   UNL     1      43.007 -18.504   2.326  1.00  0.00     0.010 A 
BRANCH  29  32
HETATM   32  O   UNL     1      44.238 -21.747   3.413  1.00  0.00    -0.361 OA
HETATM   33  H   UNL     1      44.507 -22.039   4.299  1.00  0.00     0.217 HD
ENDBRANCH  29  32
ENDBRANCH  25  26
ENDBRANCH  23  25
ENDBRANCH   1  23
TORSDOF 9
ENDMDL
MODEL 8
REMARK VINA RESULT:      -7.5      6.033      9.092
REMARK  9 active torsions:
REMARK  status: ('A' for Active; 'I' for Inactive)
REMARK    1  A    between atoms: C_2  and  N_3 
REMARK    2  A    between atoms: C_2  and  C_23 
REMARK       I    between atoms: N_3  and  C_4 
REMARK       I    between atoms: C_4  and  N_5 
REMARK    3  A    between atoms: N_5  and  C_6 
REMARK    4  A    between atoms: C_6  and  C_7 
REMARK    5  A    between atoms: C_7  and  N_8 
REMARK    6  A    between atoms: C_7  and  C_14 
REMARK    7  A    between atoms: C_15  and  O_16 
REMARK    8  A    between atoms: C_23  and  C_24 
REMARK    9  A    between atoms: C_27  and  O_28 
ROOT
HETATM    1  N   UNL     1      43.584 -11.774   7.293  1.00  0.00    -0.339 N 
HETATM    2  C   UNL     1      42.556 -11.698   6.400  1.00  0.00     0.316 C 
HETATM    3  N   UNL     1      41.747 -12.812   6.445  1.00  0.00    -0.341 N 
HETATM    4  O   UNL     1      42.304 -10.742   5.684  1.00  0.00    -0.248 OA
HETATM    5  H   UNL     1      43.811 -12.694   7.644  1.00  0.00     0.164 HD
HETATM    6  H   UNL     1      42.258 -13.659   6.663  1.00  0.00     0.164 HD
ENDROOT
BRANCH   3   7
HETATM    7  C   UNL     1      40.695 -12.956   5.432  1.00  0.00     0.162 C 
BRANCH   7   8
HETATM    8  C   UNL     1      41.065 -13.948   4.277  1.00  0.00     0.241 C 
BRANCH   8   9
HETATM    9  N   UNL     1      39.788 -14.217   3.460  1.00  0.00    -0.061 N 
HETATM   10  H   UNL     1      39.116 -14.472   4.200  1.00  0.00     0.280 HD
HETATM   11  C   UNL     1      39.809 -15.315   2.448  1.00  0.00     0.236 C 
HETATM   12  C   UNL     1      40.070 -14.631   1.121  1.00  0.00     0.029 C 
HETATM   13  C   UNL     1      39.676 -13.172   1.305  1.00  0.00     0.029 C 
HETATM   14  C   UNL     1      39.224 -13.023   2.746  1.00  0.00     0.236 C 
ENDBRANCH   8   9
BRANCH   8  15
HETATM   15  C   UNL     1      41.843 -15.173   4.733  1.00  0.00     0.007 A 
HETATM   16  C   UNL     1      42.999 -15.581   4.030  1.00  0.00     0.076 A 
HETATM   17  C   UNL     1      43.717 -16.708   4.442  1.00  0.00     0.037 A 
HETATM   18  C   UNL     1      43.317 -17.426   5.568  1.00  0.00     0.003 A 
HETATM   19  C   UNL     1      42.194 -17.027   6.282  1.00  0.00     0.001 A 
HETATM   20  C   UNL     1      41.462 -15.913   5.870  1.00  0.00     0.012 A 
BRANCH  16  21
HETATM   21  O   UNL     1      43.331 -14.844   2.923  1.00  0.00    -0.355 OA
HETATM   22  C   UNL     1      43.511 -15.568   1.706  1.00  0.00     0.210 C 
ENDBRANCH  16  21
ENDBRANCH   8  15
ENDBRANCH   7   8
ENDBRANCH   3   7
BRANCH   1  23
HETATM   23  C   UNL     1      44.729 -10.855   7.272  1.00  0.00     0.086 C 
HETATM   24  C   UNL     1      45.850 -11.312   6.338  1.00  0.00     0.032 C 
BRANCH  23  25
HETATM   25  C   UNL     1      45.267 -10.564   8.691  1.00  0.00     0.063 C 
BRANCH  25  26
HETATM   26  C   UNL     1      44.467  -9.491   9.400  1.00  0.00    -0.056 A 
HETATM   27  C   UNL     1      43.974  -8.384   8.692  1.00  0.00     0.010 A 
HETATM   28  C   UNL     1      43.273  -7.373   9.354  1.00  0.00     0.037 A 
HETATM   29  C   UNL     1      43.067  -7.469  10.726  1.00  0.00     0.065 A 
HETATM   30  C   UNL     1      43.543  -8.560  11.443  1.00  0.00     0.037 A 
HETATM   31  C   UNL     1      44.236  -9.574  10.781  1.00  0.00     0.010 A 
BRANCH  29  32
HETATM   32  O   UNL     1      42.396  -6.504  11.415  1.00  0.00    -0.361 OA
HETATM   33  H   UNL     1      42.129  -5.802  10.799  1.00  0.00     0.217 HD
ENDBRANCH  29  32
ENDBRANCH  25  26
ENDBRANCH  23  25
ENDBRANCH   1  23
TORSDOF 9
ENDMDL
MODEL 9
REMARK VINA RESULT:      -7.5      4.791      7.003
REMARK  9 active torsions:
REMARK  status: ('A' for Active; 'I' for Inactive)
REMARK    1  A    between atoms: C_2  and  N_3 
REMARK    2  A    between atoms: C_2  and  C_23 
REMARK       I    between atoms: N_3  and  C_4 
REMARK       I    between atoms: C_4  and  N_5 
REMARK    3  A    between atoms: N_5  and  C_6 
REMARK    4  A    between atoms: C_6  and  C_7 
REMARK    5  A    between atoms: C_7  and  N_8 
REMARK    6  A    between atoms: C_7  and  C_14 
REMARK    7  A    between atoms: C_15  and  O_16 
REMARK    8  A    between atoms: C_23  and  C_24 
REMARK    9  A    between atoms: C_27  and  O_28 
ROOT
HETATM    1  N   UNL     1      42.048 -14.931   3.273  1.00  0.00    -0.339 N 
HETATM    2  C   UNL     1      42.114 -14.539   4.578  1.00  0.00     0.316 C 
HETATM    3  N   UNL     1      41.153 -13.602   4.887  1.00  0.00    -0.341 N 
HETATM    4  O   UNL     1      42.869 -14.997   5.422  1.00  0.00    -0.248 OA
HETATM    5  H   UNL     1      41.551 -14.319   2.642  1.00  0.00     0.164 HD
HETATM    6  H   UNL     1      40.943 -12.985   4.111  1.00  0.00     0.164 HD
ENDROOT
BRANCH   3   7
HETATM    7  C   UNL     1      41.198 -12.960   6.206  1.00  0.00     0.162 C 
BRANCH   7   8
HETATM    8  C   UNL     1      41.616 -11.451   6.157  1.00  0.00     0.241 C 
BRANCH   8   9
HETATM    9  N   UNL     1      41.207 -10.893   4.782  1.00  0.00    -0.061 N 
HETATM   10  H   UNL     1      41.295 -11.729   4.183  1.00  0.00     0.280 HD
HETATM   11  C   UNL     1      42.032  -9.800   4.184  1.00  0.00     0.236 C 
HETATM   12  C   UNL     1      41.293  -8.518   4.511  1.00  0.00     0.029 C 
HETATM   13  C   UNL     1      39.853  -8.914   4.807  1.00  0.00     0.029 C 
HETATM   14  C   UNL     1      39.785 -10.425   4.681  1.00  0.00     0.236 C 
ENDBRANCH   8   9
BRANCH   8  15
HETATM   15  C   UNL     1      43.050 -11.188   6.592  1.00  0.00     0.007 A 
HETATM   16  C   UNL     1      43.315 -10.298   7.657  1.00  0.00     0.076 A 
HETATM   17  C   UNL     1      44.631 -10.049   8.060  1.00  0.00     0.037 A 
HETATM   18  C   UNL     1      45.695 -10.697   7.434  1.00  0.00     0.003 A 
HETATM   19  C   UNL     1      45.450 -11.590   6.398  1.00  0.00     0.001 A 
HETATM   20  C   UNL     1      44.141 -11.833   5.979  1.00  0.00     0.012 A 
BRANCH  16  21
HETATM   21  O   UNL     1      42.229  -9.680   8.221  1.00  0.00    -0.355 OA
HETATM   22  C   UNL     1      42.390  -9.203   9.556  1.00  0.00     0.210 C 
ENDBRANCH  16  21
ENDBRANCH   8  15
ENDBRANCH   7   8
ENDBRANCH   3   7
BRANCH   1  23
HETATM   23  C   UNL     1      43.106 -15.713   2.621  1.00  0.00     0.086 C 
HETATM   24  C   UNL     1      43.834 -14.940   1.521  1.00  0.00     0.032 C 
BRANCH  23  25
HETATM   25  C   UNL     1      42.586 -17.071   2.099  1.00  0.00     0.063 C 
BRANCH  25  26
HETATM   26  C   UNL     1      43.119 -18.238   2.904  1.00  0.00    -0.056 A 
HETATM   27  C   UNL     1      43.572 -18.050   4.219  1.00  0.00     0.010 A 
HETATM   28  C   UNL     1      44.104 -19.117   4.947  1.00  0.00     0.037 A 
HETATM   29  C   UNL     1      44.184 -20.374   4.357  1.00  0.00     0.065 A 
HETATM   30  C   UNL     1      43.735 -20.581   3.058  1.00  0.00     0.037 A 
HETATM   31  C   UNL     1      43.198 -19.517   2.334  1.00  0.00     0.010 A 
BRANCH  29  32
HETATM   32  O   UNL     1      44.702 -21.442   5.025  1.00  0.00    -0.361 OA
HETATM   33  H   UNL     1      45.203 -21.123   5.794  1.00  0.00     0.217 HD
ENDBRANCH  29  32
ENDBRANCH  25  26
ENDBRANCH  23  25
ENDBRANCH   1  23
TORSDOF 9
ENDMDL
MODEL 10
REMARK VINA RESULT:      -7.5      7.918     10.730
REMARK  9 active torsions:
REMARK  status: ('A' for Active; 'I' for Inactive)
REMARK    1  A    between atoms: C_2  and  N_3 
REMARK    2  A    between atoms: C_2  and  C_23 
REMARK       I    between atoms: N_3  and  C_4 
REMARK       I    between atoms: C_4  and  N_5 
REMARK    3  A    between atoms: N_5  and  C_6 
REMARK    4  A    between atoms: C_6  and  C_7 
REMARK    5  A    between atoms: C_7  and  N_8 
REMARK    6  A    between atoms: C_7  and  C_14 
REMARK    7  A    between atoms: C_15  and  O_16 
REMARK    8  A    between atoms: C_23  and  C_24 
REMARK    9  A    between atoms: C_27  and  O_28 
ROOT
HETATM    1  N   UNL     1      43.587 -10.899   9.455  1.00  0.00    -0.339 N 
HETATM    2  C   UNL     1      43.793 -10.889   8.106  1.00  0.00     0.316 C 
HETATM    3  N   UNL     1      43.666 -12.145   7.555  1.00  0.00    -0.341 N 
HETATM    4  O   UNL     1      43.991  -9.897   7.423  1.00  0.00    -0.248 OA
HETATM    5  H   UNL     1      43.667 -11.792   9.919  1.00  0.00     0.164 HD
HETATM    6  H   UNL     1      43.975 -12.881   8.179  1.00  0.00     0.164 HD
ENDROOT
BRANCH   3   7
HETATM    7  C   UNL     1      44.020 -12.329   6.142  1.00  0.00     0.162 C 
BRANCH   7   8
HETATM    8  C   UNL     1      42.819 -12.787   5.246  1.00  0.00     0.241 C 
BRANCH   8   9
HETATM    9  N   UNL     1      41.523 -12.564   6.047  1.00  0.00    -0.061 N 
HETATM   10  H   UNL     1      41.855 -12.675   7.018  1.00  0.00     0.280 HD
HETATM   11  C   UNL     1      40.383 -13.505   5.832  1.00  0.00     0.236 C 
HETATM   12  C   UNL     1      39.463 -12.801   4.855  1.00  0.00     0.029 C 
HETATM   13  C   UNL     1      39.799 -11.319   4.938  1.00  0.00     0.029 C 
HETATM   14  C   UNL     1      40.934 -11.187   5.937  1.00  0.00     0.236 C 
ENDBRANCH   8   9
BRANCH   8  15
HETATM   15  C   UNL     1      42.997 -14.161   4.621  1.00  0.00     0.007 A 
HETATM   16  C   UNL     1      43.280 -15.280   5.437  1.00  0.00     0.076 A 
HETATM   17  C   UNL     1      43.447 -16.547   4.869  1.00  0.00     0.037 A 
HETATM   18  C   UNL     1      43.309 -16.726   3.493  1.00  0.00     0.003 A 
HETATM   19  C   UNL     1      43.013 -15.640   2.678  1.00  0.00     0.001 A 
HETATM   20  C   UNL     1      42.859 -14.369   3.235  1.00  0.00     0.012 A 
BRANCH  16  21
HETATM   21  O   UNL     1      43.418 -15.037   6.779  1.00  0.00    -0.355 OA
HETATM   22  C   UNL     1      42.679 -15.882   7.660  1.00  0.00     0.210 C 
ENDBRANCH  16  21
ENDBRANCH   8  15
ENDBRANCH   7   8
ENDBRANCH   3   7
BRANCH   1  23
HETATM   23  C   UNL     1      43.915  -9.757  10.320  1.00  0.00     0.086 C 
HETATM   24  C   UNL     1      45.417  -9.593  10.554  1.00  0.00     0.032 C 
BRANCH  23  25
HETATM   25  C   UNL     1      43.142  -9.801  11.657  1.00  0.00     0.063 C 
BRANCH  25  26
HETATM   26  C   UNL     1      42.870  -8.418  12.209  1.00  0.00    -0.056 A 
HETATM   27  C   UNL     1      42.430  -7.387  11.366  1.00  0.00     0.010 A 
HETATM   28  C   UNL     1      42.220  -6.099  11.867  1.00  0.00     0.037 A 
HETATM   29  C   UNL     1      42.455  -5.844  13.213  1.00  0.00     0.065 A 
HETATM   30  C   UNL     1      42.887  -6.853  14.065  1.00  0.00     0.037 A 
HETATM   31  C   UNL     1      43.089  -8.140  13.567  1.00  0.00     0.010 A 
BRANCH  29  32
HETATM   32  O   UNL     1      42.273  -4.602  13.745  1.00  0.00    -0.361 OA
HETATM   33  H   UNL     1      42.589  -4.601  14.663  1.00  0.00     0.217 HD
ENDBRANCH  29  32
ENDBRANCH  25  26
ENDBRANCH  23  25
ENDBRANCH   1  23
TORSDOF 9
ENDMDL
