MODEL 1
REMARK VINA RESULT:      -7.9      0.000      0.000
REMARK  5 active torsions:
REMARK  status: ('A' for Active; 'I' for Inactive)
REMARK    1  A    between atoms: C_2  and  N_3 
REMARK       I    between atoms: N_3  and  C_4 
REMARK    2  A    between atoms: C_4  and  C_5 
REMARK    3  A    between atoms: C_8  and  N_9 
REMARK       I    between atoms: N_9  and  C_10 
REMARK       I    between atoms: C_10  and  N_11 
REMARK    4  A    between atoms: N_11  and  C_12 
REMARK    5  A    between atoms: C_17  and  C_18 
ROOT
HETATM    1  N   UNL     1      43.227  -8.458  11.329  1.00  0.00    -0.309 N 
HETATM    2  C   UNL     1      43.824  -9.567  10.745  1.00  0.00     0.325 C 
HETATM    3  N   UNL     1      43.704  -9.496   9.364  1.00  0.00    -0.308 N 
HETATM    4  O   UNL     1      44.335 -10.490  11.364  1.00  0.00    -0.247 OA
HETATM    5  H   UNL     1      43.148  -7.638  10.745  1.00  0.00     0.170 HD
HETATM    6  H   UNL     1      43.005  -8.848   9.040  1.00  0.00     0.170 HD
ENDROOT
BRANCH   1   7
HETATM    7  C   UNL     1      42.835  -8.312  12.675  1.00  0.00     0.036 A 
HETATM    8  C   UNL     1      41.829  -9.074  13.274  1.00  0.00     0.030 A 
HETATM    9  C   UNL     1      41.424  -8.816  14.588  1.00  0.00     0.019 A 
HETATM   10  C   UNL     1      42.013  -7.777  15.315  1.00  0.00     0.032 A 
HETATM   11  C   UNL     1      43.048  -7.038  14.735  1.00  0.00     0.019 A 
HETATM   12  C   UNL     1      43.454  -7.302  13.422  1.00  0.00     0.030 A 
BRANCH  10  13
HETATM   13  C   UNL     1      41.565  -7.419  16.690  1.00  0.00     0.251 C 
HETATM   14  N   UNL     1      40.532  -8.174  17.210  1.00  0.00    -0.357 N 
HETATM   15  H   UNL     1      40.034  -8.812  16.605  1.00  0.00     0.162 HD
HETATM   16  O   UNL     1      42.073  -6.468  17.275  1.00  0.00    -0.268 OA
BRANCH  14  17
HETATM   17  C   UNL     1      39.914  -7.842  18.477  1.00  0.00     0.118 C 
HETATM   18  C   UNL     1      40.469  -8.695  19.604  1.00  0.00     0.026 C 
ENDBRANCH  14  17
ENDBRANCH  10  13
ENDBRANCH   1   7
BRANCH   3  19
HETATM   19  C   UNL     1      44.170 -10.441   8.418  1.00  0.00     0.043 A 
HETATM   20  C   UNL     1      45.419 -10.223   7.796  1.00  0.00    -0.035 A 
HETATM   21  C   UNL     1      46.278  -9.026   8.106  1.00  0.00     0.050 C 
HETATM   22  C   UNL     1      45.872 -11.135   6.830  1.00  0.00     0.010 A 
HETATM   23  C   UNL     1      45.112 -12.254   6.491  1.00  0.00     0.016 A 
HETATM   24  C   UNL     1      43.886 -12.499   7.117  1.00  0.00     0.019 A 
HETATM   25  C   UNL     1      43.431 -11.585   8.082  1.00  0.00     0.046 A 
BRANCH  24  26
HETATM   26  C   UNL     1      43.116 -13.684   6.747  1.00  0.00     0.179 A 
HETATM   27  O   UNL     1      43.066 -14.706   7.661  1.00  0.00    -0.302 OA
HETATM   28  C   UNL     1      42.300 -15.657   7.060  1.00  0.00     0.163 A 
HETATM   29  C   UNL     1      41.925 -15.183   5.830  1.00  0.00     0.144 A 
HETATM   30  N   UNL     1      42.450 -13.931   5.632  1.00  0.00    -0.234 NA
ENDBRANCH  24  26
ENDBRANCH   3  19
TORSDOF 5
ENDMDL
MODEL 2
REMARK VINA RESULT:      -7.9     10.140     13.976
REMARK  5 active torsions:
REMARK  status: ('A' for Active; 'I' for Inactive)
REMARK    1  A    between atoms: C_2  and  N_3 
REMARK       I    between atoms: N_3  and  C_4 
REMARK    2  A    between atoms: C_4  and  C_5 
REMARK    3  A    between atoms: C_8  and  N_9 
REMARK       I    between atoms: N_9  and  C_10 
REMARK       I    between atoms: C_10  and  N_11 
REMARK    4  A    between atoms: N_11  and  C_12 
REMARK    5  A    between atoms: C_17  and  C_18 
ROOT
HETATM    1  N   UNL     1      40.861 -13.079  -0.116  1.00  0.00    -0.309 N 
HETATM    2  C   UNL     1      40.910 -13.836   1.047  1.00  0.00     0.325 C 
HETATM    3  N   UNL     1      42.204 -14.291   1.260  1.00  0.00    -0.308 N 
HETATM    4  O   UNL     1      39.944 -14.099   1.749  1.00  0.00    -0.247 OA
HETATM    5  H   UNL     1      41.732 -12.662  -0.410  1.00  0.00     0.170 HD
HETATM    6  H   UNL     1      42.799 -14.247   0.450  1.00  0.00     0.170 HD
ENDROOT
BRANCH   1   7
HETATM    7  C   UNL     1      39.714 -12.729  -0.855  1.00  0.00     0.036 A 
HETATM    8  C   UNL     1      39.143 -13.550  -1.831  1.00  0.00     0.030 A 
HETATM    9  C   UNL     1      38.059 -13.104  -2.595  1.00  0.00     0.019 A 
HETATM   10  C   UNL     1      37.542 -11.819  -2.401  1.00  0.00     0.032 A 
HETATM   11  C   UNL     1      38.082 -11.009  -1.398  1.00  0.00     0.019 A 
HETATM   12  C   UNL     1      39.164 -11.460  -0.633  1.00  0.00     0.030 A 
BRANCH  10  13
HETATM   13  C   UNL     1      36.436 -11.275  -3.239  1.00  0.00     0.251 C 
HETATM   14  N   UNL     1      35.459 -12.175  -3.617  1.00  0.00    -0.357 N 
HETATM   15  H   UNL     1      35.605 -13.160  -3.450  1.00  0.00     0.162 HD
HETATM   16  O   UNL     1      36.455 -10.102  -3.596  1.00  0.00    -0.268 OA
BRANCH  14  17
HETATM   17  C   UNL     1      34.407 -11.807  -4.541  1.00  0.00     0.118 C 
HETATM   18  C   UNL     1      33.175 -11.306  -3.807  1.00  0.00     0.026 C 
ENDBRANCH  14  17
ENDBRANCH  10  13
ENDBRANCH   1   7
BRANCH   3  19
HETATM   19  C   UNL     1      42.657 -15.105   2.327  1.00  0.00     0.043 A 
HETATM   20  C   UNL     1      42.934 -14.501   3.573  1.00  0.00    -0.035 A 
HETATM   21  C   UNL     1      42.760 -13.024   3.813  1.00  0.00     0.050 C 
HETATM   22  C   UNL     1      43.418 -15.292   4.626  1.00  0.00     0.010 A 
HETATM   23  C   UNL     1      43.614 -16.663   4.458  1.00  0.00     0.016 A 
HETATM   24  C   UNL     1      43.318 -17.281   3.239  1.00  0.00     0.019 A 
HETATM   25  C   UNL     1      42.837 -16.488   2.185  1.00  0.00     0.046 A 
BRANCH  24  26
HETATM   26  C   UNL     1      43.525 -18.720   3.096  1.00  0.00     0.179 A 
HETATM   27  O   UNL     1      43.197 -19.281   1.887  1.00  0.00    -0.302 OA
HETATM   28  C   UNL     1      43.486 -20.602   2.041  1.00  0.00     0.163 A 
HETATM   29  C   UNL     1      43.967 -20.786   3.312  1.00  0.00     0.144 A 
HETATM   30  N   UNL     1      43.985 -19.588   3.981  1.00  0.00    -0.234 NA
ENDBRANCH  24  26
ENDBRANCH   3  19
TORSDOF 5
ENDMDL
MODEL 3
REMARK VINA RESULT:      -7.8     10.836     13.284
REMARK  5 active torsions:
REMARK  status: ('A' for Active; 'I' for Inactive)
REMARK    1  A    between atoms: C_2  and  N_3 
REMARK       I    between atoms: N_3  and  C_4 
REMARK    2  A    between atoms: C_4  and  C_5 
REMARK    3  A    between atoms: C_8  and  N_9 
REMARK       I    between atoms: N_9  and  C_10 
REMARK       I    between atoms: C_10  and  N_11 
REMARK    4  A    between atoms: N_11  and  C_12 
REMARK    5  A    between atoms: C_17  and  C_18 
ROOT
HETATM    1  N   UNL     1      41.325 -14.542   0.267  1.00  0.00    -0.309 N 
HETATM    2  C   UNL     1      40.973 -13.211   0.082  1.00  0.00     0.325 C 
HETATM    3  N   UNL     1      40.986 -12.904  -1.272  1.00  0.00    -0.308 N 
HETATM    4  O   UNL     1      40.737 -12.421   0.984  1.00  0.00    -0.247 OA
HETATM    5  H   UNL     1      41.170 -15.155  -0.520  1.00  0.00     0.170 HD
HETATM    6  H   UNL     1      41.489 -13.563  -1.843  1.00  0.00     0.170 HD
ENDROOT
BRANCH   1   7
HETATM    7  C   UNL     1      41.755 -15.149   1.464  1.00  0.00     0.036 A 
HETATM    8  C   UNL     1      43.098 -15.298   1.817  1.00  0.00     0.030 A 
HETATM    9  C   UNL     1      43.460 -15.994   2.976  1.00  0.00     0.019 A 
HETATM   10  C   UNL     1      42.477 -16.565   3.790  1.00  0.00     0.032 A 
HETATM   11  C   UNL     1      41.130 -16.384   3.464  1.00  0.00     0.019 A 
HETATM   12  C   UNL     1      40.771 -15.684   2.307  1.00  0.00     0.030 A 
BRANCH  10  13
HETATM   13  C   UNL     1      42.817 -17.375   4.993  1.00  0.00     0.251 C 
HETATM   14  N   UNL     1      43.594 -18.496   4.773  1.00  0.00    -0.357 N 
HETATM   15  H   UNL     1      43.765 -18.799   3.824  1.00  0.00     0.162 HD
HETATM   16  O   UNL     1      42.372 -17.062   6.091  1.00  0.00    -0.268 OA
BRANCH  14  17
HETATM   17  C   UNL     1      43.880 -19.440   5.833  1.00  0.00     0.118 C 
HETATM   18  C   UNL     1      44.013 -20.853   5.295  1.00  0.00     0.026 C 
ENDBRANCH  14  17
ENDBRANCH  10  13
ENDBRANCH   1   7
BRANCH   3  19
HETATM   19  C   UNL     1      40.700 -11.650  -1.864  1.00  0.00     0.043 A 
HETATM   20  C   UNL     1      39.515 -11.508  -2.619  1.00  0.00    -0.035 A 
HETATM   21  C   UNL     1      38.539 -12.639  -2.813  1.00  0.00     0.050 C 
HETATM   22  C   UNL     1      39.241 -10.280  -3.241  1.00  0.00     0.010 A 
HETATM   23  C   UNL     1      40.115  -9.202  -3.109  1.00  0.00     0.016 A 
HETATM   24  C   UNL     1      41.279  -9.317  -2.342  1.00  0.00     0.019 A 
HETATM   25  C   UNL     1      41.555 -10.547  -1.723  1.00  0.00     0.046 A 
BRANCH  24  26
HETATM   26  C   UNL     1      42.171  -8.168  -2.216  1.00  0.00     0.179 A 
HETATM   27  O   UNL     1      42.011  -7.151  -3.124  1.00  0.00    -0.302 OA
HETATM   28  C   UNL     1      42.957  -6.236  -2.774  1.00  0.00     0.163 A 
HETATM   29  C   UNL     1      43.639  -6.726  -1.690  1.00  0.00     0.144 A 
HETATM   30  N   UNL     1      43.141  -7.956  -1.342  1.00  0.00    -0.234 NA
ENDBRANCH  24  26
ENDBRANCH   3  19
TORSDOF 5
ENDMDL
MODEL 4
REMARK VINA RESULT:      -7.6      3.112      6.333
REMARK  5 active torsions:
REMARK  status: ('A' for Active; 'I' for Inactive)
REMARK    1  A    between atoms: C_2  and  N_3 
REMARK       I    between atoms: N_3  and  C_4 
REMARK    2  A    between atoms: C_4  and  C_5 
REMARK    3  A    between atoms: C_8  and  N_9 
REMARK       I    between atoms: N_9  and  C_10 
REMARK       I    between atoms: C_10  and  N_11 
REMARK    4  A    between atoms: N_11  and  C_12 
REMARK    5  A    between atoms: C_17  and  C_18 
ROOT
HETATM    1  N   UNL     1      43.918 -11.586   6.058  1.00  0.00    -0.309 N 
HETATM    2  C   UNL     1      43.201 -12.762   5.878  1.00  0.00     0.325 C 
HETATM    3  N   UNL     1      43.212 -13.120   4.538  1.00  0.00    -0.308 N 
HETATM    4  O   UNL     1      42.608 -13.360   6.765  1.00  0.00    -0.247 OA
HETATM    5  H   UNL     1      44.613 -11.380   5.357  1.00  0.00     0.170 HD
HETATM    6  H   UNL     1      43.473 -12.378   3.910  1.00  0.00     0.170 HD
ENDROOT
BRANCH   1   7
HETATM    7  C   UNL     1      43.868 -10.721   7.170  1.00  0.00     0.036 A 
HETATM    8  C   UNL     1      44.780 -10.767   8.227  1.00  0.00     0.030 A 
HETATM    9  C   UNL     1      44.619  -9.943   9.346  1.00  0.00     0.019 A 
HETATM   10  C   UNL     1      43.529  -9.071   9.427  1.00  0.00     0.032 A 
HETATM   11  C   UNL     1      42.636  -8.991   8.354  1.00  0.00     0.019 A 
HETATM   12  C   UNL     1      42.803  -9.814   7.235  1.00  0.00     0.030 A 
BRANCH  10  13
HETATM   13  C   UNL     1      43.277  -8.227  10.629  1.00  0.00     0.251 C 
HETATM   14  N   UNL     1      43.414  -8.853  11.853  1.00  0.00    -0.357 N 
HETATM   15  H   UNL     1      43.523  -9.857  11.883  1.00  0.00     0.162 HD
HETATM   16  O   UNL     1      42.919  -7.062  10.498  1.00  0.00    -0.268 OA
BRANCH  14  17
HETATM   17  C   UNL     1      43.066  -8.185  13.089  1.00  0.00     0.118 C 
HETATM   18  C   UNL     1      42.089  -9.010  13.908  1.00  0.00     0.026 C 
ENDBRANCH  14  17
ENDBRANCH  10  13
ENDBRANCH   1   7
BRANCH   3  19
HETATM   19  C   UNL     1      42.582 -14.245   3.950  1.00  0.00     0.043 A 
HETATM   20  C   UNL     1      41.294 -14.088   3.392  1.00  0.00    -0.035 A 
HETATM   21  C   UNL     1      40.567 -12.769   3.393  1.00  0.00     0.050 C 
HETATM   22  C   UNL     1      40.646 -15.204   2.840  1.00  0.00     0.010 A 
HETATM   23  C   UNL     1      41.264 -16.454   2.825  1.00  0.00     0.016 A 
HETATM   24  C   UNL     1      42.550 -16.620   3.348  1.00  0.00     0.019 A 
HETATM   25  C   UNL     1      43.197 -15.504   3.903  1.00  0.00     0.046 A 
BRANCH  24  26
HETATM   26  C   UNL     1      43.174 -17.940   3.310  1.00  0.00     0.179 A 
HETATM   27  O   UNL     1      42.841 -18.758   2.260  1.00  0.00    -0.302 OA
HETATM   28  C   UNL     1      43.555 -19.896   2.481  1.00  0.00     0.163 A 
HETATM   29  C   UNL     1      44.276 -19.726   3.634  1.00  0.00     0.144 A 
HETATM   30  N   UNL     1      44.028 -18.484   4.161  1.00  0.00    -0.234 NA
ENDBRANCH  24  26
ENDBRANCH   3  19
TORSDOF 5
ENDMDL
MODEL 5
REMARK VINA RESULT:      -7.5     11.276     13.695
REMARK  5 active torsions:
REMARK  status: ('A' for Active; 'I' for Inactive)
REMARK    1  A    between atoms: C_2  and  N_3 
REMARK       I    between atoms: N_3  and  C_4 
REMARK    2  A    between atoms: C_4  and  C_5 
REMARK    3  A    between atoms: C_8  and  N_9 
REMARK       I    between atoms: N_9  and  C_10 
REMARK       I    between atoms: C_10  and  N_11 
REMARK    4  A    between atoms: N_11  and  C_12 
REMARK    5  A    between atoms: C_17  and  C_18 
ROOT
HETATM    1  N   UNL     1      39.899 -14.887   0.760  1.00  0.00    -0.309 N 
HETATM    2  C   UNL     1      39.777 -13.565   0.354  1.00  0.00     0.325 C 
HETATM    3  N   UNL     1      38.940 -13.487  -0.751  1.00  0.00    -0.308 N 
HETATM    4  O   UNL     1      40.361 -12.621   0.866  1.00  0.00    -0.247 OA
HETATM    5  H   UNL     1      39.144 -15.503   0.496  1.00  0.00     0.170 HD
HETATM    6  H   UNL     1      38.794 -14.362  -1.226  1.00  0.00     0.170 HD
ENDROOT
BRANCH   1   7
HETATM    7  C   UNL     1      40.891 -15.430   1.601  1.00  0.00     0.036 A 
HETATM    8  C   UNL     1      42.220 -15.611   1.211  1.00  0.00     0.030 A 
HETATM    9  C   UNL     1      43.135 -16.242   2.061  1.00  0.00     0.019 A 
HETATM   10  C   UNL     1      42.723 -16.716   3.311  1.00  0.00     0.032 A 
HETATM   11  C   UNL     1      41.404 -16.502   3.722  1.00  0.00     0.019 A 
HETATM   12  C   UNL     1      40.494 -15.867   2.871  1.00  0.00     0.030 A 
BRANCH  10  13
HETATM   13  C   UNL     1      43.643 -17.458   4.219  1.00  0.00     0.251 C 
HETATM   14  N   UNL     1      43.779 -18.811   3.976  1.00  0.00    -0.357 N 
HETATM   15  H   UNL     1      43.156 -19.259   3.318  1.00  0.00     0.162 HD
HETATM   16  O   UNL     1      44.189 -16.876   5.150  1.00  0.00    -0.268 OA
BRANCH  14  17
HETATM   17  C   UNL     1      44.532 -19.669   4.866  1.00  0.00     0.118 C 
HETATM   18  C   UNL     1      43.795 -20.968   5.138  1.00  0.00     0.026 C 
ENDBRANCH  14  17
ENDBRANCH  10  13
ENDBRANCH   1   7
BRANCH   3  19
HETATM   19  C   UNL     1      38.579 -12.318  -1.467  1.00  0.00     0.043 A 
HETATM   20  C   UNL     1      39.391 -11.904  -2.546  1.00  0.00    -0.035 A 
HETATM   21  C   UNL     1      40.623 -12.661  -2.969  1.00  0.00     0.050 C 
HETATM   22  C   UNL     1      39.063 -10.728  -3.238  1.00  0.00     0.010 A 
HETATM   23  C   UNL     1      37.942  -9.978  -2.881  1.00  0.00     0.016 A 
HETATM   24  C   UNL     1      37.113 -10.390  -1.833  1.00  0.00     0.019 A 
HETATM   25  C   UNL     1      37.443 -11.565  -1.138  1.00  0.00     0.046 A 
BRANCH  24  26
HETATM   26  C   UNL     1      35.942  -9.588  -1.488  1.00  0.00     0.179 A 
HETATM   27  O   UNL     1      36.117  -8.594  -0.559  1.00  0.00    -0.302 OA
HETATM   28  C   UNL     1      34.886  -8.027  -0.436  1.00  0.00     0.163 A 
HETATM   29  C   UNL     1      34.030  -8.688  -1.279  1.00  0.00     0.144 A 
HETATM   30  N   UNL     1      34.703  -9.683  -1.941  1.00  0.00    -0.234 NA
ENDBRANCH  24  26
ENDBRANCH   3  19
TORSDOF 5
ENDMDL
MODEL 6
REMARK VINA RESULT:      -7.3     21.818     23.633
REMARK  5 active torsions:
REMARK  status: ('A' for Active; 'I' for Inactive)
REMARK    1  A    between atoms: C_2  and  N_3 
REMARK       I    between atoms: N_3  and  C_4 
REMARK    2  A    between atoms: C_4  and  C_5 
REMARK    3  A    between atoms: C_8  and  N_9 
REMARK       I    between atoms: N_9  and  C_10 
REMARK       I    between atoms: C_10  and  N_11 
REMARK    4  A    between atoms: N_11  and  C_12 
REMARK    5  A    between atoms: C_17  and  C_18 
ROOT
HETATM    1  N   UNL     1      42.500 -29.782   1.957  1.00  0.00    -0.309 N 
HETATM    2  C   UNL     1      43.422 -30.209   1.010  1.00  0.00     0.325 C 
HETATM    3  N   UNL     1      43.831 -29.134   0.232  1.00  0.00    -0.308 N 
HETATM    4  O   UNL     1      43.779 -31.368   0.856  1.00  0.00    -0.247 OA
HETATM    5  H   UNL     1      42.539 -28.804   2.204  1.00  0.00     0.170 HD
HETATM    6  H   UNL     1      43.227 -28.330   0.282  1.00  0.00     0.170 HD
ENDROOT
BRANCH   1   7
HETATM    7  C   UNL     1      41.608 -30.584   2.696  1.00  0.00     0.036 A 
HETATM    8  C   UNL     1      40.731 -31.503   2.114  1.00  0.00     0.030 A 
HETATM    9  C   UNL     1      39.804 -32.201   2.897  1.00  0.00     0.019 A 
HETATM   10  C   UNL     1      39.733 -31.973   4.275  1.00  0.00     0.032 A 
HETATM   11  C   UNL     1      40.635 -31.085   4.868  1.00  0.00     0.019 A 
HETATM   12  C   UNL     1      41.564 -30.392   4.083  1.00  0.00     0.030 A 
BRANCH  10  13
HETATM   13  C   UNL     1      38.716 -32.638   5.137  1.00  0.00     0.251 C 
HETATM   14  N   UNL     1      37.604 -33.141   4.489  1.00  0.00    -0.357 N 
HETATM   15  H   UNL     1      37.454 -32.911   3.517  1.00  0.00     0.162 HD
HETATM   16  O   UNL     1      38.867 -32.671   6.353  1.00  0.00    -0.268 OA
BRANCH  14  17
HETATM   17  C   UNL     1      36.482 -33.687   5.223  1.00  0.00     0.118 C 
HETATM   18  C   UNL     1      36.652 -35.176   5.466  1.00  0.00     0.026 C 
ENDBRANCH  14  17
ENDBRANCH  10  13
ENDBRANCH   1   7
BRANCH   3  19
HETATM   19  C   UNL     1      44.748 -29.162  -0.847  1.00  0.00     0.043 A 
HETATM   20  C   UNL     1      46.039 -28.622  -0.657  1.00  0.00    -0.035 A 
HETATM   21  C   UNL     1      46.480 -28.022   0.652  1.00  0.00     0.050 C 
HETATM   22  C   UNL     1      46.943 -28.612  -1.730  1.00  0.00     0.010 A 
HETATM   23  C   UNL     1      46.584 -29.140  -2.971  1.00  0.00     0.016 A 
HETATM   24  C   UNL     1      45.320 -29.704  -3.168  1.00  0.00     0.019 A 
HETATM   25  C   UNL     1      44.415 -29.711  -2.094  1.00  0.00     0.046 A 
BRANCH  24  26
HETATM   26  C   UNL     1      44.977 -30.256  -4.475  1.00  0.00     0.179 A 
HETATM   27  O   UNL     1      45.914 -31.058  -5.080  1.00  0.00    -0.302 OA
HETATM   28  C   UNL     1      45.337 -31.419  -6.258  1.00  0.00     0.163 A 
HETATM   29  C   UNL     1      44.099 -30.833  -6.321  1.00  0.00     0.144 A 
HETATM   30  N   UNL     1      43.877 -30.090  -5.189  1.00  0.00    -0.234 NA
ENDBRANCH  24  26
ENDBRANCH   3  19
TORSDOF 5
ENDMDL
MODEL 7
REMARK VINA RESULT:      -7.2      4.144      7.474
REMARK  5 active torsions:
REMARK  status: ('A' for Active; 'I' for Inactive)
REMARK    1  A    between atoms: C_2  and  N_3 
REMARK       I    between atoms: N_3  and  C_4 
REMARK    2  A    between atoms: C_4  and  C_5 
REMARK    3  A    between atoms: C_8  and  N_9 
REMARK       I    between atoms: N_9  and  C_10 
REMARK       I    between atoms: C_10  and  N_11 
REMARK    4  A    between atoms: N_11  and  C_12 
REMARK    5  A    between atoms: C_17  and  C_18 
ROOT
HETATM    1  N   UNL     1      43.786 -12.233   5.524  1.00  0.00    -0.309 N 
HETATM    2  C   UNL     1      42.704 -12.967   5.057  1.00  0.00     0.325 C 
HETATM    3  N   UNL     1      42.975 -13.445   3.782  1.00  0.00    -0.308 N 
HETATM    4  O   UNL     1      41.654 -13.124   5.662  1.00  0.00    -0.247 OA
HETATM    5  H   UNL     1      44.680 -12.447   5.108  1.00  0.00     0.170 HD
HETATM    6  H   UNL     1      43.736 -12.980   3.316  1.00  0.00     0.170 HD
ENDROOT
BRANCH   1   7
HETATM    7  C   UNL     1      43.793 -11.317   6.595  1.00  0.00     0.036 A 
HETATM    8  C   UNL     1      44.632 -11.432   7.706  1.00  0.00     0.030 A 
HETATM    9  C   UNL     1      44.524 -10.540   8.779  1.00  0.00     0.019 A 
HETATM   10  C   UNL     1      43.558  -9.530   8.760  1.00  0.00     0.032 A 
HETATM   11  C   UNL     1      42.743  -9.385   7.633  1.00  0.00     0.019 A 
HETATM   12  C   UNL     1      42.857 -10.275   6.560  1.00  0.00     0.030 A 
BRANCH  10  13
HETATM   13  C   UNL     1      43.357  -8.603   9.910  1.00  0.00     0.251 C 
HETATM   14  N   UNL     1      43.751  -9.074  11.147  1.00  0.00    -0.357 N 
HETATM   15  H   UNL     1      44.005 -10.047  11.247  1.00  0.00     0.162 HD
HETATM   16  O   UNL     1      42.822  -7.514   9.736  1.00  0.00    -0.268 OA
BRANCH  14  17
HETATM   17  C   UNL     1      43.486  -8.330  12.360  1.00  0.00     0.118 C 
HETATM   18  C   UNL     1      42.470  -9.042  13.236  1.00  0.00     0.026 C 
ENDBRANCH  14  17
ENDBRANCH  10  13
ENDBRANCH   1   7
BRANCH   3  19
HETATM   19  C   UNL     1      42.118 -14.221   2.962  1.00  0.00     0.043 A 
HETATM   20  C   UNL     1      42.051 -15.615   3.177  1.00  0.00    -0.035 A 
HETATM   21  C   UNL     1      42.852 -16.308   4.248  1.00  0.00     0.050 C 
HETATM   22  C   UNL     1      41.234 -16.398   2.347  1.00  0.00     0.010 A 
HETATM   23  C   UNL     1      40.481 -15.813   1.328  1.00  0.00     0.016 A 
HETATM   24  C   UNL     1      40.515 -14.430   1.121  1.00  0.00     0.019 A 
HETATM   25  C   UNL     1      41.335 -13.648   1.950  1.00  0.00     0.046 A 
BRANCH  24  26
HETATM   26  C   UNL     1      39.709 -13.846   0.052  1.00  0.00     0.179 A 
HETATM   27  O   UNL     1      39.415 -14.652  -1.019  1.00  0.00    -0.302 OA
HETATM   28  C   UNL     1      38.672 -13.860  -1.841  1.00  0.00     0.163 A 
HETATM   29  C   UNL     1      38.549 -12.631  -1.247  1.00  0.00     0.144 A 
HETATM   30  N   UNL     1      39.214 -12.624  -0.047  1.00  0.00    -0.234 NA
ENDBRANCH  24  26
ENDBRANCH   3  19
TORSDOF 5
ENDMDL
MODEL 8
REMARK VINA RESULT:      -7.0      9.860     13.881
REMARK  5 active torsions:
REMARK  status: ('A' for Active; 'I' for Inactive)
REMARK    1  A    between atoms: C_2  and  N_3 
REMARK       I    between atoms: N_3  and  C_4 
REMARK    2  A    between atoms: C_4  and  C_5 
REMARK    3  A    between atoms: C_8  and  N_9 
REMARK       I    between atoms: N_9  and  C_10 
REMARK       I    between atoms: C_10  and  N_11 
REMARK    4  A    between atoms: N_11  and  C_12 
REMARK    5  A    between atoms: C_17  and  C_18 
ROOT
HETATM    1  N   UNL     1      39.185 -13.427   0.629  1.00  0.00    -0.309 N 
HETATM    2  C   UNL     1      40.396 -14.004   0.990  1.00  0.00     0.325 C 
HETATM    3  N   UNL     1      40.313 -14.504   2.282  1.00  0.00    -0.308 N 
HETATM    4  O   UNL     1      41.397 -14.021   0.288  1.00  0.00    -0.247 OA
HETATM    5  H   UNL     1      38.371 -13.757   1.125  1.00  0.00     0.170 HD
HETATM    6  H   UNL     1      39.542 -14.143   2.819  1.00  0.00     0.170 HD
ENDROOT
BRANCH   1   7
HETATM    7  C   UNL     1      38.954 -12.528  -0.433  1.00  0.00     0.036 A 
HETATM    8  C   UNL     1      38.329 -12.889  -1.629  1.00  0.00     0.030 A 
HETATM    9  C   UNL     1      38.215 -11.972  -2.680  1.00  0.00     0.019 A 
HETATM   10  C   UNL     1      38.741 -10.684  -2.551  1.00  0.00     0.032 A 
HETATM   11  C   UNL     1      39.331 -10.305  -1.341  1.00  0.00     0.019 A 
HETATM   12  C   UNL     1      39.440 -11.222  -0.291  1.00  0.00     0.030 A 
BRANCH  10  13
HETATM   13  C   UNL     1      38.707  -9.698  -3.668  1.00  0.00     0.251 C 
HETATM   14  N   UNL     1      37.558  -9.685  -4.434  1.00  0.00    -0.357 N 
HETATM   15  H   UNL     1      36.876 -10.420  -4.312  1.00  0.00     0.162 HD
HETATM   16  O   UNL     1      39.683  -8.992  -3.895  1.00  0.00    -0.268 OA
BRANCH  14  17
HETATM   17  C   UNL     1      37.452  -8.873  -5.628  1.00  0.00     0.118 C 
HETATM   18  C   UNL     1      36.760  -7.553  -5.340  1.00  0.00     0.026 C 
ENDBRANCH  14  17
ENDBRANCH  10  13
ENDBRANCH   1   7
BRANCH   3  19
HETATM   19  C   UNL     1      41.339 -15.150   3.014  1.00  0.00     0.043 A 
HETATM   20  C   UNL     1      41.991 -14.437   4.044  1.00  0.00    -0.035 A 
HETATM   21  C   UNL     1      41.634 -13.018   4.397  1.00  0.00     0.050 C 
HETATM   22  C   UNL     1      43.035 -15.055   4.751  1.00  0.00     0.010 A 
HETATM   23  C   UNL     1      43.420 -16.363   4.456  1.00  0.00     0.016 A 
HETATM   24  C   UNL     1      42.765 -17.092   3.459  1.00  0.00     0.019 A 
HETATM   25  C   UNL     1      41.724 -16.472   2.749  1.00  0.00     0.046 A 
BRANCH  24  26
HETATM   26  C   UNL     1      43.186 -18.463   3.180  1.00  0.00     0.179 A 
HETATM   27  O   UNL     1      43.807 -19.145   4.196  1.00  0.00    -0.302 OA
HETATM   28  C   UNL     1      44.083 -20.366   3.662  1.00  0.00     0.163 A 
HETATM   29  C   UNL     1      43.628 -20.375   2.369  1.00  0.00     0.144 A 
HETATM   30  N   UNL     1      43.064 -19.162   2.064  1.00  0.00    -0.234 NA
ENDBRANCH  24  26
ENDBRANCH   3  19
TORSDOF 5
ENDMDL
MODEL 9
REMARK VINA RESULT:      -7.0     22.598     24.445
REMARK  5 active torsions:
REMARK  status: ('A' for Active; 'I' for Inactive)
REMARK    1  A    between atoms: C_2  and  N_3 
REMARK       I    between atoms: N_3  and  C_4 
REMARK    2  A    between atoms: C_4  and  C_5 
REMARK    3  A    between atoms: C_8  and  N_9 
REMARK       I    between atoms: N_9  and  C_10 
REMARK       I    between atoms: C_10  and  N_11 
REMARK    4  A    between atoms: N_11  and  C_12 
REMARK    5  A    between atoms: C_17  and  C_18 
ROOT
HETATM    1  N   UNL     1      48.892 -29.466   0.089  1.00  0.00    -0.309 N 
HETATM    2  C   UNL     1      47.847 -30.075  -0.592  1.00  0.00     0.325 C 
HETATM    3  N   UNL     1      47.310 -29.192  -1.518  1.00  0.00    -0.308 N 
HETATM    4  O   UNL     1      47.434 -31.205  -0.371  1.00  0.00    -0.247 OA
HETATM    5  H   UNL     1      49.344 -28.700  -0.387  1.00  0.00     0.170 HD
HETATM    6  H   UNL     1      47.552 -28.227  -1.363  1.00  0.00     0.170 HD
ENDROOT
BRANCH   1   7
HETATM    7  C   UNL     1      49.466 -29.878   1.309  1.00  0.00     0.036 A 
HETATM    8  C   UNL     1      50.610 -30.676   1.395  1.00  0.00     0.030 A 
HETATM    9  C   UNL     1      51.075 -31.127   2.635  1.00  0.00     0.019 A 
HETATM   10  C   UNL     1      50.388 -30.797   3.807  1.00  0.00     0.032 A 
HETATM   11  C   UNL     1      49.266 -29.966   3.731  1.00  0.00     0.019 A 
HETATM   12  C   UNL     1      48.807 -29.512   2.489  1.00  0.00     0.030 A 
BRANCH  10  13
HETATM   13  C   UNL     1      50.803 -31.314   5.141  1.00  0.00     0.251 C 
HETATM   14  N   UNL     1      52.078 -30.978   5.555  1.00  0.00    -0.357 N 
HETATM   15  H   UNL     1      52.711 -30.544   4.898  1.00  0.00     0.162 HD
HETATM   16  O   UNL     1      50.049 -32.036   5.783  1.00  0.00    -0.268 OA
BRANCH  14  17
HETATM   17  C   UNL     1      52.651 -31.527   6.765  1.00  0.00     0.118 C 
HETATM   18  C   UNL     1      53.863 -32.390   6.462  1.00  0.00     0.026 C 
ENDBRANCH  14  17
ENDBRANCH  10  13
ENDBRANCH   1   7
BRANCH   3  19
HETATM   19  C   UNL     1      46.222 -29.431  -2.395  1.00  0.00     0.043 A 
HETATM   20  C   UNL     1      44.942 -28.956  -2.035  1.00  0.00    -0.035 A 
HETATM   21  C   UNL     1      44.689 -28.200  -0.757  1.00  0.00     0.050 C 
HETATM   22  C   UNL     1      43.851 -29.220  -2.878  1.00  0.00     0.010 A 
HETATM   23  C   UNL     1      44.023 -29.930  -4.067  1.00  0.00     0.016 A 
HETATM   24  C   UNL     1      45.289 -30.382  -4.451  1.00  0.00     0.019 A 
HETATM   25  C   UNL     1      46.379 -30.121  -3.606  1.00  0.00     0.046 A 
BRANCH  24  26
HETATM   26  C   UNL     1      45.438 -31.114  -5.706  1.00  0.00     0.179 A 
HETATM   27  O   UNL     1      46.626 -31.771  -5.908  1.00  0.00    -0.302 OA
HETATM   28  C   UNL     1      46.485 -32.350  -7.132  1.00  0.00     0.163 A 
HETATM   29  C   UNL     1      45.243 -32.027  -7.614  1.00  0.00     0.144 A 
HETATM   30  N   UNL     1      44.583 -31.236  -6.707  1.00  0.00    -0.234 NA
ENDBRANCH  24  26
ENDBRANCH   3  19
TORSDOF 5
ENDMDL
MODEL 10
REMARK VINA RESULT:      -7.0      8.384     11.739
REMARK  5 active torsions:
REMARK  status: ('A' for Active; 'I' for Inactive)
REMARK    1  A    between atoms: C_2  and  N_3 
REMARK       I    between atoms: N_3  and  C_4 
REMARK    2  A    between atoms: C_4  and  C_5 
REMARK    3  A    between atoms: C_8  and  N_9 
REMARK       I    between atoms: N_9  and  C_10 
REMARK       I    between atoms: C_10  and  N_11 
REMARK    4  A    between atoms: N_11  and  C_12 
REMARK    5  A    between atoms: C_17  and  C_18 
ROOT
HETATM    1  N   UNL     1      41.258 -12.214   3.272  1.00  0.00    -0.309 N 
HETATM    2  C   UNL     1      41.305 -13.503   3.787  1.00  0.00     0.325 C 
HETATM    3  N   UNL     1      42.621 -13.857   4.053  1.00  0.00    -0.308 N 
HETATM    4  O   UNL     1      40.334 -14.230   3.935  1.00  0.00    -0.247 OA
HETATM    5  H   UNL     1      42.037 -11.615   3.504  1.00  0.00     0.170 HD
HETATM    6  H   UNL     1      43.308 -13.279   3.597  1.00  0.00     0.170 HD
ENDROOT
BRANCH   1   7
HETATM    7  C   UNL     1      40.191 -11.616   2.571  1.00  0.00     0.036 A 
HETATM    8  C   UNL     1      39.229 -10.804   3.175  1.00  0.00     0.030 A 
HETATM    9  C   UNL     1      38.141 -10.318   2.440  1.00  0.00     0.019 A 
HETATM   10  C   UNL     1      37.997 -10.654   1.091  1.00  0.00     0.032 A 
HETATM   11  C   UNL     1      38.978 -11.433   0.472  1.00  0.00     0.019 A 
HETATM   12  C   UNL     1      40.067 -11.914   1.208  1.00  0.00     0.030 A 
BRANCH  10  13
HETATM   13  C   UNL     1      36.819 -10.220   0.288  1.00  0.00     0.251 C 
HETATM   14  N   UNL     1      36.902 -10.426  -1.075  1.00  0.00    -0.357 N 
HETATM   15  H   UNL     1      37.784 -10.708  -1.479  1.00  0.00     0.162 HD
HETATM   16  O   UNL     1      35.871  -9.668   0.836  1.00  0.00    -0.268 OA
BRANCH  14  17
HETATM   17  C   UNL     1      35.888  -9.927  -1.980  1.00  0.00     0.118 C 
HETATM   18  C   UNL     1      36.086 -10.466  -3.385  1.00  0.00     0.026 C 
ENDBRANCH  14  17
ENDBRANCH  10  13
ENDBRANCH   1   7
BRANCH   3  19
HETATM   19  C   UNL     1      43.084 -15.092   4.569  1.00  0.00     0.043 A 
HETATM   20  C   UNL     1      43.567 -15.136   5.896  1.00  0.00    -0.035 A 
HETATM   21  C   UNL     1      43.604 -13.920   6.784  1.00  0.00     0.050 C 
HETATM   22  C   UNL     1      44.063 -16.346   6.405  1.00  0.00     0.010 A 
HETATM   23  C   UNL     1      44.068 -17.501   5.622  1.00  0.00     0.016 A 
HETATM   24  C   UNL     1      43.567 -17.481   4.317  1.00  0.00     0.019 A 
HETATM   25  C   UNL     1      43.075 -16.269   3.807  1.00  0.00     0.046 A 
BRANCH  24  26
HETATM   26  C   UNL     1      43.579 -18.708   3.526  1.00  0.00     0.179 A 
HETATM   27  O   UNL     1      43.995 -19.854   4.157  1.00  0.00    -0.302 OA
HETATM   28  C   UNL     1      43.906 -20.816   3.198  1.00  0.00     0.163 A 
HETATM   29  C   UNL     1      43.450 -20.227   2.047  1.00  0.00     0.144 A 
HETATM   30  N   UNL     1      43.249 -18.887   2.258  1.00  0.00    -0.234 NA
ENDBRANCH  24  26
ENDBRANCH   3  19
TORSDOF 5
ENDMDL
