MODEL 1
REMARK VINA RESULT:      -8.4      0.000      0.000
REMARK  4 active torsions:
REMARK  status: ('A' for Active; 'I' for Inactive)
REMARK    1  A    between atoms: N_7  and  N_8 
REMARK       I    between atoms: N_8  and  C_9 
REMARK    2  A    between atoms: C_9  and  C_10 
REMARK    3  A    between atoms: C_10  and  N_11 
REMARK    4  A    between atoms: N_11  and  C_12 
ROOT
HETATM    1  N   UNL     1      43.089 -14.479   3.619  1.00  0.00    -0.245 N 
HETATM    2  C   UNL     1      41.914 -13.762   3.777  1.00  0.00     0.250 C 
HETATM    3  O   UNL     1      40.784 -14.186   3.534  1.00  0.00    -0.270 OA
HETATM    4  H   UNL     1      43.969 -14.121   3.995  1.00  0.00     0.192 HD
ENDROOT
BRANCH   1   5
HETATM    5  N   UNL     1      43.059 -15.732   3.072  1.00  0.00    -0.166 NA
HETATM    6  C   UNL     1      43.428 -16.709   3.836  1.00  0.00     0.157 A 
HETATM    7  C   UNL     1      43.484 -18.114   3.452  1.00  0.00     0.027 A 
HETATM    8  C   UNL     1      43.894 -16.655   5.294  1.00  0.00     0.277 A 
HETATM    9  C   UNL     1      43.197 -18.732   2.253  1.00  0.00     0.016 A 
HETATM   10  C   UNL     1      43.928 -18.815   4.572  1.00  0.00     0.048 A 
HETATM   11  C   UNL     1      43.367 -20.118   2.200  1.00  0.00     0.001 A 
HETATM   12  C   UNL     1      43.813 -20.835   3.331  1.00  0.00     0.002 A 
HETATM   13  C   UNL     1      44.098 -20.183   4.537  1.00  0.00     0.030 A 
HETATM   14  N   UNL     1      44.160 -17.959   5.648  1.00  0.00    -0.321 N 
HETATM   15  H   UNL     1      44.489 -18.234   6.561  1.00  0.00     0.169 HD
HETATM   16  O   UNL     1      43.998 -15.638   5.948  1.00  0.00    -0.266 OA
ENDBRANCH   1   5
BRANCH   2  17
HETATM   17  C   UNL     1      42.135 -12.350   4.323  1.00  0.00     0.197 C 
BRANCH  17  18
HETATM   18  N   UNL     1      43.557 -12.095   4.581  1.00  0.00    -0.284 NA
HETATM   19  H   UNL     1      43.961 -11.565   3.807  1.00  0.00     0.128 HD
BRANCH  18  20
HETATM   20  C   UNL     1      43.983 -11.614   5.821  1.00  0.00     0.008 A 
HETATM   21  C   UNL     1      45.323 -11.593   6.223  1.00  0.00     0.025 A 
HETATM   22  C   UNL     1      45.708 -11.014   7.440  1.00  0.00     0.021 A 
HETATM   23  C   UNL     1      44.752 -10.420   8.257  1.00  0.00     0.011 A 
HETATM   24 BR   UNL     1      45.272  -9.626   9.891  1.00  0.00    -0.051 Br
HETATM   25  C   UNL     1      43.420 -10.392   7.863  1.00  0.00     0.021 A 
HETATM   26  C   UNL     1      43.047 -10.972   6.647  1.00  0.00     0.025 A 
ENDBRANCH  18  20
ENDBRANCH  17  18
ENDBRANCH   2  17
TORSDOF 4
ENDMDL
MODEL 2
REMARK VINA RESULT:      -7.9      2.914      4.285
REMARK  4 active torsions:
REMARK  status: ('A' for Active; 'I' for Inactive)
REMARK    1  A    between atoms: N_7  and  N_8 
REMARK       I    between atoms: N_8  and  C_9 
REMARK    2  A    between atoms: C_9  and  C_10 
REMARK    3  A    between atoms: C_10  and  N_11 
REMARK    4  A    between atoms: N_11  and  C_12 
ROOT
HETATM    1  N   UNL     1      43.228 -13.349   7.146  1.00  0.00    -0.245 N 
HETATM    2  C   UNL     1      44.140 -12.306   7.176  1.00  0.00     0.250 C 
HETATM    3  O   UNL     1      45.215 -12.285   6.577  1.00  0.00    -0.270 OA
HETATM    4  H   UNL     1      42.289 -13.227   7.532  1.00  0.00     0.192 HD
ENDROOT
BRANCH   1   5
HETATM    5  N   UNL     1      43.531 -14.506   6.486  1.00  0.00    -0.166 NA
HETATM    6  C   UNL     1      42.898 -14.729   5.379  1.00  0.00     0.157 A 
HETATM    7  C   UNL     1      43.057 -15.900   4.528  1.00  0.00     0.027 A 
HETATM    8  C   UNL     1      41.842 -13.855   4.694  1.00  0.00     0.277 A 
HETATM    9  C   UNL     1      43.857 -17.015   4.672  1.00  0.00     0.016 A 
HETATM   10  C   UNL     1      42.193 -15.729   3.448  1.00  0.00     0.048 A 
HETATM   11  C   UNL     1      43.769 -17.988   3.672  1.00  0.00     0.001 A 
HETATM   12  C   UNL     1      42.899 -17.820   2.574  1.00  0.00     0.002 A 
HETATM   13  C   UNL     1      42.098 -16.678   2.452  1.00  0.00     0.030 A 
HETATM   14  N   UNL     1      41.490 -14.529   3.546  1.00  0.00    -0.321 N 
HETATM   15  H   UNL     1      40.805 -14.190   2.888  1.00  0.00     0.169 HD
HETATM   16  O   UNL     1      41.432 -12.798   5.129  1.00  0.00    -0.266 OA
ENDBRANCH   1   5
BRANCH   2  17
HETATM   17  C   UNL     1      43.678 -11.122   8.028  1.00  0.00     0.197 C 
BRANCH  17  18
HETATM   18  N   UNL     1      44.039 -11.307   9.438  1.00  0.00    -0.284 NA
HETATM   19  H   UNL     1      45.033 -11.526   9.516  1.00  0.00     0.128 HD
BRANCH  18  20
HETATM   20  C   UNL     1      43.629 -10.388  10.406  1.00  0.00     0.008 A 
HETATM   21  C   UNL     1      43.288 -10.745  11.716  1.00  0.00     0.025 A 
HETATM   22  C   UNL     1      42.973  -9.774  12.676  1.00  0.00     0.021 A 
HETATM   23  C   UNL     1      43.027  -8.426  12.340  1.00  0.00     0.011 A 
HETATM   24 BR   UNL     1      42.619  -7.115  13.638  1.00  0.00    -0.051 Br
HETATM   25  C   UNL     1      43.403  -8.042  11.059  1.00  0.00     0.021 A 
HETATM   26  C   UNL     1      43.715  -9.019  10.108  1.00  0.00     0.025 A 
ENDBRANCH  18  20
ENDBRANCH  17  18
ENDBRANCH   2  17
TORSDOF 4
ENDMDL
MODEL 3
REMARK VINA RESULT:      -7.8      2.454      3.769
REMARK  4 active torsions:
REMARK  status: ('A' for Active; 'I' for Inactive)
REMARK    1  A    between atoms: N_7  and  N_8 
REMARK       I    between atoms: N_8  and  C_9 
REMARK    2  A    between atoms: C_9  and  C_10 
REMARK    3  A    between atoms: C_10  and  N_11 
REMARK    4  A    between atoms: N_11  and  C_12 
ROOT
HETATM    1  N   UNL     1      42.940 -13.220   6.584  1.00  0.00    -0.245 N 
HETATM    2  C   UNL     1      43.843 -12.194   6.809  1.00  0.00     0.250 C 
HETATM    3  O   UNL     1      45.066 -12.290   6.712  1.00  0.00    -0.270 OA
HETATM    4  H   UNL     1      41.938 -13.024   6.522  1.00  0.00     0.192 HD
ENDROOT
BRANCH   1   5
HETATM    5  N   UNL     1      43.390 -14.482   6.315  1.00  0.00    -0.166 NA
HETATM    6  C   UNL     1      43.136 -14.951   5.135  1.00  0.00     0.157 A 
HETATM    7  C   UNL     1      43.510 -16.272   4.646  1.00  0.00     0.027 A 
HETATM    8  C   UNL     1      42.394 -14.273   3.979  1.00  0.00     0.277 A 
HETATM    9  C   UNL     1      44.173 -17.308   5.270  1.00  0.00     0.016 A 
HETATM   10  C   UNL     1      43.046 -16.357   3.335  1.00  0.00     0.048 A 
HETATM   11  C   UNL     1      44.370 -18.473   4.523  1.00  0.00     0.001 A 
HETATM   12  C   UNL     1      43.906 -18.565   3.194  1.00  0.00     0.002 A 
HETATM   13  C   UNL     1      43.235 -17.498   2.584  1.00  0.00     0.030 A 
HETATM   14  N   UNL     1      42.400 -15.185   2.948  1.00  0.00    -0.321 N 
HETATM   15  H   UNL     1      41.978 -15.012   2.048  1.00  0.00     0.169 HD
HETATM   16  O   UNL     1      41.911 -13.160   4.028  1.00  0.00    -0.266 OA
ENDBRANCH   1   5
BRANCH   2  17
HETATM   17  C   UNL     1      43.174 -10.868   7.180  1.00  0.00     0.197 C 
BRANCH  17  18
HETATM   18  N   UNL     1      44.087 -10.003   7.936  1.00  0.00    -0.284 NA
HETATM   19  H   UNL     1      44.420  -9.244   7.340  1.00  0.00     0.128 HD
BRANCH  18  20
HETATM   20  C   UNL     1      43.750  -9.554   9.214  1.00  0.00     0.008 A 
HETATM   21  C   UNL     1      43.843 -10.348  10.363  1.00  0.00     0.025 A 
HETATM   22  C   UNL     1      43.582  -9.820  11.635  1.00  0.00     0.021 A 
HETATM   23  C   UNL     1      43.254  -8.476  11.773  1.00  0.00     0.011 A 
HETATM   24 BR   UNL     1      42.918  -7.760  13.489  1.00  0.00    -0.051 Br
HETATM   25  C   UNL     1      43.195  -7.656  10.654  1.00  0.00     0.021 A 
HETATM   26  C   UNL     1      43.456  -8.192   9.389  1.00  0.00     0.025 A 
ENDBRANCH  18  20
ENDBRANCH  17  18
ENDBRANCH   2  17
TORSDOF 4
ENDMDL
MODEL 4
REMARK VINA RESULT:      -7.7      0.950      1.128
REMARK  4 active torsions:
REMARK  status: ('A' for Active; 'I' for Inactive)
REMARK    1  A    between atoms: N_7  and  N_8 
REMARK       I    between atoms: N_8  and  C_9 
REMARK    2  A    between atoms: C_9  and  C_10 
REMARK    3  A    between atoms: C_10  and  N_11 
REMARK    4  A    between atoms: N_11  and  C_12 
ROOT
HETATM    1  N   UNL     1      42.904 -14.393   3.817  1.00  0.00    -0.245 N 
HETATM    2  C   UNL     1      41.712 -13.793   4.189  1.00  0.00     0.250 C 
HETATM    3  O   UNL     1      40.598 -14.308   4.090  1.00  0.00    -0.270 OA
HETATM    4  H   UNL     1      43.799 -13.973   4.080  1.00  0.00     0.192 HD
ENDROOT
BRANCH   1   5
HETATM    5  N   UNL     1      42.896 -15.616   3.208  1.00  0.00    -0.166 NA
HETATM    6  C   UNL     1      43.326 -16.617   3.907  1.00  0.00     0.157 A 
HETATM    7  C   UNL     1      43.416 -17.998   3.450  1.00  0.00     0.027 A 
HETATM    8  C   UNL     1      43.844 -16.620   5.349  1.00  0.00     0.277 A 
HETATM    9  C   UNL     1      43.104 -18.565   2.232  1.00  0.00     0.016 A 
HETATM   10  C   UNL     1      43.923 -18.738   4.516  1.00  0.00     0.048 A 
HETATM   11  C   UNL     1      43.319 -19.940   2.102  1.00  0.00     0.001 A 
HETATM   12  C   UNL     1      43.830 -20.696   3.178  1.00  0.00     0.002 A 
HETATM   13  C   UNL     1      44.138 -20.095   4.405  1.00  0.00     0.030 A 
HETATM   14  N   UNL     1      44.167 -17.929   5.625  1.00  0.00    -0.321 N 
HETATM   15  H   UNL     1      44.538 -18.238   6.511  1.00  0.00     0.169 HD
HETATM   16  O   UNL     1      43.939 -15.633   6.050  1.00  0.00    -0.266 OA
ENDBRANCH   1   5
BRANCH   2  17
HETATM   17  C   UNL     1      41.895 -12.393   4.777  1.00  0.00     0.197 C 
BRANCH  17  18
HETATM   18  N   UNL     1      42.921 -12.386   5.827  1.00  0.00    -0.284 NA
HETATM   19  H   UNL     1      43.812 -12.708   5.444  1.00  0.00     0.128 HD
BRANCH  18  20
HETATM   20  C   UNL     1      43.081 -11.279   6.661  1.00  0.00     0.008 A 
HETATM   21  C   UNL     1      44.183 -11.099   7.506  1.00  0.00     0.025 A 
HETATM   22  C   UNL     1      44.342  -9.926   8.255  1.00  0.00     0.021 A 
HETATM   23  C   UNL     1      43.410  -8.900   8.141  1.00  0.00     0.011 A 
HETATM   24 BR   UNL     1      43.632  -7.310   9.138  1.00  0.00    -0.051 Br
HETATM   25  C   UNL     1      42.328  -9.035   7.280  1.00  0.00     0.021 A 
HETATM   26  C   UNL     1      42.178 -10.210   6.537  1.00  0.00     0.025 A 
ENDBRANCH  18  20
ENDBRANCH  17  18
ENDBRANCH   2  17
TORSDOF 4
ENDMDL
MODEL 5
REMARK VINA RESULT:      -7.7      1.960      2.661
REMARK  4 active torsions:
REMARK  status: ('A' for Active; 'I' for Inactive)
REMARK    1  A    between atoms: N_7  and  N_8 
REMARK       I    between atoms: N_8  and  C_9 
REMARK    2  A    between atoms: C_9  and  C_10 
REMARK    3  A    between atoms: C_10  and  N_11 
REMARK    4  A    between atoms: N_11  and  C_12 
ROOT
HETATM    1  N   UNL     1      42.448 -12.706   5.054  1.00  0.00    -0.245 N 
HETATM    2  C   UNL     1      43.300 -11.618   4.943  1.00  0.00     0.250 C 
HETATM    3  O   UNL     1      44.141 -11.462   4.057  1.00  0.00    -0.270 OA
HETATM    4  H   UNL     1      41.669 -12.687   5.716  1.00  0.00     0.192 HD
ENDROOT
BRANCH   1   5
HETATM    5  N   UNL     1      42.564 -13.759   4.190  1.00  0.00    -0.166 NA
HETATM    6  C   UNL     1      43.045 -14.858   4.674  1.00  0.00     0.157 A 
HETATM    7  C   UNL     1      43.264 -16.091   3.930  1.00  0.00     0.027 A 
HETATM    8  C   UNL     1      43.503 -15.149   6.108  1.00  0.00     0.277 A 
HETATM    9  C   UNL     1      43.049 -16.390   2.600  1.00  0.00     0.016 A 
HETATM   10  C   UNL     1      43.787 -17.014   4.833  1.00  0.00     0.048 A 
HETATM   11  C   UNL     1      43.380 -17.682   2.182  1.00  0.00     0.001 A 
HETATM   12  C   UNL     1      43.907 -18.623   3.092  1.00  0.00     0.002 A 
HETATM   13  C   UNL     1      44.116 -18.294   4.437  1.00  0.00     0.030 A 
HETATM   14  N   UNL     1      43.920 -16.461   6.105  1.00  0.00    -0.321 N 
HETATM   15  H   UNL     1      44.279 -16.933   6.921  1.00  0.00     0.169 HD
HETATM   16  O   UNL     1      43.490 -14.341   7.013  1.00  0.00    -0.266 OA
ENDBRANCH   1   5
BRANCH   2  17
HETATM   17  C   UNL     1      43.091 -10.570   6.038  1.00  0.00     0.197 C 
BRANCH  17  18
HETATM   18  N   UNL     1      44.200 -10.576   6.999  1.00  0.00    -0.284 NA
HETATM   19  H   UNL     1      45.032 -10.162   6.573  1.00  0.00     0.128 HD
BRANCH  18  20
HETATM   20  C   UNL     1      44.011 -10.134   8.310  1.00  0.00     0.008 A 
HETATM   21  C   UNL     1      45.028 -10.109   9.272  1.00  0.00     0.025 A 
HETATM   22  C   UNL     1      44.809  -9.569  10.547  1.00  0.00     0.021 A 
HETATM   23  C   UNL     1      43.573  -9.017  10.862  1.00  0.00     0.011 A 
HETATM   24 BR   UNL     1      43.282  -8.274  12.575  1.00  0.00    -0.051 Br
HETATM   25  C   UNL     1      42.559  -8.992   9.913  1.00  0.00     0.021 A 
HETATM   26  C   UNL     1      42.786  -9.534   8.644  1.00  0.00     0.025 A 
ENDBRANCH  18  20
ENDBRANCH  17  18
ENDBRANCH   2  17
TORSDOF 4
ENDMDL
MODEL 6
REMARK VINA RESULT:      -7.6      5.061      6.356
REMARK  4 active torsions:
REMARK  status: ('A' for Active; 'I' for Inactive)
REMARK    1  A    between atoms: N_7  and  N_8 
REMARK       I    between atoms: N_8  and  C_9 
REMARK    2  A    between atoms: C_9  and  C_10 
REMARK    3  A    between atoms: C_10  and  N_11 
REMARK    4  A    between atoms: N_11  and  C_12 
ROOT
HETATM    1  N   UNL     1      42.249 -14.851   0.980  1.00  0.00    -0.245 N 
HETATM    2  C   UNL     1      40.973 -14.500   0.567  1.00  0.00     0.250 C 
HETATM    3  O   UNL     1      40.011 -15.266   0.505  1.00  0.00    -0.270 OA
HETATM    4  H   UNL     1      42.950 -14.129   1.163  1.00  0.00     0.192 HD
ENDROOT
BRANCH   1   5
HETATM    5  N   UNL     1      42.541 -16.154   1.271  1.00  0.00    -0.166 NA
HETATM    6  C   UNL     1      42.935 -16.407   2.477  1.00  0.00     0.157 A 
HETATM    7  C   UNL     1      43.309 -17.717   2.993  1.00  0.00     0.027 A 
HETATM    8  C   UNL     1      43.115 -15.431   3.645  1.00  0.00     0.277 A 
HETATM    9  C   UNL     1      43.356 -18.948   2.373  1.00  0.00     0.016 A 
HETATM   10  C   UNL     1      43.662 -17.533   4.328  1.00  0.00     0.048 A 
HETATM   11  C   UNL     1      43.778 -20.031   3.150  1.00  0.00     0.001 A 
HETATM   12  C   UNL     1      44.134 -19.853   4.504  1.00  0.00     0.002 A 
HETATM   13  C   UNL     1      44.077 -18.591   5.109  1.00  0.00     0.030 A 
HETATM   14  N   UNL     1      43.541 -16.197   4.707  1.00  0.00    -0.321 N 
HETATM   15  H   UNL     1      43.744 -15.821   5.620  1.00  0.00     0.169 HD
HETATM   16  O   UNL     1      42.917 -14.235   3.582  1.00  0.00    -0.266 OA
ENDBRANCH   1   5
BRANCH   2  17
HETATM   17  C   UNL     1      40.840 -13.020   0.201  1.00  0.00     0.197 C 
BRANCH  17  18
HETATM   18  N   UNL     1      40.866 -12.826  -1.253  1.00  0.00    -0.284 NA
HETATM   19  H   UNL     1      40.075 -13.311  -1.682  1.00  0.00     0.128 HD
BRANCH  18  20
HETATM   20  C   UNL     1      41.060 -11.557  -1.801  1.00  0.00     0.008 A 
HETATM   21  C   UNL     1      40.775 -11.238  -3.134  1.00  0.00     0.025 A 
HETATM   22  C   UNL     1      40.900  -9.926  -3.610  1.00  0.00     0.021 A 
HETATM   23  C   UNL     1      41.283  -8.908  -2.743  1.00  0.00     0.011 A 
HETATM   24 BR   UNL     1      41.435  -7.136  -3.381  1.00  0.00    -0.051 Br
HETATM   25  C   UNL     1      41.532  -9.190  -1.406  1.00  0.00     0.021 A 
HETATM   26  C   UNL     1      41.405 -10.503  -0.941  1.00  0.00     0.025 A 
ENDBRANCH  18  20
ENDBRANCH  17  18
ENDBRANCH   2  17
TORSDOF 4
ENDMDL
MODEL 7
REMARK VINA RESULT:      -7.4      4.946     10.142
REMARK  4 active torsions:
REMARK  status: ('A' for Active; 'I' for Inactive)
REMARK    1  A    between atoms: N_7  and  N_8 
REMARK       I    between atoms: N_8  and  C_9 
REMARK    2  A    between atoms: C_9  and  C_10 
REMARK    3  A    between atoms: C_10  and  N_11 
REMARK    4  A    between atoms: N_11  and  C_12 
ROOT
HETATM    1  N   UNL     1      43.420 -10.940   9.303  1.00  0.00    -0.245 N 
HETATM    2  C   UNL     1      44.572 -11.137   8.559  1.00  0.00     0.250 C 
HETATM    3  O   UNL     1      45.706 -10.802   8.903  1.00  0.00    -0.270 OA
HETATM    4  H   UNL     1      42.544 -11.391   9.029  1.00  0.00     0.192 HD
ENDROOT
BRANCH   1   5
HETATM    5  N   UNL     1      43.473 -10.247  10.480  1.00  0.00    -0.166 NA
HETATM    6  C   UNL     1      42.916  -9.079  10.493  1.00  0.00     0.157 A 
HETATM    7  C   UNL     1      42.870  -8.172  11.633  1.00  0.00     0.027 A 
HETATM    8  C   UNL     1      42.187  -8.358   9.355  1.00  0.00     0.277 A 
HETATM    9  C   UNL     1      43.385  -8.299  12.906  1.00  0.00     0.016 A 
HETATM   10  C   UNL     1      42.177  -7.039  11.212  1.00  0.00     0.048 A 
HETATM   11  C   UNL     1      43.181  -7.227  13.780  1.00  0.00     0.001 A 
HETATM   12  C   UNL     1      42.477  -6.078  13.361  1.00  0.00     0.002 A 
HETATM   13  C   UNL     1      41.964  -5.975  12.062  1.00  0.00     0.030 A 
HETATM   14  N   UNL     1      41.775  -7.155   9.882  1.00  0.00    -0.321 N 
HETATM   15  H   UNL     1      41.263  -6.462   9.357  1.00  0.00     0.169 HD
HETATM   16  O   UNL     1      42.046  -8.803   8.235  1.00  0.00    -0.266 OA
ENDBRANCH   1   5
BRANCH   2  17
HETATM   17  C   UNL     1      44.321 -11.856   7.232  1.00  0.00     0.197 C 
BRANCH  17  18
HETATM   18  N   UNL     1      43.574 -13.103   7.433  1.00  0.00    -0.284 NA
HETATM   19  H   UNL     1      42.707 -12.911   7.939  1.00  0.00     0.128 HD
BRANCH  18  20
HETATM   20  C   UNL     1      43.376 -13.995   6.378  1.00  0.00     0.008 A 
HETATM   21  C   UNL     1      42.909 -13.609   5.116  1.00  0.00     0.025 A 
HETATM   22  C   UNL     1      42.816 -14.529   4.063  1.00  0.00     0.021 A 
HETATM   23  C   UNL     1      43.221 -15.845   4.256  1.00  0.00     0.011 A 
HETATM   24 BR   UNL     1      43.110 -17.083   2.832  1.00  0.00    -0.051 Br
HETATM   25  C   UNL     1      43.725 -16.246   5.487  1.00  0.00     0.021 A 
HETATM   26  C   UNL     1      43.814 -15.320   6.531  1.00  0.00     0.025 A 
ENDBRANCH  18  20
ENDBRANCH  17  18
ENDBRANCH   2  17
TORSDOF 4
ENDMDL
MODEL 8
REMARK VINA RESULT:      -7.4      4.791      7.905
REMARK  4 active torsions:
REMARK  status: ('A' for Active; 'I' for Inactive)
REMARK    1  A    between atoms: N_7  and  N_8 
REMARK       I    between atoms: N_8  and  C_9 
REMARK    2  A    between atoms: C_9  and  C_10 
REMARK    3  A    between atoms: C_10  and  N_11 
REMARK    4  A    between atoms: N_11  and  C_12 
ROOT
HETATM    1  N   UNL     1      41.459 -13.546   2.580  1.00  0.00    -0.245 N 
HETATM    2  C   UNL     1      41.707 -13.177   3.893  1.00  0.00     0.250 C 
HETATM    3  O   UNL     1      41.870 -12.022   4.288  1.00  0.00    -0.270 OA
HETATM    4  H   UNL     1      41.171 -14.501   2.357  1.00  0.00     0.192 HD
ENDROOT
BRANCH   1   5
HETATM    5  N   UNL     1      41.471 -12.604   1.590  1.00  0.00    -0.166 NA
HETATM    6  C   UNL     1      40.893 -12.923   0.476  1.00  0.00     0.157 A 
HETATM    7  C   UNL     1      40.803 -12.079  -0.707  1.00  0.00     0.027 A 
HETATM    8  C   UNL     1      40.179 -14.230   0.114  1.00  0.00     0.277 A 
HETATM    9  C   UNL     1      41.289 -10.811  -0.948  1.00  0.00     0.016 A 
HETATM   10  C   UNL     1      40.100 -12.808  -1.664  1.00  0.00     0.048 A 
HETATM   11  C   UNL     1      41.044 -10.270  -2.213  1.00  0.00     0.001 A 
HETATM   12  C   UNL     1      40.330 -11.001  -3.186  1.00  0.00     0.002 A 
HETATM   13  C   UNL     1      39.847 -12.288  -2.916  1.00  0.00     0.030 A 
HETATM   14  N   UNL     1      39.732 -14.062  -1.178  1.00  0.00    -0.321 N 
HETATM   15  H   UNL     1      39.222 -14.767  -1.687  1.00  0.00     0.169 HD
HETATM   16  O   UNL     1      40.074 -15.187   0.853  1.00  0.00    -0.266 OA
ENDBRANCH   1   5
BRANCH   2  17
HETATM   17  C   UNL     1      41.740 -14.363   4.860  1.00  0.00     0.197 C 
BRANCH  17  18
HETATM   18  N   UNL     1      43.019 -15.078   4.782  1.00  0.00    -0.284 NA
HETATM   19  H   UNL     1      43.475 -15.077   5.696  1.00  0.00     0.128 HD
BRANCH  18  20
HETATM   20  C   UNL     1      43.104 -16.324   4.159  1.00  0.00     0.008 A 
HETATM   21  C   UNL     1      42.494 -16.620   2.934  1.00  0.00     0.025 A 
HETATM   22  C   UNL     1      42.686 -17.858   2.306  1.00  0.00     0.021 A 
HETATM   23  C   UNL     1      43.522 -18.806   2.886  1.00  0.00     0.011 A 
HETATM   24 BR   UNL     1      43.795 -20.469   2.032  1.00  0.00    -0.051 Br
HETATM   25  C   UNL     1      44.172 -18.523   4.081  1.00  0.00     0.021 A 
HETATM   26  C   UNL     1      43.973 -17.285   4.700  1.00  0.00     0.025 A 
ENDBRANCH  18  20
ENDBRANCH  17  18
ENDBRANCH   2  17
TORSDOF 4
ENDMDL
MODEL 9
REMARK VINA RESULT:      -7.3     15.462     17.057
REMARK  4 active torsions:
REMARK  status: ('A' for Active; 'I' for Inactive)
REMARK    1  A    between atoms: N_7  and  N_8 
REMARK       I    between atoms: N_8  and  C_9 
REMARK    2  A    between atoms: C_9  and  C_10 
REMARK    3  A    between atoms: C_10  and  N_11 
REMARK    4  A    between atoms: N_11  and  C_12 
ROOT
HETATM    1  N   UNL     1      45.247 -29.601   2.891  1.00  0.00    -0.245 N 
HETATM    2  C   UNL     1      44.496 -30.194   1.889  1.00  0.00     0.250 C 
HETATM    3  O   UNL     1      44.477 -31.398   1.633  1.00  0.00    -0.270 OA
HETATM    4  H   UNL     1      45.086 -28.625   3.151  1.00  0.00     0.192 HD
ENDROOT
BRANCH   1   5
HETATM    5  N   UNL     1      46.118 -30.351   3.630  1.00  0.00    -0.166 NA
HETATM    6  C   UNL     1      47.360 -29.986   3.613  1.00  0.00     0.157 A 
HETATM    7  C   UNL     1      48.451 -30.649   4.314  1.00  0.00     0.027 A 
HETATM    8  C   UNL     1      47.996 -28.804   2.873  1.00  0.00     0.277 A 
HETATM    9  C   UNL     1      48.456 -31.773   5.114  1.00  0.00     0.016 A 
HETATM   10  C   UNL     1      49.607 -29.926   4.026  1.00  0.00     0.048 A 
HETATM   11  C   UNL     1      49.690 -32.170   5.638  1.00  0.00     0.001 A 
HETATM   12  C   UNL     1      50.864 -31.442   5.352  1.00  0.00     0.002 A 
HETATM   13  C   UNL     1      50.831 -30.303   4.537  1.00  0.00     0.030 A 
HETATM   14  N   UNL     1      49.335 -28.846   3.188  1.00  0.00    -0.321 N 
HETATM   15  H   UNL     1      50.011 -28.184   2.839  1.00  0.00     0.169 HD
HETATM   16  O   UNL     1      47.390 -28.031   2.158  1.00  0.00    -0.266 OA
ENDBRANCH   1   5
BRANCH   2  17
HETATM   17  C   UNL     1      43.637 -29.198   1.106  1.00  0.00     0.197 C 
BRANCH  17  18
HETATM   18  N   UNL     1      44.432 -28.487   0.098  1.00  0.00    -0.284 NA
HETATM   19  H   UNL     1      45.376 -28.323   0.451  1.00  0.00     0.128 HD
BRANCH  18  20
HETATM   20  C   UNL     1      44.439 -28.908  -1.233  1.00  0.00     0.008 A 
HETATM   21  C   UNL     1      44.967 -28.148  -2.283  1.00  0.00     0.025 A 
HETATM   22  C   UNL     1      45.034 -28.655  -3.587  1.00  0.00     0.021 A 
HETATM   23  C   UNL     1      44.598 -29.949  -3.850  1.00  0.00     0.011 A 
HETATM   24 BR   UNL     1      44.703 -30.641  -5.605  1.00  0.00    -0.051 Br
HETATM   25  C   UNL     1      44.107 -30.741  -2.819  1.00  0.00     0.021 A 
HETATM   26  C   UNL     1      44.043 -30.225  -1.521  1.00  0.00     0.025 A 
ENDBRANCH  18  20
ENDBRANCH  17  18
ENDBRANCH   2  17
TORSDOF 4
ENDMDL
MODEL 10
REMARK VINA RESULT:      -7.2      3.728      8.720
REMARK  4 active torsions:
REMARK  status: ('A' for Active; 'I' for Inactive)
REMARK    1  A    between atoms: N_7  and  N_8 
REMARK       I    between atoms: N_8  and  C_9 
REMARK    2  A    between atoms: C_9  and  C_10 
REMARK    3  A    between atoms: C_10  and  N_11 
REMARK    4  A    between atoms: N_11  and  C_12 
ROOT
HETATM    1  N   UNL     1      43.215 -10.802   6.004  1.00  0.00    -0.245 N 
HETATM    2  C   UNL     1      42.683 -11.997   5.547  1.00  0.00     0.250 C 
HETATM    3  O   UNL     1      41.677 -12.545   5.996  1.00  0.00    -0.270 OA
HETATM    4  H   UNL     1      43.951 -10.327   5.477  1.00  0.00     0.192 HD
ENDROOT
BRANCH   1   5
HETATM    5  N   UNL     1      42.671 -10.182   7.094  1.00  0.00    -0.166 NA
HETATM    6  C   UNL     1      43.423 -10.082   8.143  1.00  0.00     0.157 A 
HETATM    7  C   UNL     1      43.039  -9.473   9.409  1.00  0.00     0.027 A 
HETATM    8  C   UNL     1      44.865 -10.565   8.331  1.00  0.00     0.277 A 
HETATM    9  C   UNL     1      41.851  -8.897   9.808  1.00  0.00     0.016 A 
HETATM   10  C   UNL     1      44.144  -9.577  10.252  1.00  0.00     0.048 A 
HETATM   11  C   UNL     1      41.794  -8.408  11.116  1.00  0.00     0.001 A 
HETATM   12  C   UNL     1      42.910  -8.507  11.974  1.00  0.00     0.002 A 
HETATM   13  C   UNL     1      44.105  -9.097  11.544  1.00  0.00     0.030 A 
HETATM   14  N   UNL     1      45.210 -10.211   9.616  1.00  0.00    -0.321 N 
HETATM   15  H   UNL     1      46.112 -10.404  10.024  1.00  0.00     0.169 HD
HETATM   16  O   UNL     1      45.514 -11.146   7.485  1.00  0.00    -0.266 OA
ENDBRANCH   1   5
BRANCH   2  17
HETATM   17  C   UNL     1      43.462 -12.597   4.374  1.00  0.00     0.197 C 
BRANCH  17  18
HETATM   18  N   UNL     1      42.608 -13.464   3.555  1.00  0.00    -0.284 NA
HETATM   19  H   UNL     1      42.391 -13.003   2.670  1.00  0.00     0.128 HD
BRANCH  18  20
HETATM   20  C   UNL     1      42.920 -14.814   3.378  1.00  0.00     0.008 A 
HETATM   21  C   UNL     1      42.974 -15.739   4.426  1.00  0.00     0.025 A 
HETATM   22  C   UNL     1      43.202 -17.101   4.183  1.00  0.00     0.021 A 
HETATM   23  C   UNL     1      43.346 -17.556   2.878  1.00  0.00     0.011 A 
HETATM   24 BR   UNL     1      43.636 -19.394   2.548  1.00  0.00    -0.051 Br
HETATM   25  C   UNL     1      43.257 -16.665   1.815  1.00  0.00     0.021 A 
HETATM   26  C   UNL     1      43.030 -15.308   2.068  1.00  0.00     0.025 A 
ENDBRANCH  18  20
ENDBRANCH  17  18
ENDBRANCH   2  17
TORSDOF 4
ENDMDL
