MODEL 1
REMARK VINA RESULT:      -8.4      0.000      0.000
REMARK  7 active torsions:
REMARK  status: ('A' for Active; 'I' for Inactive)
REMARK    1  A    between atoms: C_2  and  C_3 
REMARK    2  A    between atoms: C_3  and  O_4 
REMARK    3  A    between atoms: O_4  and  C_5 
REMARK    4  A    between atoms: C_8  and  N_9 
REMARK    5  A    between atoms: C_12  and  N_13 
REMARK    6  A    between atoms: C_17  and  O_18 
REMARK    7  A    between atoms: C_17  and  C_19 
ROOT
HETATM    1  N   UNL     1      42.287 -13.415   5.147  1.00  0.00    -0.251 N 
HETATM    2  C   UNL     1      43.157 -12.669   5.910  1.00  0.00     0.262 C 
HETATM    3  O   UNL     1      44.378 -12.667   5.984  1.00  0.00    -0.270 OA
HETATM    4  C   UNL     1      42.333 -11.715   6.741  1.00  0.00     0.289 C 
HETATM    5  C   UNL     1      41.064 -11.567   5.948  1.00  0.00     0.146 C 
HETATM    6  C   UNL     1      41.014 -12.879   5.214  1.00  0.00     0.233 C 
HETATM    7  O   UNL     1      39.959 -13.303   4.773  1.00  0.00    -0.273 OA
ENDROOT
BRANCH   4   8
HETATM    8  N   UNL     1      43.034 -10.391   7.093  1.00  0.00    -0.058 N 
HETATM    9  H   UNL     1      43.531 -10.147   6.217  1.00  0.00     0.281 HD
HETATM   10  C   UNL     1      42.115  -9.212   7.346  1.00  0.00     0.239 C 
HETATM   11  C   UNL     1      42.941  -7.956   7.574  1.00  0.00     0.071 C 
HETATM   12  C   UNL     1      43.917  -8.117   8.761  1.00  0.00     0.088 C 
HETATM   13  C   UNL     1      44.848  -9.287   8.384  1.00  0.00     0.071 C 
HETATM   14  C   UNL     1      44.080 -10.579   8.164  1.00  0.00     0.239 C 
BRANCH  12  15
HETATM   15  O   UNL     1      44.731  -6.944   8.784  1.00  0.00    -0.385 OA
HETATM   16  H   UNL     1      45.425  -7.010   8.102  1.00  0.00     0.211 HD
ENDBRANCH  12  15
BRANCH  12  17
HETATM   17  C   UNL     1      43.237  -8.251  10.129  1.00  0.00    -0.024 A 
HETATM   18  C   UNL     1      43.870  -8.888  11.214  1.00  0.00     0.011 A 
HETATM   19  C   UNL     1      43.233  -9.030  12.452  1.00  0.00     0.020 A 
HETATM   20  C   UNL     1      41.960  -8.507  12.642  1.00  0.00     0.011 A 
HETATM   21 BR   UNL     1      41.094  -8.710  14.307  1.00  0.00    -0.051 Br
HETATM   22  C   UNL     1      41.331  -7.823  11.609  1.00  0.00     0.020 A 
HETATM   23  C   UNL     1      41.970  -7.682  10.372  1.00  0.00     0.011 A 
ENDBRANCH  12  17
ENDBRANCH   4   8
BRANCH   1  24
HETATM   24  C   UNL     1      42.642 -14.596   4.422  1.00  0.00     0.045 A 
HETATM   25  C   UNL     1      42.909 -14.558   3.043  1.00  0.00     0.033 A 
HETATM   26  C   UNL     1      43.326 -15.701   2.340  1.00  0.00     0.039 A 
HETATM   27  C   UNL     1      43.489 -16.911   3.002  1.00  0.00     0.068 A 
HETATM   28  C   UNL     1      43.184 -16.979   4.356  1.00  0.00     0.039 A 
HETATM   29  C   UNL     1      42.770 -15.839   5.058  1.00  0.00     0.033 A 
BRANCH  27  30
HETATM   30  O   UNL     1      43.917 -18.081   2.444  1.00  0.00    -0.351 OA
BRANCH  30  31
HETATM   31  C   UNL     1      42.922 -19.077   2.199  1.00  0.00     0.175 C 
BRANCH  31  32
HETATM   32  C   UNL     1      43.594 -20.442   2.302  1.00  0.00     0.022 C 
HETATM   33  C   UNL     1      43.858 -20.833   3.746  1.00  0.00     0.007 C 
ENDBRANCH  31  32
ENDBRANCH  30  31
ENDBRANCH  27  30
ENDBRANCH   1  24
TORSDOF 7
ENDMDL
MODEL 2
REMARK VINA RESULT:      -8.3      3.626     10.270
REMARK  7 active torsions:
REMARK  status: ('A' for Active; 'I' for Inactive)
REMARK    1  A    between atoms: C_2  and  C_3 
REMARK    2  A    between atoms: C_3  and  O_4 
REMARK    3  A    between atoms: O_4  and  C_5 
REMARK    4  A    between atoms: C_8  and  N_9 
REMARK    5  A    between atoms: C_12  and  N_13 
REMARK    6  A    between atoms: C_17  and  O_18 
REMARK    7  A    between atoms: C_17  and  C_19 
ROOT
HETATM    1  N   UNL     1      43.506 -10.176   8.191  1.00  0.00    -0.251 N 
HETATM    2  C   UNL     1      42.506 -10.459   7.288  1.00  0.00     0.262 C 
HETATM    3  O   UNL     1      41.427  -9.924   7.075  1.00  0.00    -0.270 OA
HETATM    4  C   UNL     1      42.953 -11.646   6.469  1.00  0.00     0.289 C 
HETATM    5  C   UNL     1      44.454 -11.588   6.561  1.00  0.00     0.146 C 
HETATM    6  C   UNL     1      44.647 -10.892   7.880  1.00  0.00     0.233 C 
HETATM    7  O   UNL     1      45.698 -11.000   8.490  1.00  0.00    -0.273 OA
ENDROOT
BRANCH   4   8
HETATM    8  N   UNL     1      42.395 -11.691   5.036  1.00  0.00    -0.058 N 
HETATM    9  H   UNL     1      42.080 -10.717   4.874  1.00  0.00     0.281 HD
HETATM   10  C   UNL     1      43.415 -11.945   3.944  1.00  0.00     0.239 C 
HETATM   11  C   UNL     1      42.744 -11.857   2.582  1.00  0.00     0.071 C 
HETATM   12  C   UNL     1      41.581 -12.864   2.448  1.00  0.00     0.088 C 
HETATM   13  C   UNL     1      40.569 -12.486   3.549  1.00  0.00     0.071 C 
HETATM   14  C   UNL     1      41.177 -12.577   4.938  1.00  0.00     0.239 C 
BRANCH  12  15
HETATM   15  O   UNL     1      40.942 -12.589   1.201  1.00  0.00    -0.385 OA
HETATM   16  H   UNL     1      40.185 -11.991   1.343  1.00  0.00     0.211 HD
ENDBRANCH  12  15
BRANCH  12  17
HETATM   17  C   UNL     1      42.012 -14.337   2.448  1.00  0.00    -0.024 A 
HETATM   18  C   UNL     1      43.144 -14.779   1.735  1.00  0.00     0.011 A 
HETATM   19  C   UNL     1      43.516 -16.128   1.718  1.00  0.00     0.020 A 
HETATM   20  C   UNL     1      42.781 -17.059   2.440  1.00  0.00     0.011 A 
HETATM   21 BR   UNL     1      43.272 -18.882   2.407  1.00  0.00    -0.051 Br
HETATM   22  C   UNL     1      41.693 -16.647   3.199  1.00  0.00     0.020 A 
HETATM   23  C   UNL     1      41.323 -15.297   3.215  1.00  0.00     0.011 A 
ENDBRANCH  12  17
ENDBRANCH   4   8
BRANCH   1  24
HETATM   24  C   UNL     1      43.371  -9.297   9.311  1.00  0.00     0.045 A 
HETATM   25  C   UNL     1      43.216  -7.910   9.144  1.00  0.00     0.033 A 
HETATM   26  C   UNL     1      43.012  -7.052  10.237  1.00  0.00     0.039 A 
HETATM   27  C   UNL     1      42.956  -7.562  11.527  1.00  0.00     0.068 A 
HETATM   28  C   UNL     1      43.154  -8.924  11.719  1.00  0.00     0.039 A 
HETATM   29  C   UNL     1      43.355  -9.780  10.628  1.00  0.00     0.033 A 
BRANCH  27  30
HETATM   30  O   UNL     1      42.732  -6.842  12.666  1.00  0.00    -0.351 OA
BRANCH  30  31
HETATM   31  C   UNL     1      43.351  -7.324  13.861  1.00  0.00     0.175 C 
BRANCH  31  32
HETATM   32  C   UNL     1      42.318  -7.252  14.981  1.00  0.00     0.022 C 
HETATM   33  C   UNL     1      41.409  -8.467  14.989  1.00  0.00     0.007 C 
ENDBRANCH  31  32
ENDBRANCH  30  31
ENDBRANCH  27  30
ENDBRANCH   1  24
TORSDOF 7
ENDMDL
MODEL 3
REMARK VINA RESULT:      -7.9      5.941     10.527
REMARK  7 active torsions:
REMARK  status: ('A' for Active; 'I' for Inactive)
REMARK    1  A    between atoms: C_2  and  C_3 
REMARK    2  A    between atoms: C_3  and  O_4 
REMARK    3  A    between atoms: O_4  and  C_5 
REMARK    4  A    between atoms: C_8  and  N_9 
REMARK    5  A    between atoms: C_12  and  N_13 
REMARK    6  A    between atoms: C_17  and  O_18 
REMARK    7  A    between atoms: C_17  and  C_19 
ROOT
HETATM    1  N   UNL     1      41.363 -12.199   4.263  1.00  0.00    -0.251 N 
HETATM    2  C   UNL     1      41.774 -12.031   2.961  1.00  0.00     0.262 C 
HETATM    3  O   UNL     1      42.888 -11.932   2.465  1.00  0.00    -0.270 OA
HETATM    4  C   UNL     1      40.540 -12.000   2.092  1.00  0.00     0.289 C 
HETATM    5  C   UNL     1      39.523 -12.758   2.902  1.00  0.00     0.146 C 
HETATM    6  C   UNL     1      40.019 -12.523   4.302  1.00  0.00     0.233 C 
HETATM    7  O   UNL     1      39.267 -12.643   5.254  1.00  0.00    -0.273 OA
ENDROOT
BRANCH   4   8
HETATM    8  N   UNL     1      40.743 -12.520   0.658  1.00  0.00    -0.058 N 
HETATM    9  H   UNL     1      41.651 -13.015   0.713  1.00  0.00     0.281 HD
HETATM   10  C   UNL     1      39.760 -13.580   0.202  1.00  0.00     0.239 C 
HETATM   11  C   UNL     1      40.144 -14.074  -1.184  1.00  0.00     0.071 C 
HETATM   12  C   UNL     1      40.181 -12.925  -2.215  1.00  0.00     0.088 C 
HETATM   13  C   UNL     1      41.249 -11.936  -1.704  1.00  0.00     0.071 C 
HETATM   14  C   UNL     1      40.908 -11.390  -0.328  1.00  0.00     0.239 C 
BRANCH  12  15
HETATM   15  O   UNL     1      40.690 -13.478  -3.428  1.00  0.00    -0.385 OA
HETATM   16  H   UNL     1      41.612 -13.769  -3.298  1.00  0.00     0.211 HD
ENDBRANCH  12  15
BRANCH  12  17
HETATM   17  C   UNL     1      38.813 -12.296  -2.516  1.00  0.00    -0.024 A 
HETATM   18  C   UNL     1      38.668 -10.916  -2.758  1.00  0.00     0.011 A 
HETATM   19  C   UNL     1      37.414 -10.346  -3.006  1.00  0.00     0.020 A 
HETATM   20  C   UNL     1      36.282 -11.150  -3.049  1.00  0.00     0.011 A 
HETATM   21 BR   UNL     1      34.588 -10.381  -3.369  1.00  0.00    -0.051 Br
HETATM   22  C   UNL     1      36.400 -12.523  -2.871  1.00  0.00     0.020 A 
HETATM   23  C   UNL     1      37.655 -13.091  -2.623  1.00  0.00     0.011 A 
ENDBRANCH  12  17
ENDBRANCH   4   8
BRANCH   1  24
HETATM   24  C   UNL     1      42.196 -12.024   5.413  1.00  0.00     0.045 A 
HETATM   25  C   UNL     1      42.956 -13.083   5.938  1.00  0.00     0.033 A 
HETATM   26  C   UNL     1      43.829 -12.898   7.023  1.00  0.00     0.039 A 
HETATM   27  C   UNL     1      43.966 -11.647   7.608  1.00  0.00     0.068 A 
HETATM   28  C   UNL     1      43.188 -10.597   7.134  1.00  0.00     0.039 A 
HETATM   29  C   UNL     1      42.318 -10.780   6.051  1.00  0.00     0.033 A 
BRANCH  27  30
HETATM   30  O   UNL     1      44.799 -11.330   8.642  1.00  0.00    -0.351 OA
BRANCH  30  31
HETATM   31  C   UNL     1      45.057  -9.941   8.856  1.00  0.00     0.175 C 
BRANCH  31  32
HETATM   32  C   UNL     1      45.072  -9.697  10.362  1.00  0.00     0.022 C 
HETATM   33  C   UNL     1      43.985 -10.484  11.072  1.00  0.00     0.007 C 
ENDBRANCH  31  32
ENDBRANCH  30  31
ENDBRANCH  27  30
ENDBRANCH   1  24
TORSDOF 7
ENDMDL
MODEL 4
REMARK VINA RESULT:      -7.6      5.372      8.433
REMARK  7 active torsions:
REMARK  status: ('A' for Active; 'I' for Inactive)
REMARK    1  A    between atoms: C_2  and  C_3 
REMARK    2  A    between atoms: C_3  and  O_4 
REMARK    3  A    between atoms: O_4  and  C_5 
REMARK    4  A    between atoms: C_8  and  N_9 
REMARK    5  A    between atoms: C_12  and  N_13 
REMARK    6  A    between atoms: C_17  and  O_18 
REMARK    7  A    between atoms: C_17  and  C_19 
ROOT
HETATM    1  N   UNL     1      40.090 -12.328   3.330  1.00  0.00    -0.251 N 
HETATM    2  C   UNL     1      40.614 -13.486   3.857  1.00  0.00     0.262 C 
HETATM    3  O   UNL     1      41.124 -14.463   3.327  1.00  0.00    -0.270 OA
HETATM    4  C   UNL     1      40.493 -13.400   5.359  1.00  0.00     0.289 C 
HETATM    5  C   UNL     1      40.449 -11.919   5.622  1.00  0.00     0.146 C 
HETATM    6  C   UNL     1      39.870 -11.403   4.334  1.00  0.00     0.233 C 
HETATM    7  O   UNL     1      39.324 -10.313   4.293  1.00  0.00    -0.273 OA
ENDROOT
BRANCH   4   8
HETATM    8  N   UNL     1      41.576 -14.164   6.141  1.00  0.00    -0.058 N 
HETATM    9  H   UNL     1      41.661 -13.620   7.019  1.00  0.00     0.281 HD
HETATM   10  C   UNL     1      41.193 -15.558   6.597  1.00  0.00     0.239 C 
HETATM   11  C   UNL     1      42.310 -16.148   7.443  1.00  0.00     0.071 C 
HETATM   12  C   UNL     1      43.646 -16.204   6.672  1.00  0.00     0.088 C 
HETATM   13  C   UNL     1      43.986 -14.744   6.312  1.00  0.00     0.071 C 
HETATM   14  C   UNL     1      42.914 -14.105   5.446  1.00  0.00     0.239 C 
BRANCH  12  15
HETATM   15  O   UNL     1      44.640 -16.632   7.604  1.00  0.00    -0.385 OA
HETATM   16  H   UNL     1      44.211 -17.002   8.398  1.00  0.00     0.211 HD
ENDBRANCH  12  15
BRANCH  12  17
HETATM   17  C   UNL     1      43.656 -17.178   5.487  1.00  0.00    -0.024 A 
HETATM   18  C   UNL     1      43.781 -18.570   5.670  1.00  0.00     0.011 A 
HETATM   19  C   UNL     1      43.815 -19.450   4.582  1.00  0.00     0.020 A 
HETATM   20  C   UNL     1      43.692 -18.960   3.289  1.00  0.00     0.011 A 
HETATM   21 BR   UNL     1      43.753 -20.144   1.820  1.00  0.00    -0.051 Br
HETATM   22  C   UNL     1      43.511 -17.598   3.077  1.00  0.00     0.020 A 
HETATM   23  C   UNL     1      43.477 -16.720   4.167  1.00  0.00     0.011 A 
ENDBRANCH  12  17
ENDBRANCH   4   8
BRANCH   1  24
HETATM   24  C   UNL     1      39.781 -12.124   1.948  1.00  0.00     0.045 A 
HETATM   25  C   UNL     1      40.777 -12.175   0.957  1.00  0.00     0.033 A 
HETATM   26  C   UNL     1      40.468 -12.047  -0.407  1.00  0.00     0.039 A 
HETATM   27  C   UNL     1      39.153 -11.866  -0.815  1.00  0.00     0.068 A 
HETATM   28  C   UNL     1      38.160 -11.765   0.152  1.00  0.00     0.039 A 
HETATM   29  C   UNL     1      38.467 -11.895   1.513  1.00  0.00     0.033 A 
BRANCH  27  30
HETATM   30  O   UNL     1      38.719 -11.760  -2.105  1.00  0.00    -0.351 OA
BRANCH  30  31
HETATM   31  C   UNL     1      39.299 -12.658  -3.053  1.00  0.00     0.175 C 
BRANCH  31  32
HETATM   32  C   UNL     1      38.359 -13.850  -3.202  1.00  0.00     0.022 C 
HETATM   33  C   UNL     1      38.859 -15.062  -2.437  1.00  0.00     0.007 C 
ENDBRANCH  31  32
ENDBRANCH  30  31
ENDBRANCH  27  30
ENDBRANCH   1  24
TORSDOF 7
ENDMDL
MODEL 5
REMARK VINA RESULT:      -7.6      6.244      9.574
REMARK  7 active torsions:
REMARK  status: ('A' for Active; 'I' for Inactive)
REMARK    1  A    between atoms: C_2  and  C_3 
REMARK    2  A    between atoms: C_3  and  O_4 
REMARK    3  A    between atoms: O_4  and  C_5 
REMARK    4  A    between atoms: C_8  and  N_9 
REMARK    5  A    between atoms: C_12  and  N_13 
REMARK    6  A    between atoms: C_17  and  O_18 
REMARK    7  A    between atoms: C_17  and  C_19 
ROOT
HETATM    1  N   UNL     1      40.257 -12.839  -0.345  1.00  0.00    -0.251 N 
HETATM    2  C   UNL     1      41.005 -12.564   0.777  1.00  0.00     0.262 C 
HETATM    3  O   UNL     1      41.377 -11.507   1.268  1.00  0.00    -0.270 OA
HETATM    4  C   UNL     1      41.344 -13.880   1.435  1.00  0.00     0.289 C 
HETATM    5  C   UNL     1      40.248 -14.798   0.965  1.00  0.00     0.146 C 
HETATM    6  C   UNL     1      39.871 -14.167  -0.347  1.00  0.00     0.233 C 
HETATM    7  O   UNL     1      39.300 -14.818  -1.206  1.00  0.00    -0.273 OA
ENDROOT
BRANCH   4   8
HETATM    8  N   UNL     1      41.522 -13.814   2.962  1.00  0.00    -0.058 N 
HETATM    9  H   UNL     1      41.171 -12.869   3.201  1.00  0.00     0.281 HD
HETATM   10  C   UNL     1      40.646 -14.756   3.764  1.00  0.00     0.239 C 
HETATM   11  C   UNL     1      40.849 -14.508   5.250  1.00  0.00     0.071 C 
HETATM   12  C   UNL     1      42.324 -14.692   5.668  1.00  0.00     0.088 C 
HETATM   13  C   UNL     1      43.124 -13.653   4.856  1.00  0.00     0.071 C 
HETATM   14  C   UNL     1      42.977 -13.864   3.358  1.00  0.00     0.239 C 
BRANCH  12  15
HETATM   15  O   UNL     1      42.417 -14.294   7.035  1.00  0.00    -0.385 OA
HETATM   16  H   UNL     1      42.524 -13.326   7.091  1.00  0.00     0.211 HD
ENDBRANCH  12  15
BRANCH  12  17
HETATM   17  C   UNL     1      42.841 -16.133   5.556  1.00  0.00    -0.024 A 
HETATM   18  C   UNL     1      43.453 -16.613   4.381  1.00  0.00     0.011 A 
HETATM   19  C   UNL     1      43.898 -17.936   4.278  1.00  0.00     0.020 A 
HETATM   20  C   UNL     1      43.770 -18.798   5.360  1.00  0.00     0.011 A 
HETATM   21 BR   UNL     1      44.358 -20.587   5.217  1.00  0.00    -0.051 Br
HETATM   22  C   UNL     1      43.224 -18.339   6.552  1.00  0.00     0.020 A 
HETATM   23  C   UNL     1      42.779 -17.016   6.653  1.00  0.00     0.011 A 
ENDBRANCH  12  17
ENDBRANCH   4   8
BRANCH   1  24
HETATM   24  C   UNL     1      39.956 -11.897  -1.378  1.00  0.00     0.045 A 
HETATM   25  C   UNL     1      40.922 -11.506  -2.321  1.00  0.00     0.033 A 
HETATM   26  C   UNL     1      40.611 -10.636  -3.379  1.00  0.00     0.039 A 
HETATM   27  C   UNL     1      39.323 -10.138  -3.522  1.00  0.00     0.068 A 
HETATM   28  C   UNL     1      38.365 -10.476  -2.574  1.00  0.00     0.039 A 
HETATM   29  C   UNL     1      38.674 -11.345  -1.519  1.00  0.00     0.033 A 
BRANCH  27  30
HETATM   30  O   UNL     1      38.887  -9.315  -4.520  1.00  0.00    -0.351 OA
BRANCH  30  31
HETATM   31  C   UNL     1      39.710  -8.188  -4.829  1.00  0.00     0.175 C 
BRANCH  31  32
HETATM   32  C   UNL     1      39.480  -7.134  -3.751  1.00  0.00     0.022 C 
HETATM   33  C   UNL     1      38.090  -6.531  -3.839  1.00  0.00     0.007 C 
ENDBRANCH  31  32
ENDBRANCH  30  31
ENDBRANCH  27  30
ENDBRANCH   1  24
TORSDOF 7
ENDMDL
MODEL 6
REMARK VINA RESULT:      -7.6      3.386     10.539
REMARK  7 active torsions:
REMARK  status: ('A' for Active; 'I' for Inactive)
REMARK    1  A    between atoms: C_2  and  C_3 
REMARK    2  A    between atoms: C_3  and  O_4 
REMARK    3  A    between atoms: O_4  and  C_5 
REMARK    4  A    between atoms: C_8  and  N_9 
REMARK    5  A    between atoms: C_12  and  N_13 
REMARK    6  A    between atoms: C_17  and  O_18 
REMARK    7  A    between atoms: C_17  and  C_19 
ROOT
HETATM    1  N   UNL     1      43.196 -10.406   7.794  1.00  0.00    -0.251 N 
HETATM    2  C   UNL     1      42.303 -10.911   6.878  1.00  0.00     0.262 C 
HETATM    3  O   UNL     1      41.296 -10.433   6.375  1.00  0.00    -0.270 OA
HETATM    4  C   UNL     1      42.774 -12.293   6.493  1.00  0.00     0.289 C 
HETATM    5  C   UNL     1      44.252 -12.249   6.774  1.00  0.00     0.146 C 
HETATM    6  C   UNL     1      44.320 -11.209   7.858  1.00  0.00     0.233 C 
HETATM    7  O   UNL     1      45.277 -11.164   8.614  1.00  0.00    -0.273 OA
ENDROOT
BRANCH   4   8
HETATM    8  N   UNL     1      42.399 -12.733   5.068  1.00  0.00    -0.058 N 
HETATM    9  H   UNL     1      42.013 -11.868   4.647  1.00  0.00     0.281 HD
HETATM   10  C   UNL     1      43.563 -13.103   4.170  1.00  0.00     0.239 C 
HETATM   11  C   UNL     1      43.056 -13.411   2.770  1.00  0.00     0.071 C 
HETATM   12  C   UNL     1      42.020 -14.556   2.773  1.00  0.00     0.088 C 
HETATM   13  C   UNL     1      40.851 -14.064   3.650  1.00  0.00     0.071 C 
HETATM   14  C   UNL     1      41.294 -13.760   5.071  1.00  0.00     0.239 C 
BRANCH  12  15
HETATM   15  O   UNL     1      41.513 -14.654   1.442  1.00  0.00    -0.385 OA
HETATM   16  H   UNL     1      40.909 -13.910   1.263  1.00  0.00     0.211 HD
ENDBRANCH  12  15
BRANCH  12  17
HETATM   17  C   UNL     1      42.589 -15.926   3.167  1.00  0.00    -0.024 A 
HETATM   18  C   UNL     1      43.026 -16.854   2.201  1.00  0.00     0.011 A 
HETATM   19  C   UNL     1      43.519 -18.112   2.567  1.00  0.00     0.020 A 
HETATM   20  C   UNL     1      43.616 -18.456   3.909  1.00  0.00     0.011 A 
HETATM   21 BR   UNL     1      44.267 -20.157   4.404  1.00  0.00    -0.051 Br
HETATM   22  C   UNL     1      43.247 -17.541   4.888  1.00  0.00     0.020 A 
HETATM   23  C   UNL     1      42.754 -16.284   4.519  1.00  0.00     0.011 A 
ENDBRANCH  12  17
ENDBRANCH   4   8
BRANCH   1  24
HETATM   24  C   UNL     1      42.977  -9.240   8.594  1.00  0.00     0.045 A 
HETATM   25  C   UNL     1      42.234  -9.294   9.785  1.00  0.00     0.033 A 
HETATM   26  C   UNL     1      42.076  -8.168  10.609  1.00  0.00     0.039 A 
HETATM   27  C   UNL     1      42.661  -6.957  10.262  1.00  0.00     0.068 A 
HETATM   28  C   UNL     1      43.361  -6.871   9.064  1.00  0.00     0.039 A 
HETATM   29  C   UNL     1      43.520  -7.995   8.243  1.00  0.00     0.033 A 
BRANCH  27  30
HETATM   30  O   UNL     1      42.610  -5.803  10.988  1.00  0.00    -0.351 OA
BRANCH  30  31
HETATM   31  C   UNL     1      41.597  -5.721  11.994  1.00  0.00     0.175 C 
BRANCH  31  32
HETATM   32  C   UNL     1      42.183  -4.972  13.186  1.00  0.00     0.022 C 
HETATM   33  C   UNL     1      42.520  -3.533  12.837  1.00  0.00     0.007 C 
ENDBRANCH  31  32
ENDBRANCH  30  31
ENDBRANCH  27  30
ENDBRANCH   1  24
TORSDOF 7
ENDMDL
MODEL 7
REMARK VINA RESULT:      -7.5      7.677      9.618
REMARK  7 active torsions:
REMARK  status: ('A' for Active; 'I' for Inactive)
REMARK    1  A    between atoms: C_2  and  C_3 
REMARK    2  A    between atoms: C_3  and  O_4 
REMARK    3  A    between atoms: O_4  and  C_5 
REMARK    4  A    between atoms: C_8  and  N_9 
REMARK    5  A    between atoms: C_12  and  N_13 
REMARK    6  A    between atoms: C_17  and  O_18 
REMARK    7  A    between atoms: C_17  and  C_19 
ROOT
HETATM    1  N   UNL     1      41.007 -13.772   0.928  1.00  0.00    -0.251 N 
HETATM    2  C   UNL     1      41.242 -12.449   1.229  1.00  0.00     0.262 C 
HETATM    3  O   UNL     1      42.063 -11.915   1.961  1.00  0.00    -0.270 OA
HETATM    4  C   UNL     1      40.262 -11.619   0.436  1.00  0.00     0.289 C 
HETATM    5  C   UNL     1      39.921 -12.503  -0.734  1.00  0.00     0.146 C 
HETATM    6  C   UNL     1      40.150 -13.871  -0.153  1.00  0.00     0.233 C 
HETATM    7  O   UNL     1      39.621 -14.852  -0.649  1.00  0.00    -0.273 OA
ENDROOT
BRANCH   4   8
HETATM    8  N   UNL     1      40.758 -10.213   0.060  1.00  0.00    -0.058 N 
HETATM    9  H   UNL     1      41.318  -9.931   0.885  1.00  0.00     0.281 HD
HETATM   10  C   UNL     1      41.735 -10.151  -1.098  1.00  0.00     0.239 C 
HETATM   11  C   UNL     1      42.220  -8.722  -1.287  1.00  0.00     0.071 C 
HETATM   12  C   UNL     1      41.051  -7.747  -1.543  1.00  0.00     0.088 C 
HETATM   13  C   UNL     1      40.153  -7.828  -0.292  1.00  0.00     0.071 C 
HETATM   14  C   UNL     1      39.619  -9.231  -0.063  1.00  0.00     0.239 C 
BRANCH  12  15
HETATM   15  O   UNL     1      41.608  -6.433  -1.557  1.00  0.00    -0.385 OA
HETATM   16  H   UNL     1      41.209  -5.912  -2.279  1.00  0.00     0.211 HD
ENDBRANCH  12  15
BRANCH  12  17
HETATM   17  C   UNL     1      40.320  -7.967  -2.875  1.00  0.00    -0.024 A 
HETATM   18  C   UNL     1      40.981  -8.479  -4.009  1.00  0.00     0.011 A 
HETATM   19  C   UNL     1      40.314  -8.653  -5.227  1.00  0.00     0.020 A 
HETATM   20  C   UNL     1      38.963  -8.349  -5.328  1.00  0.00     0.011 A 
HETATM   21 BR   UNL     1      38.065  -8.569  -6.974  1.00  0.00    -0.051 Br
HETATM   22  C   UNL     1      38.269  -7.896  -4.213  1.00  0.00     0.020 A 
HETATM   23  C   UNL     1      38.938  -7.723  -2.996  1.00  0.00     0.011 A 
ENDBRANCH  12  17
ENDBRANCH   4   8
BRANCH   1  24
HETATM   24  C   UNL     1      41.542 -14.883   1.654  1.00  0.00     0.045 A 
HETATM   25  C   UNL     1      42.735 -15.512   1.261  1.00  0.00     0.033 A 
HETATM   26  C   UNL     1      43.300 -16.557   2.010  1.00  0.00     0.039 A 
HETATM   27  C   UNL     1      42.686 -16.997   3.175  1.00  0.00     0.068 A 
HETATM   28  C   UNL     1      41.480 -16.419   3.555  1.00  0.00     0.039 A 
HETATM   29  C   UNL     1      40.917 -15.376   2.809  1.00  0.00     0.033 A 
BRANCH  27  30
HETATM   30  O   UNL     1      43.147 -17.977   4.006  1.00  0.00    -0.351 OA
BRANCH  30  31
HETATM   31  C   UNL     1      44.283 -18.719   3.555  1.00  0.00     0.175 C 
BRANCH  31  32
HETATM   32  C   UNL     1      43.825 -20.147   3.277  1.00  0.00     0.022 C 
HETATM   33  C   UNL     1      43.369 -20.325   1.840  1.00  0.00     0.007 C 
ENDBRANCH  31  32
ENDBRANCH  30  31
ENDBRANCH  27  30
ENDBRANCH   1  24
TORSDOF 7
ENDMDL
MODEL 8
REMARK VINA RESULT:      -7.4      3.409      9.579
REMARK  7 active torsions:
REMARK  status: ('A' for Active; 'I' for Inactive)
REMARK    1  A    between atoms: C_2  and  C_3 
REMARK    2  A    between atoms: C_3  and  O_4 
REMARK    3  A    between atoms: O_4  and  C_5 
REMARK    4  A    between atoms: C_8  and  N_9 
REMARK    5  A    between atoms: C_12  and  N_13 
REMARK    6  A    between atoms: C_17  and  O_18 
REMARK    7  A    between atoms: C_17  and  C_19 
ROOT
HETATM    1  N   UNL     1      41.924  -9.831   5.862  1.00  0.00    -0.251 N 
HETATM    2  C   UNL     1      41.988 -10.936   5.044  1.00  0.00     0.262 C 
HETATM    3  O   UNL     1      42.203 -12.115   5.285  1.00  0.00    -0.270 OA
HETATM    4  C   UNL     1      41.707 -10.477   3.633  1.00  0.00     0.289 C 
HETATM    5  C   UNL     1      40.903  -9.220   3.829  1.00  0.00     0.146 C 
HETATM    6  C   UNL     1      41.392  -8.757   5.173  1.00  0.00     0.233 C 
HETATM    7  O   UNL     1      41.273  -7.589   5.507  1.00  0.00    -0.273 OA
ENDROOT
BRANCH   4   8
HETATM    8  N   UNL     1      41.049 -11.531   2.727  1.00  0.00    -0.058 N 
HETATM    9  H   UNL     1      40.400 -10.971   2.145  1.00  0.00     0.281 HD
HETATM   10  C   UNL     1      41.970 -12.202   1.728  1.00  0.00     0.239 C 
HETATM   11  C   UNL     1      41.168 -13.135   0.835  1.00  0.00     0.071 C 
HETATM   12  C   UNL     1      40.420 -14.211   1.651  1.00  0.00     0.088 C 
HETATM   13  C   UNL     1      39.464 -13.441   2.585  1.00  0.00     0.071 C 
HETATM   14  C   UNL     1      40.212 -12.505   3.520  1.00  0.00     0.239 C 
BRANCH  12  15
HETATM   15  O   UNL     1      39.596 -14.926   0.731  1.00  0.00    -0.385 OA
HETATM   16  H   UNL     1      38.665 -14.885   1.020  1.00  0.00     0.211 HD
ENDBRANCH  12  15
BRANCH  12  17
HETATM   17  C   UNL     1      41.333 -15.223   2.356  1.00  0.00    -0.024 A 
HETATM   18  C   UNL     1      42.450 -15.790   1.712  1.00  0.00     0.011 A 
HETATM   19  C   UNL     1      43.263 -16.732   2.353  1.00  0.00     0.020 A 
HETATM   20  C   UNL     1      42.995 -17.102   3.664  1.00  0.00     0.011 A 
HETATM   21 BR   UNL     1      44.082 -18.383   4.525  1.00  0.00    -0.051 Br
HETATM   22  C   UNL     1      41.935 -16.519   4.347  1.00  0.00     0.020 A 
HETATM   23  C   UNL     1      41.123 -15.577   3.704  1.00  0.00     0.011 A 
ENDBRANCH  12  17
ENDBRANCH   4   8
BRANCH   1  24
HETATM   24  C   UNL     1      42.377  -9.790   7.219  1.00  0.00     0.045 A 
HETATM   25  C   UNL     1      43.695 -10.132   7.564  1.00  0.00     0.033 A 
HETATM   26  C   UNL     1      44.165 -10.025   8.883  1.00  0.00     0.039 A 
HETATM   27  C   UNL     1      43.325  -9.571   9.892  1.00  0.00     0.068 A 
HETATM   28  C   UNL     1      42.004  -9.273   9.580  1.00  0.00     0.039 A 
HETATM   29  C   UNL     1      41.536  -9.378   8.263  1.00  0.00     0.033 A 
BRANCH  27  30
HETATM   30  O   UNL     1      43.666  -9.393  11.201  1.00  0.00    -0.351 OA
BRANCH  30  31
HETATM   31  C   UNL     1      42.928 -10.148  12.166  1.00  0.00     0.175 C 
BRANCH  31  32
HETATM   32  C   UNL     1      42.436  -9.181  13.237  1.00  0.00     0.022 C 
HETATM   33  C   UNL     1      43.216  -7.878  13.223  1.00  0.00     0.007 C 
ENDBRANCH  31  32
ENDBRANCH  30  31
ENDBRANCH  27  30
ENDBRANCH   1  24
TORSDOF 7
ENDMDL
MODEL 9
REMARK VINA RESULT:      -7.3      5.823      8.049
REMARK  7 active torsions:
REMARK  status: ('A' for Active; 'I' for Inactive)
REMARK    1  A    between atoms: C_2  and  C_3 
REMARK    2  A    between atoms: C_3  and  O_4 
REMARK    3  A    between atoms: O_4  and  C_5 
REMARK    4  A    between atoms: C_8  and  N_9 
REMARK    5  A    between atoms: C_12  and  N_13 
REMARK    6  A    between atoms: C_17  and  O_18 
REMARK    7  A    between atoms: C_17  and  C_19 
ROOT
HETATM    1  N   UNL     1      41.363 -13.805   4.494  1.00  0.00    -0.251 N 
HETATM    2  C   UNL     1      41.514 -12.714   3.668  1.00  0.00     0.262 C 
HETATM    3  O   UNL     1      42.136 -12.562   2.625  1.00  0.00    -0.270 OA
HETATM    4  C   UNL     1      40.704 -11.582   4.253  1.00  0.00     0.289 C 
HETATM    5  C   UNL     1      39.653 -12.289   5.066  1.00  0.00     0.146 C 
HETATM    6  C   UNL     1      40.354 -13.574   5.410  1.00  0.00     0.233 C 
HETATM    7  O   UNL     1      39.993 -14.240   6.366  1.00  0.00    -0.273 OA
ENDROOT
BRANCH   4   8
HETATM    8  N   UNL     1      40.158 -10.576   3.225  1.00  0.00    -0.058 N 
HETATM    9  H   UNL     1      40.187  -9.676   3.737  1.00  0.00     0.281 HD
HETATM   10  C   UNL     1      41.031 -10.347   2.008  1.00  0.00     0.239 C 
HETATM   11  C   UNL     1      40.424  -9.258   1.137  1.00  0.00     0.071 C 
HETATM   12  C   UNL     1      38.991  -9.613   0.687  1.00  0.00     0.088 C 
HETATM   13  C   UNL     1      38.167  -9.759   1.982  1.00  0.00     0.071 C 
HETATM   14  C   UNL     1      38.714 -10.851   2.886  1.00  0.00     0.239 C 
BRANCH  12  15
HETATM   15  O   UNL     1      38.477  -8.467   0.009  1.00  0.00    -0.385 OA
HETATM   16  H   UNL     1      38.157  -8.722  -0.876  1.00  0.00     0.211 HD
ENDBRANCH  12  15
BRANCH  12  17
HETATM   17  C   UNL     1      38.904 -10.810  -0.270  1.00  0.00    -0.024 A 
HETATM   18  C   UNL     1      40.053 -11.382  -0.850  1.00  0.00     0.011 A 
HETATM   19  C   UNL     1      39.964 -12.456  -1.742  1.00  0.00     0.020 A 
HETATM   20  C   UNL     1      38.724 -13.003  -2.048  1.00  0.00     0.011 A 
HETATM   21 BR   UNL     1      38.601 -14.444  -3.263  1.00  0.00    -0.051 Br
HETATM   22  C   UNL     1      37.577 -12.499  -1.449  1.00  0.00     0.020 A 
HETATM   23  C   UNL     1      37.669 -11.424  -0.557  1.00  0.00     0.011 A 
ENDBRANCH  12  17
ENDBRANCH   4   8
BRANCH   1  24
HETATM   24  C   UNL     1      42.162 -14.990   4.437  1.00  0.00     0.045 A 
HETATM   25  C   UNL     1      43.172 -15.243   5.381  1.00  0.00     0.033 A 
HETATM   26  C   UNL     1      43.910 -16.438   5.371  1.00  0.00     0.039 A 
HETATM   27  C   UNL     1      43.655 -17.412   4.415  1.00  0.00     0.068 A 
HETATM   28  C   UNL     1      42.693 -17.161   3.444  1.00  0.00     0.039 A 
HETATM   29  C   UNL     1      41.954 -15.971   3.455  1.00  0.00     0.033 A 
BRANCH  27  30
HETATM   30  O   UNL     1      44.276 -18.623   4.317  1.00  0.00    -0.351 OA
BRANCH  30  31
HETATM   31  C   UNL     1      43.922 -19.438   3.198  1.00  0.00     0.175 C 
BRANCH  31  32
HETATM   32  C   UNL     1      43.879 -20.887   3.671  1.00  0.00     0.022 C 
HETATM   33  C   UNL     1      43.889 -20.987   5.186  1.00  0.00     0.007 C 
ENDBRANCH  31  32
ENDBRANCH  30  31
ENDBRANCH  27  30
ENDBRANCH   1  24
TORSDOF 7
ENDMDL
MODEL 10
REMARK VINA RESULT:      -7.2     18.839     21.391
REMARK  7 active torsions:
REMARK  status: ('A' for Active; 'I' for Inactive)
REMARK    1  A    between atoms: C_2  and  C_3 
REMARK    2  A    between atoms: C_3  and  O_4 
REMARK    3  A    between atoms: O_4  and  C_5 
REMARK    4  A    between atoms: C_8  and  N_9 
REMARK    5  A    between atoms: C_12  and  N_13 
REMARK    6  A    between atoms: C_17  and  O_18 
REMARK    7  A    between atoms: C_17  and  C_19 
ROOT
HETATM    1  N   UNL     1      42.527 -31.610   2.810  1.00  0.00    -0.251 N 
HETATM    2  C   UNL     1      43.171 -30.498   2.316  1.00  0.00     0.262 C 
HETATM    3  O   UNL     1      43.676 -29.535   2.876  1.00  0.00    -0.270 OA
HETATM    4  C   UNL     1      43.208 -30.622   0.812  1.00  0.00     0.289 C 
HETATM    5  C   UNL     1      43.108 -32.105   0.581  1.00  0.00     0.146 C 
HETATM    6  C   UNL     1      42.365 -32.551   1.809  1.00  0.00     0.233 C 
HETATM    7  O   UNL     1      41.755 -33.608   1.815  1.00  0.00    -0.273 OA
ENDROOT
BRANCH   4   8
HETATM    8  N   UNL     1      44.411 -29.941   0.135  1.00  0.00    -0.058 N 
HETATM    9  H   UNL     1      44.870 -29.440   0.918  1.00  0.00     0.281 HD
HETATM   10  C   UNL     1      45.479 -30.877  -0.393  1.00  0.00     0.239 C 
HETATM   11  C   UNL     1      46.648 -30.069  -0.935  1.00  0.00     0.071 C 
HETATM   12  C   UNL     1      46.209 -29.101  -2.054  1.00  0.00     0.088 C 
HETATM   13  C   UNL     1      45.179 -28.151  -1.408  1.00  0.00     0.071 C 
HETATM   14  C   UNL     1      43.974 -28.901  -0.867  1.00  0.00     0.239 C 
BRANCH  12  15
HETATM   15  O   UNL     1      47.348 -28.302  -2.376  1.00  0.00    -0.385 OA
HETATM   16  H   UNL     1      47.083 -27.367  -2.457  1.00  0.00     0.211 HD
ENDBRANCH  12  15
BRANCH  12  17
HETATM   17  C   UNL     1      45.732 -29.789  -3.340  1.00  0.00    -0.024 A 
HETATM   18  C   UNL     1      44.673 -29.270  -4.111  1.00  0.00     0.011 A 
HETATM   19  C   UNL     1      44.227 -29.918  -5.269  1.00  0.00     0.020 A 
HETATM   20  C   UNL     1      44.851 -31.082  -5.697  1.00  0.00     0.011 A 
HETATM   21 BR   UNL     1      44.240 -31.965  -7.250  1.00  0.00    -0.051 Br
HETATM   22  C   UNL     1      45.935 -31.589  -4.990  1.00  0.00     0.020 A 
HETATM   23  C   UNL     1      46.380 -30.939  -3.833  1.00  0.00     0.011 A 
ENDBRANCH  12  17
ENDBRANCH   4   8
BRANCH   1  24
HETATM   24  C   UNL     1      42.060 -31.756   4.154  1.00  0.00     0.045 A 
HETATM   25  C   UNL     1      42.923 -32.138   5.195  1.00  0.00     0.033 A 
HETATM   26  C   UNL     1      42.485 -32.213   6.527  1.00  0.00     0.039 A 
HETATM   27  C   UNL     1      41.171 -31.905   6.852  1.00  0.00     0.068 A 
HETATM   28  C   UNL     1      40.290 -31.571   5.831  1.00  0.00     0.039 A 
HETATM   29  C   UNL     1      40.727 -31.494   4.502  1.00  0.00     0.033 A 
BRANCH  27  30
HETATM   30  O   UNL     1      40.632 -31.908   8.106  1.00  0.00    -0.351 OA
BRANCH  30  31
HETATM   31  C   UNL     1      41.308 -32.690   9.094  1.00  0.00     0.175 C 
BRANCH  31  32
HETATM   32  C   UNL     1      41.313 -31.893  10.394  1.00  0.00     0.022 C 
HETATM   33  C   UNL     1      42.385 -30.818  10.393  1.00  0.00     0.007 C 
ENDBRANCH  31  32
ENDBRANCH  30  31
ENDBRANCH  27  30
ENDBRANCH   1  24
TORSDOF 7
ENDMDL
