MODEL 1
REMARK VINA RESULT:      -8.4      0.000      0.000
REMARK  4 active torsions:
REMARK  status: ('A' for Active; 'I' for Inactive)
REMARK    1  A    between atoms: C_4  and  O_5 
REMARK    2  A    between atoms: O_5  and  C_6 
REMARK    3  A    between atoms: C_9  and  N_10 
REMARK       I    between atoms: N_10  and  C_11 
REMARK    4  A    between atoms: C_11  and  C_12 
ROOT
HETATM    1  C   UNL     1      42.750 -16.465   3.185  1.00  0.00     0.076 A 
HETATM    2  C   UNL     1      41.403 -16.377   3.518  1.00  0.00     0.039 A 
HETATM    3  C   UNL     1      40.510 -15.734   2.655  1.00  0.00     0.032 A 
HETATM    4  C   UNL     1      40.965 -15.158   1.465  1.00  0.00     0.035 A 
HETATM    5  C   UNL     1      42.334 -15.223   1.159  1.00  0.00     0.032 A 
HETATM    6  C   UNL     1      43.227 -15.870   2.018  1.00  0.00     0.039 A 
ENDROOT
BRANCH   4   7
HETATM    7  N   UNL     1      40.127 -14.518   0.528  1.00  0.00    -0.323 N 
HETATM    8  C   UNL     1      40.108 -13.176   0.201  1.00  0.00     0.257 C 
HETATM    9  O   UNL     1      40.876 -12.308   0.602  1.00  0.00    -0.267 OA
HETATM   10  H   UNL     1      39.488 -15.122   0.029  1.00  0.00     0.169 HD
BRANCH   8  11
HETATM   11  C   UNL     1      39.029 -12.825  -0.781  1.00  0.00     0.048 A 
HETATM   12  C   UNL     1      38.394 -11.652  -0.613  1.00  0.00     0.108 A 
HETATM   13  N   UNL     1      37.386 -11.274  -1.468  1.00  0.00    -0.333 N 
HETATM   14  C   UNL     1      36.944 -12.038  -2.522  1.00  0.00     0.245 A 
HETATM   15  H   UNL     1      36.915 -10.385  -1.338  1.00  0.00     0.168 HD
HETATM   16  O   UNL     1      36.053 -11.681  -3.282  1.00  0.00    -0.268 OA
HETATM   17  C   UNL     1      37.615 -13.355  -2.687  1.00  0.00     0.075 A 
HETATM   18  C   UNL     1      38.599 -13.714  -1.847  1.00  0.00     0.024 A 
ENDBRANCH   8  11
ENDBRANCH   4   7
BRANCH   1  19
HETATM   19  O   UNL     1      43.597 -17.092   4.064  1.00  0.00    -0.311 OA
BRANCH  19  20
HETATM   20  C   UNL     1      43.742 -18.459   3.944  1.00  0.00     0.076 A 
HETATM   21  C   UNL     1      43.975 -19.151   5.134  1.00  0.00     0.037 A 
HETATM   22  C   UNL     1      44.102 -20.541   5.125  1.00  0.00     0.003 A 
HETATM   23  C   UNL     1      43.987 -21.243   3.924  1.00  0.00     0.000 A 
HETATM   24  C   UNL     1      43.737 -20.556   2.737  1.00  0.00     0.003 A 
HETATM   25  C   UNL     1      43.607 -19.166   2.745  1.00  0.00     0.037 A 
ENDBRANCH  19  20
ENDBRANCH   1  19
TORSDOF 4
ENDMDL
MODEL 2
REMARK VINA RESULT:      -8.1      1.117      1.745
REMARK  4 active torsions:
REMARK  status: ('A' for Active; 'I' for Inactive)
REMARK    1  A    between atoms: C_4  and  O_5 
REMARK    2  A    between atoms: O_5  and  C_6 
REMARK    3  A    between atoms: C_9  and  N_10 
REMARK       I    between atoms: N_10  and  C_11 
REMARK    4  A    between atoms: C_11  and  C_12 
ROOT
HETATM    1  C   UNL     1      42.630 -16.054   3.251  1.00  0.00     0.076 A 
HETATM    2  C   UNL     1      43.236 -15.247   2.295  1.00  0.00     0.039 A 
HETATM    3  C   UNL     1      42.452 -14.467   1.439  1.00  0.00     0.032 A 
HETATM    4  C   UNL     1      41.057 -14.509   1.523  1.00  0.00     0.035 A 
HETATM    5  C   UNL     1      40.458 -15.355   2.469  1.00  0.00     0.032 A 
HETATM    6  C   UNL     1      41.240 -16.131   3.328  1.00  0.00     0.039 A 
ENDROOT
BRANCH   4   7
HETATM    7  N   UNL     1      40.195 -13.734   0.718  1.00  0.00    -0.323 N 
HETATM    8  C   UNL     1      39.537 -14.131  -0.430  1.00  0.00     0.257 C 
HETATM    9  O   UNL     1      39.511 -15.259  -0.911  1.00  0.00    -0.267 OA
HETATM   10  H   UNL     1      40.031 -12.789   1.038  1.00  0.00     0.169 HD
BRANCH   8  11
HETATM   11  C   UNL     1      38.764 -13.022  -1.080  1.00  0.00     0.048 A 
HETATM   12  C   UNL     1      38.293 -13.237  -2.321  1.00  0.00     0.108 A 
HETATM   13  N   UNL     1      37.589 -12.258  -2.981  1.00  0.00    -0.333 N 
HETATM   14  C   UNL     1      37.325 -11.015  -2.457  1.00  0.00     0.245 A 
HETATM   15  H   UNL     1      37.233 -12.430  -3.914  1.00  0.00     0.168 HD
HETATM   16  O   UNL     1      36.685 -10.159  -3.054  1.00  0.00    -0.268 OA
HETATM   17  C   UNL     1      37.880 -10.757  -1.102  1.00  0.00     0.075 A 
HETATM   18  C   UNL     1      38.566 -11.720  -0.466  1.00  0.00     0.024 A 
ENDBRANCH   8  11
ENDBRANCH   4   7
BRANCH   1  19
HETATM   19  O   UNL     1      43.433 -16.815   4.064  1.00  0.00    -0.311 OA
BRANCH  19  20
HETATM   20  C   UNL     1      43.578 -18.149   3.746  1.00  0.00     0.076 A 
HETATM   21  C   UNL     1      43.995 -18.979   4.789  1.00  0.00     0.037 A 
HETATM   22  C   UNL     1      44.139 -20.352   4.579  1.00  0.00     0.003 A 
HETATM   23  C   UNL     1      43.858 -20.899   3.327  1.00  0.00     0.000 A 
HETATM   24  C   UNL     1      43.425 -20.075   2.289  1.00  0.00     0.003 A 
HETATM   25  C   UNL     1      43.278 -18.702   2.498  1.00  0.00     0.037 A 
ENDBRANCH  19  20
ENDBRANCH   1  19
TORSDOF 4
ENDMDL
MODEL 3
REMARK VINA RESULT:      -7.8      3.443      4.350
REMARK  4 active torsions:
REMARK  status: ('A' for Active; 'I' for Inactive)
REMARK    1  A    between atoms: C_4  and  O_5 
REMARK    2  A    between atoms: O_5  and  C_6 
REMARK    3  A    between atoms: C_9  and  N_10 
REMARK       I    between atoms: N_10  and  C_11 
REMARK    4  A    between atoms: C_11  and  C_12 
ROOT
HETATM    1  C   UNL     1      42.743 -16.391   2.365  1.00  0.00     0.076 A 
HETATM    2  C   UNL     1      41.397 -16.606   2.644  1.00  0.00     0.039 A 
HETATM    3  C   UNL     1      40.599 -15.550   3.095  1.00  0.00     0.032 A 
HETATM    4  C   UNL     1      41.150 -14.280   3.290  1.00  0.00     0.035 A 
HETATM    5  C   UNL     1      42.517 -14.087   3.039  1.00  0.00     0.032 A 
HETATM    6  C   UNL     1      43.315 -15.140   2.584  1.00  0.00     0.039 A 
ENDROOT
BRANCH   4   7
HETATM    7  N   UNL     1      40.409 -13.156   3.715  1.00  0.00    -0.323 N 
HETATM    8  C   UNL     1      39.614 -12.336   2.940  1.00  0.00     0.257 C 
HETATM    9  O   UNL     1      39.334 -12.484   1.755  1.00  0.00    -0.267 OA
HETATM   10  H   UNL     1      40.457 -12.951   4.704  1.00  0.00     0.169 HD
BRANCH   8  11
HETATM   11  C   UNL     1      39.036 -11.182   3.705  1.00  0.00     0.048 A 
HETATM   12  C   UNL     1      38.426 -10.212   3.001  1.00  0.00     0.108 A 
HETATM   13  N   UNL     1      37.887  -9.119   3.638  1.00  0.00    -0.333 N 
HETATM   14  C   UNL     1      37.933  -8.921   4.997  1.00  0.00     0.245 A 
HETATM   15  H   UNL     1      37.424  -8.395   3.101  1.00  0.00     0.168 HD
HETATM   16  O   UNL     1      37.437  -7.948   5.550  1.00  0.00    -0.268 OA
HETATM   17  C   UNL     1      38.643  -9.970   5.776  1.00  0.00     0.075 A 
HETATM   18  C   UNL     1      39.166 -11.034   5.145  1.00  0.00     0.024 A 
ENDBRANCH   8  11
ENDBRANCH   4   7
BRANCH   1  19
HETATM   19  O   UNL     1      43.496 -17.456   1.937  1.00  0.00    -0.311 OA
BRANCH  19  20
HETATM   20  C   UNL     1      43.675 -18.504   2.816  1.00  0.00     0.076 A 
HETATM   21  C   UNL     1      43.517 -19.782   2.278  1.00  0.00     0.037 A 
HETATM   22  C   UNL     1      43.710 -20.910   3.077  1.00  0.00     0.003 A 
HETATM   23  C   UNL     1      44.072 -20.761   4.416  1.00  0.00     0.000 A 
HETATM   24  C   UNL     1      44.246 -19.486   4.953  1.00  0.00     0.003 A 
HETATM   25  C   UNL     1      44.055 -18.357   4.154  1.00  0.00     0.037 A 
ENDBRANCH  19  20
ENDBRANCH   1  19
TORSDOF 4
ENDMDL
MODEL 4
REMARK VINA RESULT:      -7.6      6.015      9.127
REMARK  4 active torsions:
REMARK  status: ('A' for Active; 'I' for Inactive)
REMARK    1  A    between atoms: C_4  and  O_5 
REMARK    2  A    between atoms: O_5  and  C_6 
REMARK    3  A    between atoms: C_9  and  N_10 
REMARK       I    between atoms: N_10  and  C_11 
REMARK    4  A    between atoms: C_11  and  C_12 
ROOT
HETATM    1  C   UNL     1      43.136 -11.368   6.363  1.00  0.00     0.076 A 
HETATM    2  C   UNL     1      43.687 -12.406   7.106  1.00  0.00     0.039 A 
HETATM    3  C   UNL     1      43.755 -13.694   6.565  1.00  0.00     0.032 A 
HETATM    4  C   UNL     1      43.252 -13.953   5.287  1.00  0.00     0.035 A 
HETATM    5  C   UNL     1      42.665 -12.903   4.563  1.00  0.00     0.032 A 
HETATM    6  C   UNL     1      42.601 -11.614   5.100  1.00  0.00     0.039 A 
ENDROOT
BRANCH   4   7
HETATM    7  N   UNL     1      43.307 -15.215   4.658  1.00  0.00    -0.323 N 
HETATM    8  C   UNL     1      42.579 -16.343   4.980  1.00  0.00     0.257 C 
HETATM    9  O   UNL     1      41.686 -16.431   5.816  1.00  0.00    -0.267 OA
HETATM   10  H   UNL     1      43.937 -15.283   3.871  1.00  0.00     0.169 HD
BRANCH   8  11
HETATM   11  C   UNL     1      42.950 -17.538   4.153  1.00  0.00     0.048 A 
HETATM   12  C   UNL     1      43.743 -18.464   4.720  1.00  0.00     0.108 A 
HETATM   13  N   UNL     1      44.134 -19.578   4.014  1.00  0.00    -0.333 N 
HETATM   14  C   UNL     1      43.773 -19.828   2.711  1.00  0.00     0.245 A 
HETATM   15  H   UNL     1      44.728 -20.274   4.450  1.00  0.00     0.168 HD
HETATM   16  O   UNL     1      44.120 -20.832   2.101  1.00  0.00    -0.268 OA
HETATM   17  C   UNL     1      42.930 -18.787   2.066  1.00  0.00     0.075 A 
HETATM   18  C   UNL     1      42.554 -17.703   2.764  1.00  0.00     0.024 A 
ENDBRANCH   8  11
ENDBRANCH   4   7
BRANCH   1  19
HETATM   19  O   UNL     1      43.076 -10.121   6.934  1.00  0.00    -0.311 OA
BRANCH  19  20
HETATM   20  C   UNL     1      43.777  -9.922   8.105  1.00  0.00     0.076 A 
HETATM   21  C   UNL     1      45.131  -9.613   7.956  1.00  0.00     0.037 A 
HETATM   22  C   UNL     1      45.921  -9.360   9.079  1.00  0.00     0.003 A 
HETATM   23  C   UNL     1      45.356  -9.407  10.353  1.00  0.00     0.000 A 
HETATM   24  C   UNL     1      44.000  -9.699  10.504  1.00  0.00     0.003 A 
HETATM   25  C   UNL     1      43.208  -9.950   9.382  1.00  0.00     0.037 A 
ENDBRANCH  19  20
ENDBRANCH   1  19
TORSDOF 4
ENDMDL
MODEL 5
REMARK VINA RESULT:      -7.6      6.427      8.493
REMARK  4 active torsions:
REMARK  status: ('A' for Active; 'I' for Inactive)
REMARK    1  A    between atoms: C_4  and  O_5 
REMARK    2  A    between atoms: O_5  and  C_6 
REMARK    3  A    between atoms: C_9  and  N_10 
REMARK       I    between atoms: N_10  and  C_11 
REMARK    4  A    between atoms: C_11  and  C_12 
ROOT
HETATM    1  C   UNL     1      41.994 -14.755   4.151  1.00  0.00     0.076 A 
HETATM    2  C   UNL     1      42.900 -13.746   3.842  1.00  0.00     0.039 A 
HETATM    3  C   UNL     1      43.132 -12.711   4.753  1.00  0.00     0.032 A 
HETATM    4  C   UNL     1      42.440 -12.669   5.968  1.00  0.00     0.035 A 
HETATM    5  C   UNL     1      41.501 -13.673   6.250  1.00  0.00     0.032 A 
HETATM    6  C   UNL     1      41.273 -14.712   5.342  1.00  0.00     0.039 A 
ENDROOT
BRANCH   4   7
HETATM    7  N   UNL     1      42.635 -11.677   6.952  1.00  0.00    -0.323 N 
HETATM    8  C   UNL     1      43.788 -11.422   7.668  1.00  0.00     0.257 C 
HETATM    9  O   UNL     1      44.882 -11.955   7.518  1.00  0.00    -0.267 OA
HETATM   10  H   UNL     1      41.841 -11.076   7.129  1.00  0.00     0.169 HD
BRANCH   8  11
HETATM   11  C   UNL     1      43.616 -10.343   8.695  1.00  0.00     0.048 A 
HETATM   12  C   UNL     1      43.035  -9.196   8.300  1.00  0.00     0.108 A 
HETATM   13  N   UNL     1      42.859  -8.159   9.186  1.00  0.00    -0.333 N 
HETATM   14  C   UNL     1      43.259  -8.195  10.501  1.00  0.00     0.245 A 
HETATM   15  H   UNL     1      42.416  -7.300   8.882  1.00  0.00     0.168 HD
HETATM   16  O   UNL     1      43.084  -7.267  11.280  1.00  0.00    -0.268 OA
HETATM   17  C   UNL     1      43.940  -9.445  10.932  1.00  0.00     0.075 A 
HETATM   18  C   UNL     1      44.106 -10.451  10.059  1.00  0.00     0.024 A 
ENDBRANCH   8  11
ENDBRANCH   4   7
BRANCH   1  19
HETATM   19  O   UNL     1      41.785 -15.746   3.225  1.00  0.00    -0.311 OA
BRANCH  19  20
HETATM   20  C   UNL     1      42.545 -16.892   3.336  1.00  0.00     0.076 A 
HETATM   21  C   UNL     1      42.450 -17.789   2.271  1.00  0.00     0.037 A 
HETATM   22  C   UNL     1      43.205 -18.963   2.271  1.00  0.00     0.003 A 
HETATM   23  C   UNL     1      44.067 -19.237   3.334  1.00  0.00     0.000 A 
HETATM   24  C   UNL     1      44.177 -18.334   4.391  1.00  0.00     0.003 A 
HETATM   25  C   UNL     1      43.423 -17.158   4.390  1.00  0.00     0.037 A 
ENDBRANCH  19  20
ENDBRANCH   1  19
TORSDOF 4
ENDMDL
MODEL 6
REMARK VINA RESULT:      -7.5      7.168      9.939
REMARK  4 active torsions:
REMARK  status: ('A' for Active; 'I' for Inactive)
REMARK    1  A    between atoms: C_4  and  O_5 
REMARK    2  A    between atoms: O_5  and  C_6 
REMARK    3  A    between atoms: C_9  and  N_10 
REMARK       I    between atoms: N_10  and  C_11 
REMARK    4  A    between atoms: C_11  and  C_12 
ROOT
HETATM    1  C   UNL     1      44.038 -10.095   7.602  1.00  0.00     0.076 A 
HETATM    2  C   UNL     1      42.794 -10.428   7.079  1.00  0.00     0.039 A 
HETATM    3  C   UNL     1      42.625 -11.634   6.391  1.00  0.00     0.032 A 
HETATM    4  C   UNL     1      43.705 -12.501   6.206  1.00  0.00     0.035 A 
HETATM    5  C   UNL     1      44.964 -12.135   6.708  1.00  0.00     0.032 A 
HETATM    6  C   UNL     1      45.134 -10.933   7.400  1.00  0.00     0.039 A 
ENDROOT
BRANCH   4   7
HETATM    7  N   UNL     1      43.613 -13.747   5.549  1.00  0.00    -0.323 N 
HETATM    8  C   UNL     1      43.242 -14.958   6.100  1.00  0.00     0.257 C 
HETATM    9  O   UNL     1      42.839 -15.157   7.241  1.00  0.00    -0.267 OA
HETATM   10  H   UNL     1      43.823 -13.736   4.561  1.00  0.00     0.169 HD
BRANCH   8  11
HETATM   11  C   UNL     1      43.331 -16.098   5.129  1.00  0.00     0.048 A 
HETATM   12  C   UNL     1      44.201 -17.085   5.407  1.00  0.00     0.108 A 
HETATM   13  N   UNL     1      44.345 -18.153   4.554  1.00  0.00    -0.333 N 
HETATM   14  C   UNL     1      43.649 -18.295   3.377  1.00  0.00     0.245 A 
HETATM   15  H   UNL     1      44.999 -18.895   4.774  1.00  0.00     0.168 HD
HETATM   16  O   UNL     1      43.780 -19.259   2.633  1.00  0.00    -0.268 OA
HETATM   17  C   UNL     1      42.717 -17.186   3.043  1.00  0.00     0.075 A 
HETATM   18  C   UNL     1      42.584 -16.148   3.884  1.00  0.00     0.024 A 
ENDBRANCH   8  11
ENDBRANCH   4   7
BRANCH   1  19
HETATM   19  O   UNL     1      44.168  -8.897   8.259  1.00  0.00    -0.311 OA
BRANCH  19  20
HETATM   20  C   UNL     1      43.815  -8.860   9.592  1.00  0.00     0.076 A 
HETATM   21  C   UNL     1      43.203  -7.683  10.026  1.00  0.00     0.037 A 
HETATM   22  C   UNL     1      42.777  -7.558  11.350  1.00  0.00     0.003 A 
HETATM   23  C   UNL     1      42.954  -8.617  12.241  1.00  0.00     0.000 A 
HETATM   24  C   UNL     1      43.549  -9.801  11.806  1.00  0.00     0.003 A 
HETATM   25  C   UNL     1      43.973  -9.927  10.482  1.00  0.00     0.037 A 
ENDBRANCH  19  20
ENDBRANCH   1  19
TORSDOF 4
ENDMDL
MODEL 7
REMARK VINA RESULT:      -7.4     13.856     15.590
REMARK  4 active torsions:
REMARK  status: ('A' for Active; 'I' for Inactive)
REMARK    1  A    between atoms: C_4  and  O_5 
REMARK    2  A    between atoms: O_5  and  C_6 
REMARK    3  A    between atoms: C_9  and  N_10 
REMARK       I    between atoms: N_10  and  C_11 
REMARK    4  A    between atoms: C_11  and  C_12 
ROOT
HETATM    1  C   UNL     1      41.496  -7.218  15.968  1.00  0.00     0.076 A 
HETATM    2  C   UNL     1      42.632  -6.610  15.446  1.00  0.00     0.039 A 
HETATM    3  C   UNL     1      43.221  -7.112  14.281  1.00  0.00     0.032 A 
HETATM    4  C   UNL     1      42.688  -8.238  13.647  1.00  0.00     0.035 A 
HETATM    5  C   UNL     1      41.563  -8.864  14.206  1.00  0.00     0.032 A 
HETATM    6  C   UNL     1      40.970  -8.360  15.367  1.00  0.00     0.039 A 
ENDROOT
BRANCH   4   7
HETATM    7  N   UNL     1      43.204  -8.790  12.455  1.00  0.00    -0.323 N 
HETATM    8  C   UNL     1      43.111  -8.267  11.180  1.00  0.00     0.257 C 
HETATM    9  O   UNL     1      42.638  -7.182  10.862  1.00  0.00    -0.267 OA
HETATM   10  H   UNL     1      43.717  -9.655  12.561  1.00  0.00     0.169 HD
BRANCH   8  11
HETATM   11  C   UNL     1      43.705  -9.161  10.133  1.00  0.00     0.048 A 
HETATM   12  C   UNL     1      42.868  -9.701   9.229  1.00  0.00     0.108 A 
HETATM   13  N   UNL     1      43.343 -10.540   8.249  1.00  0.00    -0.333 N 
HETATM   14  C   UNL     1      44.663 -10.901   8.119  1.00  0.00     0.245 A 
HETATM   15  H   UNL     1      42.706 -10.938   7.568  1.00  0.00     0.168 HD
HETATM   16  O   UNL     1      45.071 -11.641   7.233  1.00  0.00    -0.268 OA
HETATM   17  C   UNL     1      45.586 -10.342   9.142  1.00  0.00     0.075 A 
HETATM   18  C   UNL     1      45.112  -9.522  10.094  1.00  0.00     0.024 A 
ENDBRANCH   8  11
ENDBRANCH   4   7
BRANCH   1  19
HETATM   19  O   UNL     1      40.955  -6.703  17.120  1.00  0.00    -0.311 OA
BRANCH  19  20
HETATM   20  C   UNL     1      40.867  -7.542  18.212  1.00  0.00     0.076 A 
HETATM   21  C   UNL     1      42.074  -7.835  18.850  1.00  0.00     0.037 A 
HETATM   22  C   UNL     1      42.089  -8.647  19.986  1.00  0.00     0.003 A 
HETATM   23  C   UNL     1      40.895  -9.160  20.491  1.00  0.00     0.000 A 
HETATM   24  C   UNL     1      39.686  -8.855  19.866  1.00  0.00     0.003 A 
HETATM   25  C   UNL     1      39.669  -8.041  18.731  1.00  0.00     0.037 A 
ENDBRANCH  19  20
ENDBRANCH   1  19
TORSDOF 4
ENDMDL
MODEL 8
REMARK VINA RESULT:      -7.4      2.043      2.877
REMARK  4 active torsions:
REMARK  status: ('A' for Active; 'I' for Inactive)
REMARK    1  A    between atoms: C_4  and  O_5 
REMARK    2  A    between atoms: O_5  and  C_6 
REMARK    3  A    between atoms: C_9  and  N_10 
REMARK       I    between atoms: N_10  and  C_11 
REMARK    4  A    between atoms: C_11  and  C_12 
ROOT
HETATM    1  C   UNL     1      42.312 -15.807   2.550  1.00  0.00     0.076 A 
HETATM    2  C   UNL     1      41.033 -16.344   2.456  1.00  0.00     0.039 A 
HETATM    3  C   UNL     1      40.057 -15.696   1.692  1.00  0.00     0.032 A 
HETATM    4  C   UNL     1      40.351 -14.497   1.036  1.00  0.00     0.035 A 
HETATM    5  C   UNL     1      41.636 -13.948   1.169  1.00  0.00     0.032 A 
HETATM    6  C   UNL     1      42.614 -14.597   1.928  1.00  0.00     0.039 A 
ENDROOT
BRANCH   4   7
HETATM    7  N   UNL     1      39.434 -13.797   0.224  1.00  0.00    -0.323 N 
HETATM    8  C   UNL     1      39.337 -13.832  -1.153  1.00  0.00     0.257 C 
HETATM    9  O   UNL     1      39.974 -14.547  -1.919  1.00  0.00    -0.267 OA
HETATM   10  H   UNL     1      38.763 -13.224   0.718  1.00  0.00     0.169 HD
BRANCH   8  11
HETATM   11  C   UNL     1      38.296 -12.897  -1.694  1.00  0.00     0.048 A 
HETATM   12  C   UNL     1      37.549 -13.328  -2.726  1.00  0.00     0.108 A 
HETATM   13  N   UNL     1      36.587 -12.518  -3.279  1.00  0.00    -0.333 N 
HETATM   14  C   UNL     1      36.322 -11.238  -2.854  1.00  0.00     0.245 A 
HETATM   15  H   UNL     1      36.024 -12.852  -4.054  1.00  0.00     0.168 HD
HETATM   16  O   UNL     1      35.452 -10.533  -3.351  1.00  0.00    -0.268 OA
HETATM   17  C   UNL     1      37.173 -10.741  -1.741  1.00  0.00     0.075 A 
HETATM   18  C   UNL     1      38.110 -11.540  -1.207  1.00  0.00     0.024 A 
ENDBRANCH   8  11
ENDBRANCH   4   7
BRANCH   1  19
HETATM   19  O   UNL     1      43.238 -16.465   3.320  1.00  0.00    -0.311 OA
BRANCH  19  20
HETATM   20  C   UNL     1      43.172 -16.286   4.686  1.00  0.00     0.076 A 
HETATM   21  C   UNL     1      43.343 -17.437   5.458  1.00  0.00     0.037 A 
HETATM   22  C   UNL     1      43.327 -17.358   6.851  1.00  0.00     0.003 A 
HETATM   23  C   UNL     1      43.151 -16.123   7.476  1.00  0.00     0.000 A 
HETATM   24  C   UNL     1      42.998 -14.969   6.709  1.00  0.00     0.003 A 
HETATM   25  C   UNL     1      43.015 -15.047   5.314  1.00  0.00     0.037 A 
ENDBRANCH  19  20
ENDBRANCH   1  19
TORSDOF 4
ENDMDL
MODEL 9
REMARK VINA RESULT:      -7.4      2.296      3.160
REMARK  4 active torsions:
REMARK  status: ('A' for Active; 'I' for Inactive)
REMARK    1  A    between atoms: C_4  and  O_5 
REMARK    2  A    between atoms: O_5  and  C_6 
REMARK    3  A    between atoms: C_9  and  N_10 
REMARK       I    between atoms: N_10  and  C_11 
REMARK    4  A    between atoms: C_11  and  C_12 
ROOT
HETATM    1  C   UNL     1      42.285 -16.448   2.881  1.00  0.00     0.076 A 
HETATM    2  C   UNL     1      43.179 -15.480   2.436  1.00  0.00     0.039 A 
HETATM    3  C   UNL     1      42.767 -14.526   1.500  1.00  0.00     0.032 A 
HETATM    4  C   UNL     1      41.466 -14.550   0.990  1.00  0.00     0.035 A 
HETATM    5  C   UNL     1      40.586 -15.555   1.420  1.00  0.00     0.032 A 
HETATM    6  C   UNL     1      40.994 -16.506   2.359  1.00  0.00     0.039 A 
ENDROOT
BRANCH   4   7
HETATM    7  N   UNL     1      40.964 -13.609   0.066  1.00  0.00    -0.323 N 
HETATM    8  C   UNL     1      40.011 -13.820  -0.912  1.00  0.00     0.257 C 
HETATM    9  O   UNL     1      39.363 -14.843  -1.100  1.00  0.00    -0.267 OA
HETATM   10  H   UNL     1      41.334 -12.672   0.153  1.00  0.00     0.169 HD
BRANCH   8  11
HETATM   11  C   UNL     1      39.773 -12.614  -1.772  1.00  0.00     0.048 A 
HETATM   12  C   UNL     1      38.615 -12.555  -2.453  1.00  0.00     0.108 A 
HETATM   13  N   UNL     1      38.338 -11.486  -3.270  1.00  0.00    -0.333 N 
HETATM   14  C   UNL     1      39.193 -10.428  -3.469  1.00  0.00     0.245 A 
HETATM   15  H   UNL     1      37.460 -11.446  -3.776  1.00  0.00     0.168 HD
HETATM   16  O   UNL     1      38.925  -9.476  -4.191  1.00  0.00    -0.268 OA
HETATM   17  C   UNL     1      40.493 -10.508  -2.751  1.00  0.00     0.075 A 
HETATM   18  C   UNL     1      40.753 -11.557  -1.955  1.00  0.00     0.024 A 
ENDBRANCH   8  11
ENDBRANCH   4   7
BRANCH   1  19
HETATM   19  O   UNL     1      42.731 -17.375   3.789  1.00  0.00    -0.311 OA
BRANCH  19  20
HETATM   20  C   UNL     1      42.874 -16.966   5.099  1.00  0.00     0.076 A 
HETATM   21  C   UNL     1      44.175 -16.995   5.605  1.00  0.00     0.037 A 
HETATM   22  C   UNL     1      44.432 -16.568   6.909  1.00  0.00     0.003 A 
HETATM   23  C   UNL     1      43.387 -16.101   7.707  1.00  0.00     0.000 A 
HETATM   24  C   UNL     1      42.089 -16.054   7.199  1.00  0.00     0.003 A 
HETATM   25  C   UNL     1      41.832 -16.479   5.894  1.00  0.00     0.037 A 
ENDBRANCH  19  20
ENDBRANCH   1  19
TORSDOF 4
ENDMDL
MODEL 10
REMARK VINA RESULT:      -7.4     11.853     13.899
REMARK  4 active torsions:
REMARK  status: ('A' for Active; 'I' for Inactive)
REMARK    1  A    between atoms: C_4  and  O_5 
REMARK    2  A    between atoms: O_5  and  C_6 
REMARK    3  A    between atoms: C_9  and  N_10 
REMARK       I    between atoms: N_10  and  C_11 
REMARK    4  A    between atoms: C_11  and  C_12 
ROOT
HETATM    1  C   UNL     1      42.045  -8.572  14.080  1.00  0.00     0.076 A 
HETATM    2  C   UNL     1      43.082  -7.895  13.448  1.00  0.00     0.039 A 
HETATM    3  C   UNL     1      43.492  -8.281  12.168  1.00  0.00     0.032 A 
HETATM    4  C   UNL     1      42.880  -9.362  11.525  1.00  0.00     0.035 A 
HETATM    5  C   UNL     1      41.860 -10.059  12.191  1.00  0.00     0.032 A 
HETATM    6  C   UNL     1      41.446  -9.671  13.467  1.00  0.00     0.039 A 
ENDROOT
BRANCH   4   7
HETATM    7  N   UNL     1      43.215  -9.798  10.225  1.00  0.00    -0.323 N 
HETATM    8  C   UNL     1      44.404 -10.365   9.811  1.00  0.00     0.257 C 
HETATM    9  O   UNL     1      45.358 -10.674  10.517  1.00  0.00    -0.267 OA
HETATM   10  H   UNL     1      42.486  -9.699   9.531  1.00  0.00     0.169 HD
BRANCH   8  11
HETATM   11  C   UNL     1      44.446 -10.635   8.337  1.00  0.00     0.048 A 
HETATM   12  C   UNL     1      43.296 -10.511   7.650  1.00  0.00     0.108 A 
HETATM   13  N   UNL     1      43.259 -10.757   6.297  1.00  0.00    -0.333 N 
HETATM   14  C   UNL     1      44.349 -11.150   5.558  1.00  0.00     0.245 A 
HETATM   15  H   UNL     1      42.390 -10.656   5.786  1.00  0.00     0.168 HD
HETATM   16  O   UNL     1      44.301 -11.353   4.351  1.00  0.00    -0.268 OA
HETATM   17  C   UNL     1      45.613 -11.330   6.320  1.00  0.00     0.075 A 
HETATM   18  C   UNL     1      45.638 -11.086   7.640  1.00  0.00     0.024 A 
ENDBRANCH   8  11
ENDBRANCH   4   7
BRANCH   1  19
HETATM   19  O   UNL     1      41.681  -8.171  15.342  1.00  0.00    -0.311 OA
BRANCH  19  20
HETATM   20  C   UNL     1      40.635  -7.279  15.448  1.00  0.00     0.076 A 
HETATM   21  C   UNL     1      40.435  -6.726  16.715  1.00  0.00     0.037 A 
HETATM   22  C   UNL     1      39.423  -5.787  16.920  1.00  0.00     0.003 A 
HETATM   23  C   UNL     1      38.614  -5.390  15.855  1.00  0.00     0.000 A 
HETATM   24  C   UNL     1      38.822  -5.928  14.585  1.00  0.00     0.003 A 
HETATM   25  C   UNL     1      39.835  -6.866  14.378  1.00  0.00     0.037 A 
ENDBRANCH  19  20
ENDBRANCH   1  19
TORSDOF 4
ENDMDL
