MODEL 1
REMARK VINA RESULT:      -9.5      0.000      0.000
REMARK  6 active torsions:
REMARK  status: ('A' for Active; 'I' for Inactive)
REMARK    1  A    between atoms: O_2  and  C_3 
REMARK    2  A    between atoms: C_10  and  C_11 
REMARK    3  A    between atoms: C_11  and  C_12 
REMARK    4  A    between atoms: C_12  and  N_13 
REMARK       I    between atoms: N_13  and  C_14 
REMARK    5  A    between atoms: C_14  and  C_15 
REMARK    6  A    between atoms: C_21  and  C_22 
ROOT
HETATM    1  N   UNL     1      41.682 -13.282   6.574  1.00  0.00    -0.357 N 
HETATM    2  C   UNL     1      42.129 -12.138   5.946  1.00  0.00     0.251 C 
HETATM    3  O   UNL     1      41.540 -11.605   5.012  1.00  0.00    -0.268 OA
HETATM    4  H   UNL     1      42.012 -13.471   7.512  1.00  0.00     0.162 HD
ENDROOT
BRANCH   2   5
HETATM    5  C   UNL     1      43.392 -11.536   6.465  1.00  0.00     0.033 A 
HETATM    6  C   UNL     1      43.270 -10.690   7.595  1.00  0.00     0.033 A 
HETATM    7  C   UNL     1      44.492 -10.125   7.961  1.00  0.00     0.033 A 
HETATM    8  C   UNL     1      45.764 -10.357   7.317  1.00  0.00     0.097 A 
HETATM    9  C   UNL     1      44.737  -9.255   8.994  1.00  0.00     0.124 A 
HETATM   10  N   UNL     1      46.713  -9.657   7.957  1.00  0.00    -0.127 NA
HETATM   11  C   UNL     1      45.868 -11.203   6.201  1.00  0.00     0.036 A 
HETATM   12  O   UNL     1      46.081  -8.985   8.985  1.00  0.00    -0.211 OA
HETATM   13  C   UNL     1      44.639 -11.775   5.794  1.00  0.00     0.019 A 
BRANCH   9  14
HETATM   14  C   UNL     1      43.977  -8.570  10.034  1.00  0.00     0.001 A 
HETATM   15  C   UNL     1      43.228  -7.418   9.755  1.00  0.00     0.014 A 
HETATM   16  C   UNL     1      42.500  -6.774  10.761  1.00  0.00     0.001 A 
HETATM   17  C   UNL     1      42.518  -7.267  12.063  1.00  0.00     0.000 A 
HETATM   18  C   UNL     1      43.267  -8.402  12.362  1.00  0.00     0.001 A 
HETATM   19  C   UNL     1      43.990  -9.047  11.355  1.00  0.00     0.014 A 
ENDBRANCH   9  14
ENDBRANCH   2   5
BRANCH   1  20
HETATM   20  C   UNL     1      40.405 -13.874   6.204  1.00  0.00     0.127 C 
BRANCH  20  21
HETATM   21  C   UNL     1      40.494 -15.385   5.981  1.00  0.00     0.060 C 
BRANCH  21  22
HETATM   22  C   UNL     1      40.956 -15.750   4.604  1.00  0.00    -0.029 A 
HETATM   23  C   UNL     1      41.992 -16.676   4.254  1.00  0.00     0.001 A 
HETATM   24  C   UNL     1      42.875 -17.491   5.000  1.00  0.00     0.051 A 
HETATM   25  C   UNL     1      42.064 -16.716   2.863  1.00  0.00     0.043 A 
HETATM   26  C   UNL     1      43.788 -18.314   4.331  1.00  0.00     0.069 A 
HETATM   27  C   UNL     1      43.816 -18.336   2.936  1.00  0.00     0.039 A 
HETATM   28  C   UNL     1      42.962 -17.535   2.174  1.00  0.00     0.033 A 
HETATM   29  N   UNL     1      41.127 -15.832   2.381  1.00  0.00    -0.365 N 
HETATM   30  H   UNL     1      40.963 -15.646   1.401  1.00  0.00     0.165 HD
HETATM   31  C   UNL     1      40.453 -15.247   3.418  1.00  0.00     0.096 A 
BRANCH  26  32
HETATM   32  O   UNL     1      44.692 -19.151   4.930  1.00  0.00    -0.356 OA
HETATM   33  C   UNL     1      44.352 -20.532   4.981  1.00  0.00     0.210 C 
ENDBRANCH  26  32
ENDBRANCH  21  22
ENDBRANCH  20  21
ENDBRANCH   1  20
TORSDOF 6
ENDMDL
MODEL 2
REMARK VINA RESULT:      -9.2      4.527      9.142
REMARK  6 active torsions:
REMARK  status: ('A' for Active; 'I' for Inactive)
REMARK    1  A    between atoms: O_2  and  C_3 
REMARK    2  A    between atoms: C_10  and  C_11 
REMARK    3  A    between atoms: C_11  and  C_12 
REMARK    4  A    between atoms: C_12  and  N_13 
REMARK       I    between atoms: N_13  and  C_14 
REMARK    5  A    between atoms: C_14  and  C_15 
REMARK    6  A    between atoms: C_21  and  C_22 
ROOT
HETATM    1  N   UNL     1      40.829 -14.231   1.990  1.00  0.00    -0.357 N 
HETATM    2  C   UNL     1      40.817 -13.708   3.267  1.00  0.00     0.251 C 
HETATM    3  O   UNL     1      39.995 -12.884   3.653  1.00  0.00    -0.268 OA
HETATM    4  H   UNL     1      41.298 -15.116   1.843  1.00  0.00     0.162 HD
ENDROOT
BRANCH   2   5
HETATM    5  C   UNL     1      41.866 -14.202   4.207  1.00  0.00     0.033 A 
HETATM    6  C   UNL     1      42.313 -15.532   4.010  1.00  0.00     0.033 A 
HETATM    7  C   UNL     1      43.240 -15.921   4.977  1.00  0.00     0.033 A 
HETATM    8  C   UNL     1      43.740 -15.102   6.057  1.00  0.00     0.097 A 
HETATM    9  C   UNL     1      43.866 -17.137   5.097  1.00  0.00     0.124 A 
HETATM   10  N   UNL     1      44.628 -15.810   6.770  1.00  0.00    -0.127 NA
HETATM   11  C   UNL     1      43.289 -13.783   6.234  1.00  0.00     0.036 A 
HETATM   12  O   UNL     1      44.705 -17.056   6.178  1.00  0.00    -0.211 OA
HETATM   13  C   UNL     1      42.332 -13.367   5.279  1.00  0.00     0.019 A 
BRANCH   9  14
HETATM   14  C   UNL     1      43.860 -18.428   4.417  1.00  0.00     0.001 A 
HETATM   15  C   UNL     1      43.693 -18.523   3.028  1.00  0.00     0.014 A 
HETATM   16  C   UNL     1      43.693 -19.768   2.388  1.00  0.00     0.001 A 
HETATM   17  C   UNL     1      43.851 -20.935   3.130  1.00  0.00     0.000 A 
HETATM   18  C   UNL     1      44.004 -20.861   4.512  1.00  0.00     0.001 A 
HETATM   19  C   UNL     1      44.008 -19.617   5.149  1.00  0.00     0.014 A 
ENDBRANCH   9  14
ENDBRANCH   2   5
BRANCH   1  20
HETATM   20  C   UNL     1      39.780 -13.887   1.044  1.00  0.00     0.127 C 
BRANCH  20  21
HETATM   21  C   UNL     1      40.025 -14.468  -0.351  1.00  0.00     0.060 C 
BRANCH  21  22
HETATM   22  C   UNL     1      39.719 -13.500  -1.453  1.00  0.00    -0.029 A 
HETATM   23  C   UNL     1      40.279 -12.195  -1.641  1.00  0.00     0.001 A 
HETATM   24  C   UNL     1      41.220 -11.416  -0.926  1.00  0.00     0.051 A 
HETATM   25  C   UNL     1      39.723 -11.665  -2.804  1.00  0.00     0.043 A 
HETATM   26  C   UNL     1      41.569 -10.146  -1.400  1.00  0.00     0.069 A 
HETATM   27  C   UNL     1      40.999  -9.660  -2.578  1.00  0.00     0.039 A 
HETATM   28  C   UNL     1      40.062 -10.404  -3.299  1.00  0.00     0.033 A 
HETATM   29  N   UNL     1      38.838 -12.598  -3.293  1.00  0.00    -0.365 N 
HETATM   30  H   UNL     1      38.280 -12.477  -4.127  1.00  0.00     0.165 HD
HETATM   31  C   UNL     1      38.829 -13.707  -2.491  1.00  0.00     0.096 A 
BRANCH  26  32
HETATM   32  O   UNL     1      42.464  -9.295  -0.809  1.00  0.00    -0.356 OA
HETATM   33  C   UNL     1      42.876  -8.167  -1.573  1.00  0.00     0.210 C 
ENDBRANCH  26  32
ENDBRANCH  21  22
ENDBRANCH  20  21
ENDBRANCH   1  20
TORSDOF 6
ENDMDL
MODEL 3
REMARK VINA RESULT:      -9.2      1.689      2.626
REMARK  6 active torsions:
REMARK  status: ('A' for Active; 'I' for Inactive)
REMARK    1  A    between atoms: O_2  and  C_3 
REMARK    2  A    between atoms: C_10  and  C_11 
REMARK    3  A    between atoms: C_11  and  C_12 
REMARK    4  A    between atoms: C_12  and  N_13 
REMARK       I    between atoms: N_13  and  C_14 
REMARK    5  A    between atoms: C_14  and  C_15 
REMARK    6  A    between atoms: C_21  and  C_22 
ROOT
HETATM    1  N   UNL     1      41.786 -13.508   6.739  1.00  0.00    -0.357 N 
HETATM    2  C   UNL     1      42.295 -12.490   5.959  1.00  0.00     0.251 C 
HETATM    3  O   UNL     1      41.789 -12.131   4.902  1.00  0.00    -0.268 OA
HETATM    4  H   UNL     1      42.038 -13.528   7.720  1.00  0.00     0.162 HD
ENDROOT
BRANCH   2   5
HETATM    5  C   UNL     1      43.519 -11.802   6.466  1.00  0.00     0.033 A 
HETATM    6  C   UNL     1      43.353 -10.976   7.605  1.00  0.00     0.033 A 
HETATM    7  C   UNL     1      44.536 -10.327   7.959  1.00  0.00     0.033 A 
HETATM    8  C   UNL     1      45.812 -10.461   7.295  1.00  0.00     0.097 A 
HETATM    9  C   UNL     1      44.733  -9.449   8.995  1.00  0.00     0.124 A 
HETATM   10  N   UNL     1      46.717  -9.699   7.927  1.00  0.00    -0.127 NA
HETATM   11  C   UNL     1      45.960 -11.289   6.170  1.00  0.00     0.036 A 
HETATM   12  O   UNL     1      46.053  -9.082   8.970  1.00  0.00    -0.211 OA
HETATM   13  C   UNL     1      44.771 -11.945   5.775  1.00  0.00     0.019 A 
BRANCH   9  14
HETATM   14  C   UNL     1      43.940  -8.829  10.052  1.00  0.00     0.001 A 
HETATM   15  C   UNL     1      43.781  -9.440  11.303  1.00  0.00     0.014 A 
HETATM   16  C   UNL     1      43.021  -8.832  12.308  1.00  0.00     0.001 A 
HETATM   17  C   UNL     1      42.402  -7.607  12.072  1.00  0.00     0.000 A 
HETATM   18  C   UNL     1      42.538  -6.991  10.831  1.00  0.00     0.001 A 
HETATM   19  C   UNL     1      43.301  -7.598   9.830  1.00  0.00     0.014 A 
ENDBRANCH   9  14
ENDBRANCH   2   5
BRANCH   1  20
HETATM   20  C   UNL     1      40.537 -14.160   6.376  1.00  0.00     0.127 C 
BRANCH  20  21
HETATM   21  C   UNL     1      40.581 -15.677   6.572  1.00  0.00     0.060 C 
BRANCH  21  22
HETATM   22  C   UNL     1      41.665 -16.341   5.779  1.00  0.00    -0.029 A 
HETATM   23  C   UNL     1      41.869 -16.271   4.362  1.00  0.00     0.001 A 
HETATM   24  C   UNL     1      41.189 -15.627   3.301  1.00  0.00     0.051 A 
HETATM   25  C   UNL     1      43.006 -17.021   4.067  1.00  0.00     0.043 A 
HETATM   26  C   UNL     1      41.671 -15.756   1.993  1.00  0.00     0.069 A 
HETATM   27  C   UNL     1      42.822 -16.504   1.744  1.00  0.00     0.039 A 
HETATM   28  C   UNL     1      43.509 -17.156   2.771  1.00  0.00     0.033 A 
HETATM   29  N   UNL     1      43.464 -17.550   5.251  1.00  0.00    -0.365 N 
HETATM   30  H   UNL     1      44.273 -18.148   5.338  1.00  0.00     0.165 HD
HETATM   31  C   UNL     1      42.667 -17.145   6.288  1.00  0.00     0.096 A 
BRANCH  26  32
HETATM   32  O   UNL     1      41.113 -15.185   0.880  1.00  0.00    -0.356 OA
HETATM   33  C   UNL     1      40.093 -14.218   1.098  1.00  0.00     0.210 C 
ENDBRANCH  26  32
ENDBRANCH  21  22
ENDBRANCH  20  21
ENDBRANCH   1  20
TORSDOF 6
ENDMDL
MODEL 4
REMARK VINA RESULT:      -9.0      4.596      9.423
REMARK  6 active torsions:
REMARK  status: ('A' for Active; 'I' for Inactive)
REMARK    1  A    between atoms: O_2  and  C_3 
REMARK    2  A    between atoms: C_10  and  C_11 
REMARK    3  A    between atoms: C_11  and  C_12 
REMARK    4  A    between atoms: C_12  and  N_13 
REMARK       I    between atoms: N_13  and  C_14 
REMARK    5  A    between atoms: C_14  and  C_15 
REMARK    6  A    between atoms: C_21  and  C_22 
ROOT
HETATM    1  N   UNL     1      41.785 -14.093   1.507  1.00  0.00    -0.357 N 
HETATM    2  C   UNL     1      42.243 -13.276   2.520  1.00  0.00     0.251 C 
HETATM    3  O   UNL     1      42.220 -12.052   2.465  1.00  0.00    -0.268 OA
HETATM    4  H   UNL     1      41.528 -15.044   1.741  1.00  0.00     0.162 HD
ENDROOT
BRANCH   2   5
HETATM    5  C   UNL     1      42.774 -13.952   3.741  1.00  0.00     0.033 A 
HETATM    6  C   UNL     1      43.026 -15.342   3.633  1.00  0.00     0.033 A 
HETATM    7  C   UNL     1      43.454 -15.891   4.842  1.00  0.00     0.033 A 
HETATM    8  C   UNL     1      43.657 -15.174   6.079  1.00  0.00     0.097 A 
HETATM    9  C   UNL     1      43.774 -17.201   5.101  1.00  0.00     0.124 A 
HETATM   10  N   UNL     1      44.088 -16.031   7.017  1.00  0.00    -0.127 NA
HETATM   11  C   UNL     1      43.408 -13.794   6.166  1.00  0.00     0.036 A 
HETATM   12  O   UNL     1      44.160 -17.272   6.413  1.00  0.00    -0.211 OA
HETATM   13  C   UNL     1      42.952 -13.213   4.960  1.00  0.00     0.019 A 
BRANCH   9  14
HETATM   14  C   UNL     1      43.794 -18.471   4.382  1.00  0.00     0.001 A 
HETATM   15  C   UNL     1      43.583 -18.533   2.998  1.00  0.00     0.014 A 
HETATM   16  C   UNL     1      43.610 -19.757   2.321  1.00  0.00     0.001 A 
HETATM   17  C   UNL     1      43.839 -20.938   3.022  1.00  0.00     0.000 A 
HETATM   18  C   UNL     1      44.036 -20.898   4.400  1.00  0.00     0.001 A 
HETATM   19  C   UNL     1      44.015 -19.674   5.073  1.00  0.00     0.014 A 
ENDBRANCH   9  14
ENDBRANCH   2   5
BRANCH   1  20
HETATM   20  C   UNL     1      41.152 -13.520   0.329  1.00  0.00     0.127 C 
BRANCH  20  21
HETATM   21  C   UNL     1      39.979 -14.359  -0.181  1.00  0.00     0.060 C 
BRANCH  21  22
HETATM   22  C   UNL     1      39.233 -13.707  -1.305  1.00  0.00    -0.029 A 
HETATM   23  C   UNL     1      38.369 -12.566  -1.224  1.00  0.00     0.001 A 
HETATM   24  C   UNL     1      37.938 -11.732  -0.166  1.00  0.00     0.051 A 
HETATM   25  C   UNL     1      37.913 -12.296  -2.514  1.00  0.00     0.043 A 
HETATM   26  C   UNL     1      37.074 -10.664  -0.436  1.00  0.00     0.069 A 
HETATM   27  C   UNL     1      36.654 -10.419  -1.744  1.00  0.00     0.039 A 
HETATM   28  C   UNL     1      37.058 -11.232  -2.807  1.00  0.00     0.033 A 
HETATM   29  N   UNL     1      38.456 -13.248  -3.345  1.00  0.00    -0.365 N 
HETATM   30  H   UNL     1      38.288 -13.304  -4.340  1.00  0.00     0.165 HD
HETATM   31  C   UNL     1      39.254 -14.100  -2.630  1.00  0.00     0.096 A 
BRANCH  26  32
HETATM   32  O   UNL     1      36.585  -9.782   0.491  1.00  0.00    -0.356 OA
HETATM   33  C   UNL     1      35.191  -9.507   0.442  1.00  0.00     0.210 C 
ENDBRANCH  26  32
ENDBRANCH  21  22
ENDBRANCH  20  21
ENDBRANCH   1  20
TORSDOF 6
ENDMDL
MODEL 5
REMARK VINA RESULT:      -9.0      2.186     10.076
REMARK  6 active torsions:
REMARK  status: ('A' for Active; 'I' for Inactive)
REMARK    1  A    between atoms: O_2  and  C_3 
REMARK    2  A    between atoms: C_10  and  C_11 
REMARK    3  A    between atoms: C_11  and  C_12 
REMARK    4  A    between atoms: C_12  and  N_13 
REMARK       I    between atoms: N_13  and  C_14 
REMARK    5  A    between atoms: C_14  and  C_15 
REMARK    6  A    between atoms: C_21  and  C_22 
ROOT
HETATM    1  N   UNL     1      44.447 -11.274   7.413  1.00  0.00    -0.357 N 
HETATM    2  C   UNL     1      44.441 -11.444   6.044  1.00  0.00     0.251 C 
HETATM    3  O   UNL     1      45.369 -11.110   5.317  1.00  0.00    -0.268 OA
HETATM    4  H   UNL     1      43.827 -11.852   7.967  1.00  0.00     0.162 HD
ENDROOT
BRANCH   2   5
HETATM    5  C   UNL     1      43.229 -12.083   5.450  1.00  0.00     0.033 A 
HETATM    6  C   UNL     1      43.355 -13.443   5.073  1.00  0.00     0.033 A 
HETATM    7  C   UNL     1      42.195 -13.928   4.469  1.00  0.00     0.033 A 
HETATM    8  C   UNL     1      40.974 -13.187   4.251  1.00  0.00     0.097 A 
HETATM    9  C   UNL     1      41.971 -15.188   3.973  1.00  0.00     0.124 A 
HETATM   10  N   UNL     1      40.074 -13.987   3.661  1.00  0.00    -0.127 NA
HETATM   11  C   UNL     1      40.865 -11.840   4.637  1.00  0.00     0.036 A 
HETATM   12  O   UNL     1      40.688 -15.214   3.495  1.00  0.00    -0.211 OA
HETATM   13  C   UNL     1      42.035 -11.315   5.234  1.00  0.00     0.019 A 
BRANCH   9  14
HETATM   14  C   UNL     1      42.712 -16.436   3.820  1.00  0.00     0.001 A 
HETATM   15  C   UNL     1      43.495 -16.955   4.860  1.00  0.00     0.014 A 
HETATM   16  C   UNL     1      44.197 -18.156   4.701  1.00  0.00     0.001 A 
HETATM   17  C   UNL     1      44.132 -18.849   3.495  1.00  0.00     0.000 A 
HETATM   18  C   UNL     1      43.370 -18.341   2.446  1.00  0.00     0.001 A 
HETATM   19  C   UNL     1      42.666 -17.145   2.608  1.00  0.00     0.014 A 
ENDBRANCH   9  14
ENDBRANCH   2   5
BRANCH   1  20
HETATM   20  C   UNL     1      45.630 -10.759   8.086  1.00  0.00     0.127 C 
BRANCH  20  21
HETATM   21  C   UNL     1      45.360 -10.364   9.539  1.00  0.00     0.060 C 
BRANCH  21  22
HETATM   22  C   UNL     1      44.534  -9.120   9.667  1.00  0.00    -0.029 A 
HETATM   23  C   UNL     1      43.695  -8.747  10.766  1.00  0.00     0.001 A 
HETATM   24  C   UNL     1      43.362  -9.354  12.000  1.00  0.00     0.051 A 
HETATM   25  C   UNL     1      43.139  -7.505  10.464  1.00  0.00     0.043 A 
HETATM   26  C   UNL     1      42.493  -8.698  12.881  1.00  0.00     0.069 A 
HETATM   27  C   UNL     1      41.972  -7.449  12.546  1.00  0.00     0.039 A 
HETATM   28  C   UNL     1      42.277  -6.829  11.330  1.00  0.00     0.033 A 
HETATM   29  N   UNL     1      43.599  -7.145   9.219  1.00  0.00    -0.365 N 
HETATM   30  H   UNL     1      43.350  -6.291   8.739  1.00  0.00     0.165 HD
HETATM   31  C   UNL     1      44.441  -8.108   8.731  1.00  0.00     0.096 A 
BRANCH  26  32
HETATM   32  O   UNL     1      42.093  -9.171  14.103  1.00  0.00    -0.356 OA
HETATM   33  C   UNL     1      41.624  -8.209  15.040  1.00  0.00     0.210 C 
ENDBRANCH  26  32
ENDBRANCH  21  22
ENDBRANCH  20  21
ENDBRANCH   1  20
TORSDOF 6
ENDMDL
MODEL 6
REMARK VINA RESULT:      -9.0      2.519      8.660
REMARK  6 active torsions:
REMARK  status: ('A' for Active; 'I' for Inactive)
REMARK    1  A    between atoms: O_2  and  C_3 
REMARK    2  A    between atoms: C_10  and  C_11 
REMARK    3  A    between atoms: C_11  and  C_12 
REMARK    4  A    between atoms: C_12  and  N_13 
REMARK       I    between atoms: N_13  and  C_14 
REMARK    5  A    between atoms: C_14  and  C_15 
REMARK    6  A    between atoms: C_21  and  C_22 
ROOT
HETATM    1  N   UNL     1      39.547 -11.025   5.718  1.00  0.00    -0.357 N 
HETATM    2  C   UNL     1      39.754 -12.389   5.691  1.00  0.00     0.251 C 
HETATM    3  O   UNL     1      39.807 -13.085   6.699  1.00  0.00    -0.268 OA
HETATM    4  H   UNL     1      39.189 -10.581   4.881  1.00  0.00     0.162 HD
ENDROOT
BRANCH   2   5
HETATM    5  C   UNL     1      39.902 -13.020   4.346  1.00  0.00     0.033 A 
HETATM    6  C   UNL     1      40.753 -14.150   4.270  1.00  0.00     0.033 A 
HETATM    7  C   UNL     1      40.878 -14.625   2.964  1.00  0.00     0.033 A 
HETATM    8  C   UNL     1      40.224 -14.084   1.795  1.00  0.00     0.097 A 
HETATM    9  C   UNL     1      41.627 -15.688   2.527  1.00  0.00     0.124 A 
HETATM   10  N   UNL     1      40.571 -14.811   0.723  1.00  0.00    -0.127 NA
HETATM   11  C   UNL     1      39.379 -12.965   1.890  1.00  0.00     0.036 A 
HETATM   12  O   UNL     1      41.429 -15.795   1.175  1.00  0.00    -0.211 OA
HETATM   13  C   UNL     1      39.249 -12.450   3.201  1.00  0.00     0.019 A 
BRANCH   9  14
HETATM   14  C   UNL     1      42.540 -16.674   3.096  1.00  0.00     0.001 A 
HETATM   15  C   UNL     1      43.071 -16.522   4.385  1.00  0.00     0.014 A 
HETATM   16  C   UNL     1      43.942 -17.478   4.919  1.00  0.00     0.001 A 
HETATM   17  C   UNL     1      44.303 -18.593   4.169  1.00  0.00     0.000 A 
HETATM   18  C   UNL     1      43.798 -18.753   2.881  1.00  0.00     0.001 A 
HETATM   19  C   UNL     1      42.923 -17.801   2.351  1.00  0.00     0.014 A 
ENDBRANCH   9  14
ENDBRANCH   2   5
BRANCH   1  20
HETATM   20  C   UNL     1      39.284 -10.345   6.977  1.00  0.00     0.127 C 
BRANCH  20  21
HETATM   21  C   UNL     1      40.266  -9.203   7.250  1.00  0.00     0.060 C 
BRANCH  21  22
HETATM   22  C   UNL     1      41.554  -9.668   7.856  1.00  0.00    -0.029 A 
HETATM   23  C   UNL     1      42.678 -10.237   7.173  1.00  0.00     0.001 A 
HETATM   24  C   UNL     1      42.951 -10.548   5.820  1.00  0.00     0.051 A 
HETATM   25  C   UNL     1      43.658 -10.499   8.128  1.00  0.00     0.043 A 
HETATM   26  C   UNL     1      44.189 -11.103   5.475  1.00  0.00     0.069 A 
HETATM   27  C   UNL     1      45.149 -11.335   6.461  1.00  0.00     0.039 A 
HETATM   28  C   UNL     1      44.903 -11.045   7.806  1.00  0.00     0.033 A 
HETATM   29  N   UNL     1      43.146 -10.129   9.349  1.00  0.00    -0.365 N 
HETATM   30  H   UNL     1      43.638 -10.216  10.228  1.00  0.00     0.165 HD
HETATM   31  C   UNL     1      41.883  -9.625   9.198  1.00  0.00     0.096 A 
BRANCH  26  32
HETATM   32  O   UNL     1      44.582 -11.447   4.209  1.00  0.00    -0.356 OA
HETATM   33  C   UNL     1      43.595 -12.032   3.368  1.00  0.00     0.210 C 
ENDBRANCH  26  32
ENDBRANCH  21  22
ENDBRANCH  20  21
ENDBRANCH   1  20
TORSDOF 6
ENDMDL
MODEL 7
REMARK VINA RESULT:      -8.9      1.265      1.840
REMARK  6 active torsions:
REMARK  status: ('A' for Active; 'I' for Inactive)
REMARK    1  A    between atoms: O_2  and  C_3 
REMARK    2  A    between atoms: C_10  and  C_11 
REMARK    3  A    between atoms: C_11  and  C_12 
REMARK    4  A    between atoms: C_12  and  N_13 
REMARK       I    between atoms: N_13  and  C_14 
REMARK    5  A    between atoms: C_14  and  C_15 
REMARK    6  A    between atoms: C_21  and  C_22 
ROOT
HETATM    1  N   UNL     1      42.080 -12.829   4.827  1.00  0.00    -0.357 N 
HETATM    2  C   UNL     1      41.995 -11.831   5.775  1.00  0.00     0.251 C 
HETATM    3  O   UNL     1      40.934 -11.347   6.154  1.00  0.00    -0.268 OA
HETATM    4  H   UNL     1      42.919 -13.397   4.808  1.00  0.00     0.162 HD
ENDROOT
BRANCH   2   5
HETATM    5  C   UNL     1      43.280 -11.347   6.361  1.00  0.00     0.033 A 
HETATM    6  C   UNL     1      43.179 -10.518   7.506  1.00  0.00     0.033 A 
HETATM    7  C   UNL     1      44.427 -10.065   7.935  1.00  0.00     0.033 A 
HETATM    8  C   UNL     1      45.702 -10.388   7.339  1.00  0.00     0.097 A 
HETATM    9  C   UNL     1      44.699  -9.240   8.998  1.00  0.00     0.124 A 
HETATM   10  N   UNL     1      46.677  -9.783   8.034  1.00  0.00    -0.127 NA
HETATM   11  C   UNL     1      45.783 -11.217   6.207  1.00  0.00     0.036 A 
HETATM   12  O   UNL     1      46.059  -9.083   9.052  1.00  0.00    -0.211 OA
HETATM   13  C   UNL     1      44.531 -11.675   5.736  1.00  0.00     0.019 A 
BRANCH   9  14
HETATM   14  C   UNL     1      43.953  -8.516  10.022  1.00  0.00     0.001 A 
HETATM   15  C   UNL     1      43.255  -7.337   9.725  1.00  0.00     0.014 A 
HETATM   16  C   UNL     1      42.541  -6.655  10.716  1.00  0.00     0.001 A 
HETATM   17  C   UNL     1      42.522  -7.138  12.021  1.00  0.00     0.000 A 
HETATM   18  C   UNL     1      43.221  -8.300  12.339  1.00  0.00     0.001 A 
HETATM   19  C   UNL     1      43.930  -8.982  11.347  1.00  0.00     0.014 A 
ENDBRANCH   9  14
ENDBRANCH   2   5
BRANCH   1  20
HETATM   20  C   UNL     1      40.874 -13.434   4.284  1.00  0.00     0.127 C 
BRANCH  20  21
HETATM   21  C   UNL     1      40.348 -14.585   5.146  1.00  0.00     0.060 C 
BRANCH  21  22
HETATM   22  C   UNL     1      41.439 -15.443   5.710  1.00  0.00    -0.029 A 
HETATM   23  C   UNL     1      42.213 -16.429   5.016  1.00  0.00     0.001 A 
HETATM   24  C   UNL     1      42.224 -16.913   3.687  1.00  0.00     0.051 A 
HETATM   25  C   UNL     1      43.124 -16.961   5.927  1.00  0.00     0.043 A 
HETATM   26  C   UNL     1      43.142 -17.904   3.319  1.00  0.00     0.069 A 
HETATM   27  C   UNL     1      44.048 -18.398   4.259  1.00  0.00     0.039 A 
HETATM   28  C   UNL     1      44.054 -17.944   5.580  1.00  0.00     0.033 A 
HETATM   29  N   UNL     1      42.900 -16.344   7.135  1.00  0.00    -0.365 N 
HETATM   30  H   UNL     1      43.411 -16.542   7.984  1.00  0.00     0.165 HD
HETATM   31  C   UNL     1      41.891 -15.427   7.017  1.00  0.00     0.096 A 
BRANCH  26  32
HETATM   32  O   UNL     1      43.261 -18.456   2.072  1.00  0.00    -0.356 OA
HETATM   33  C   UNL     1      43.266 -19.876   1.996  1.00  0.00     0.210 C 
ENDBRANCH  26  32
ENDBRANCH  21  22
ENDBRANCH  20  21
ENDBRANCH   1  20
TORSDOF 6
ENDMDL
MODEL 8
REMARK VINA RESULT:      -8.9      4.397      8.184
REMARK  6 active torsions:
REMARK  status: ('A' for Active; 'I' for Inactive)
REMARK    1  A    between atoms: O_2  and  C_3 
REMARK    2  A    between atoms: C_10  and  C_11 
REMARK    3  A    between atoms: C_11  and  C_12 
REMARK    4  A    between atoms: C_12  and  N_13 
REMARK       I    between atoms: N_13  and  C_14 
REMARK    5  A    between atoms: C_14  and  C_15 
REMARK    6  A    between atoms: C_21  and  C_22 
ROOT
HETATM    1  N   UNL     1      42.193 -11.554   4.271  1.00  0.00    -0.357 N 
HETATM    2  C   UNL     1      42.876 -12.685   3.874  1.00  0.00     0.251 C 
HETATM    3  O   UNL     1      43.305 -12.853   2.738  1.00  0.00    -0.268 OA
HETATM    4  H   UNL     1      42.166 -11.336   5.259  1.00  0.00     0.162 HD
ENDROOT
BRANCH   2   5
HETATM    5  C   UNL     1      43.099 -13.735   4.912  1.00  0.00     0.033 A 
HETATM    6  C   UNL     1      43.238 -15.065   4.445  1.00  0.00     0.033 A 
HETATM    7  C   UNL     1      43.374 -15.976   5.492  1.00  0.00     0.033 A 
HETATM    8  C   UNL     1      43.401 -15.658   6.901  1.00  0.00     0.097 A 
HETATM    9  C   UNL     1      43.516 -17.339   5.405  1.00  0.00     0.124 A 
HETATM   10  N   UNL     1      43.562 -16.789   7.603  1.00  0.00    -0.127 NA
HETATM   11  C   UNL     1      43.267 -14.332   7.346  1.00  0.00     0.036 A 
HETATM   12  O   UNL     1      43.635 -17.817   6.683  1.00  0.00    -0.211 OA
HETATM   13  C   UNL     1      43.106 -13.387   6.306  1.00  0.00     0.019 A 
BRANCH   9  14
HETATM   14  C   UNL     1      43.558 -18.356   4.359  1.00  0.00     0.001 A 
HETATM   15  C   UNL     1      43.195 -18.063   3.037  1.00  0.00     0.014 A 
HETATM   16  C   UNL     1      43.244 -19.048   2.044  1.00  0.00     0.001 A 
HETATM   17  C   UNL     1      43.648 -20.342   2.362  1.00  0.00     0.000 A 
HETATM   18  C   UNL     1      43.998 -20.655   3.672  1.00  0.00     0.001 A 
HETATM   19  C   UNL     1      43.954 -19.669   4.662  1.00  0.00     0.014 A 
ENDBRANCH   9  14
ENDBRANCH   2   5
BRANCH   1  20
HETATM   20  C   UNL     1      42.027 -10.435   3.355  1.00  0.00     0.127 C 
BRANCH  20  21
HETATM   21  C   UNL     1      40.641 -10.402   2.705  1.00  0.00     0.060 C 
BRANCH  21  22
HETATM   22  C   UNL     1      40.668 -10.741   1.246  1.00  0.00    -0.029 A 
HETATM   23  C   UNL     1      40.462 -12.028   0.652  1.00  0.00     0.001 A 
HETATM   24  C   UNL     1      40.197 -13.319   1.167  1.00  0.00     0.051 A 
HETATM   25  C   UNL     1      40.554 -11.869  -0.730  1.00  0.00     0.043 A 
HETATM   26  C   UNL     1      40.032 -14.395   0.287  1.00  0.00     0.069 A 
HETATM   27  C   UNL     1      40.117 -14.188  -1.090  1.00  0.00     0.039 A 
HETATM   28  C   UNL     1      40.386 -12.926  -1.627  1.00  0.00     0.033 A 
HETATM   29  N   UNL     1      40.832 -10.544  -0.970  1.00  0.00    -0.365 N 
HETATM   30  H   UNL     1      40.963 -10.141  -1.888  1.00  0.00     0.165 HD
HETATM   31  C   UNL     1      40.899  -9.855   0.211  1.00  0.00     0.096 A 
BRANCH  26  32
HETATM   32  O   UNL     1      39.770 -15.688   0.652  1.00  0.00    -0.356 OA
HETATM   33  C   UNL     1      40.221 -16.096   1.938  1.00  0.00     0.210 C 
ENDBRANCH  26  32
ENDBRANCH  21  22
ENDBRANCH  20  21
ENDBRANCH   1  20
TORSDOF 6
ENDMDL
MODEL 9
REMARK VINA RESULT:      -8.9      2.438     10.473
REMARK  6 active torsions:
REMARK  status: ('A' for Active; 'I' for Inactive)
REMARK    1  A    between atoms: O_2  and  C_3 
REMARK    2  A    between atoms: C_10  and  C_11 
REMARK    3  A    between atoms: C_11  and  C_12 
REMARK    4  A    between atoms: C_12  and  N_13 
REMARK       I    between atoms: N_13  and  C_14 
REMARK    5  A    between atoms: C_14  and  C_15 
REMARK    6  A    between atoms: C_21  and  C_22 
ROOT
HETATM    1  N   UNL     1      43.805 -10.985   8.058  1.00  0.00    -0.357 N 
HETATM    2  C   UNL     1      44.155 -11.714   6.940  1.00  0.00     0.251 C 
HETATM    3  O   UNL     1      45.316 -11.931   6.611  1.00  0.00    -0.268 OA
HETATM    4  H   UNL     1      42.880 -11.123   8.446  1.00  0.00     0.162 HD
ENDROOT
BRANCH   2   5
HETATM    5  C   UNL     1      43.037 -12.264   6.118  1.00  0.00     0.033 A 
HETATM    6  C   UNL     1      43.218 -13.569   5.599  1.00  0.00     0.033 A 
HETATM    7  C   UNL     1      42.151 -13.965   4.792  1.00  0.00     0.033 A 
HETATM    8  C   UNL     1      40.967 -13.189   4.505  1.00  0.00     0.097 A 
HETATM    9  C   UNL     1      42.002 -15.154   4.122  1.00  0.00     0.124 A 
HETATM   10  N   UNL     1      40.158 -13.903   3.708  1.00  0.00    -0.127 NA
HETATM   11  C   UNL     1      40.801 -11.898   5.034  1.00  0.00     0.036 A 
HETATM   12  O   UNL     1      40.794 -15.107   3.478  1.00  0.00    -0.211 OA
HETATM   13  C   UNL     1      41.878 -11.462   5.840  1.00  0.00     0.019 A 
BRANCH   9  14
HETATM   14  C   UNL     1      42.763 -16.382   3.919  1.00  0.00     0.001 A 
HETATM   15  C   UNL     1      42.748 -17.058   2.691  1.00  0.00     0.014 A 
HETATM   16  C   UNL     1      43.487 -18.233   2.509  1.00  0.00     0.001 A 
HETATM   17  C   UNL     1      44.242 -18.753   3.556  1.00  0.00     0.000 A 
HETATM   18  C   UNL     1      44.259 -18.103   4.787  1.00  0.00     0.001 A 
HETATM   19  C   UNL     1      43.525 -16.927   4.966  1.00  0.00     0.014 A 
ENDBRANCH   9  14
ENDBRANCH   2   5
BRANCH   1  20
HETATM   20  C   UNL     1      44.828 -10.505   8.974  1.00  0.00     0.127 C 
BRANCH  20  21
HETATM   21  C   UNL     1      44.373  -9.291   9.787  1.00  0.00     0.060 C 
BRANCH  21  22
HETATM   22  C   UNL     1      43.688  -9.664  11.066  1.00  0.00    -0.029 A 
HETATM   23  C   UNL     1      43.066  -8.778  12.006  1.00  0.00     0.001 A 
HETATM   24  C   UNL     1      42.897  -7.375  12.072  1.00  0.00     0.051 A 
HETATM   25  C   UNL     1      42.540  -9.562  13.032  1.00  0.00     0.043 A 
HETATM   26  C   UNL     1      42.209  -6.812  13.154  1.00  0.00     0.069 A 
HETATM   27  C   UNL     1      41.685  -7.635  14.152  1.00  0.00     0.039 A 
HETATM   28  C   UNL     1      41.844  -9.023  14.116  1.00  0.00     0.033 A 
HETATM   29  N   UNL     1      42.850 -10.871  12.745  1.00  0.00    -0.365 N 
HETATM   30  H   UNL     1      42.601 -11.660  13.325  1.00  0.00     0.165 HD
HETATM   31  C   UNL     1      43.538 -10.944  11.564  1.00  0.00     0.096 A 
BRANCH  26  32
HETATM   32  O   UNL     1      41.974  -5.476  13.338  1.00  0.00    -0.356 OA
HETATM   33  C   UNL     1      42.318  -4.610  12.263  1.00  0.00     0.210 C 
ENDBRANCH  26  32
ENDBRANCH  21  22
ENDBRANCH  20  21
ENDBRANCH   1  20
TORSDOF 6
ENDMDL
MODEL 10
REMARK VINA RESULT:      -8.6     17.913     21.057
REMARK  6 active torsions:
REMARK  status: ('A' for Active; 'I' for Inactive)
REMARK    1  A    between atoms: O_2  and  C_3 
REMARK    2  A    between atoms: C_10  and  C_11 
REMARK    3  A    between atoms: C_11  and  C_12 
REMARK    4  A    between atoms: C_12  and  N_13 
REMARK       I    between atoms: N_13  and  C_14 
REMARK    5  A    between atoms: C_14  and  C_15 
REMARK    6  A    between atoms: C_21  and  C_22 
ROOT
HETATM    1  N   UNL     1      46.434 -33.613  -3.545  1.00  0.00    -0.357 N 
HETATM    2  C   UNL     1      47.527 -33.439  -4.368  1.00  0.00     0.251 C 
HETATM    3  O   UNL     1      47.554 -33.796  -5.541  1.00  0.00    -0.268 OA
HETATM    4  H   UNL     1      46.354 -33.020  -2.729  1.00  0.00     0.162 HD
ENDROOT
BRANCH   2   5
HETATM    5  C   UNL     1      48.718 -32.765  -3.772  1.00  0.00     0.033 A 
HETATM    6  C   UNL     1      48.468 -31.877  -2.698  1.00  0.00     0.033 A 
HETATM    7  C   UNL     1      49.633 -31.248  -2.256  1.00  0.00     0.033 A 
HETATM    8  C   UNL     1      50.964 -31.458  -2.777  1.00  0.00     0.097 A 
HETATM    9  C   UNL     1      49.756 -30.324  -1.248  1.00  0.00     0.124 A 
HETATM   10  N   UNL     1      51.828 -30.693  -2.092  1.00  0.00    -0.127 NA
HETATM   11  C   UNL     1      51.194 -32.348  -3.839  1.00  0.00     0.036 A 
HETATM   12  O   UNL     1      51.085 -30.002  -1.154  1.00  0.00    -0.211 OA
HETATM   13  C   UNL     1      50.027 -32.985  -4.322  1.00  0.00     0.019 A 
BRANCH   9  14
HETATM   14  C   UNL     1      48.884 -29.625  -0.311  1.00  0.00     0.001 A 
HETATM   15  C   UNL     1      48.711 -30.075   1.005  1.00  0.00     0.014 A 
HETATM   16  C   UNL     1      47.875 -29.391   1.895  1.00  0.00     0.001 A 
HETATM   17  C   UNL     1      47.192 -28.252   1.477  1.00  0.00     0.000 A 
HETATM   18  C   UNL     1      47.341 -27.797   0.169  1.00  0.00     0.001 A 
HETATM   19  C   UNL     1      48.180 -28.478  -0.716  1.00  0.00     0.014 A 
ENDBRANCH   9  14
ENDBRANCH   2   5
BRANCH   1  20
HETATM   20  C   UNL     1      45.194 -34.162  -4.073  1.00  0.00     0.127 C 
BRANCH  20  21
HETATM   21  C   UNL     1      44.015 -33.195  -3.944  1.00  0.00     0.060 C 
BRANCH  21  22
HETATM   22  C   UNL     1      44.355 -31.796  -4.359  1.00  0.00    -0.029 A 
HETATM   23  C   UNL     1      44.429 -30.637  -3.519  1.00  0.00     0.001 A 
HETATM   24  C   UNL     1      44.222 -30.408  -2.139  1.00  0.00     0.051 A 
HETATM   25  C   UNL     1      44.798 -29.561  -4.325  1.00  0.00     0.043 A 
HETATM   26  C   UNL     1      44.393 -29.119  -1.618  1.00  0.00     0.069 A 
HETATM   27  C   UNL     1      44.778 -28.074  -2.458  1.00  0.00     0.039 A 
HETATM   28  C   UNL     1      44.982 -28.269  -3.826  1.00  0.00     0.033 A 
HETATM   29  N   UNL     1      44.919 -30.037  -5.610  1.00  0.00    -0.365 N 
HETATM   30  H   UNL     1      45.168 -29.472  -6.410  1.00  0.00     0.165 HD
HETATM   31  C   UNL     1      44.657 -31.380  -5.642  1.00  0.00     0.096 A 
BRANCH  26  32
HETATM   32  O   UNL     1      44.228 -28.763  -0.306  1.00  0.00    -0.356 OA
HETATM   33  C   UNL     1      43.640 -29.733   0.553  1.00  0.00     0.210 C 
ENDBRANCH  26  32
ENDBRANCH  21  22
ENDBRANCH  20  21
ENDBRANCH   1  20
TORSDOF 6
ENDMDL
