MODEL 1
REMARK VINA RESULT:      -8.9      0.000      0.000
REMARK  4 active torsions:
REMARK  status: ('A' for Active; 'I' for Inactive)
REMARK    1  A    between atoms: O_2  and  C_3 
REMARK    2  A    between atoms: C_8  and  C_9 
REMARK    3  A    between atoms: N_11  and  C_12 
REMARK    4  A    between atoms: C_12  and  C_13 
ROOT
HETATM    1  C   UNL     1      38.893 -11.554  -2.757  1.00  0.00     0.069 A 
HETATM    2  C   UNL     1      39.744 -11.359  -1.669  1.00  0.00     0.056 A 
HETATM    3  C   UNL     1      40.041 -12.427  -0.819  1.00  0.00     0.063 A 
HETATM    4  C   UNL     1      39.499 -13.697  -1.027  1.00  0.00     0.074 A 
HETATM    5  N   UNL     1      39.792 -14.793  -0.197  1.00  0.00    -0.234 NA
HETATM    6  C   UNL     1      40.604 -14.607   0.793  1.00  0.00     0.113 A 
HETATM    7  N   UNL     1      41.184 -13.392   1.063  1.00  0.00    -0.310 N 
HETATM    8  C   UNL     1      40.949 -12.260   0.325  1.00  0.00     0.259 A 
HETATM    9  O   UNL     1      41.465 -11.185   0.606  1.00  0.00    -0.267 OA
HETATM   10  C   UNL     1      38.640 -13.880  -2.111  1.00  0.00     0.035 A 
HETATM   11  C   UNL     1      38.337 -12.817  -2.973  1.00  0.00     0.039 A 
HETATM   12  H   UNL     1      41.806 -13.269   1.850  1.00  0.00     0.170 HD
ENDROOT
BRANCH   6  13
HETATM   13  C   UNL     1      41.014 -15.727   1.719  1.00  0.00     0.082 C 
HETATM   14  C   UNL     1      42.488 -15.725   2.102  1.00  0.00     0.139 C 
HETATM   15  N   UNL     1      42.492 -16.295   3.426  1.00  0.00    -0.347 N 
HETATM   16  C   UNL     1      41.257 -16.231   4.039  1.00  0.00     0.220 C 
HETATM   17  O   UNL     1      40.980 -16.583   5.173  1.00  0.00    -0.273 OA
HETATM   18  C   UNL     1      40.286 -15.622   3.063  1.00  0.00     0.117 C 
BRANCH  15  19
HETATM   19  C   UNL     1      43.692 -16.809   4.058  1.00  0.00     0.164 C 
BRANCH  19  20
HETATM   20  C   UNL     1      43.767 -18.313   3.962  1.00  0.00    -0.040 A 
HETATM   21  C   UNL     1      44.022 -19.095   5.097  1.00  0.00     0.009 A 
HETATM   22  C   UNL     1      44.096 -20.486   4.995  1.00  0.00     0.001 A 
HETATM   23  C   UNL     1      43.919 -21.108   3.760  1.00  0.00     0.000 A 
HETATM   24  C   UNL     1      43.665 -20.340   2.624  1.00  0.00     0.001 A 
HETATM   25  C   UNL     1      43.589 -18.950   2.724  1.00  0.00     0.009 A 
ENDBRANCH  19  20
ENDBRANCH  15  19
ENDBRANCH   6  13
BRANCH   1  26
HETATM   26  O   UNL     1      38.682 -10.442  -3.524  1.00  0.00    -0.356 OA
HETATM   27  C   UNL     1      39.743  -9.497  -3.596  1.00  0.00     0.210 C 
ENDBRANCH   1  26
TORSDOF 4
ENDMDL
MODEL 2
REMARK VINA RESULT:      -8.9      1.455      1.837
REMARK  4 active torsions:
REMARK  status: ('A' for Active; 'I' for Inactive)
REMARK    1  A    between atoms: O_2  and  C_3 
REMARK    2  A    between atoms: C_8  and  C_9 
REMARK    3  A    between atoms: N_11  and  C_12 
REMARK    4  A    between atoms: C_12  and  C_13 
ROOT
HETATM    1  C   UNL     1      38.035 -10.277  -2.091  1.00  0.00     0.069 A 
HETATM    2  C   UNL     1      38.851 -11.305  -2.566  1.00  0.00     0.056 A 
HETATM    3  C   UNL     1      39.310 -12.289  -1.687  1.00  0.00     0.063 A 
HETATM    4  C   UNL     1      38.979 -12.268  -0.331  1.00  0.00     0.074 A 
HETATM    5  N   UNL     1      39.415 -13.252   0.572  1.00  0.00    -0.234 NA
HETATM    6  C   UNL     1      40.148 -14.215   0.117  1.00  0.00     0.113 A 
HETATM    7  N   UNL     1      40.515 -14.312  -1.203  1.00  0.00    -0.310 N 
HETATM    8  C   UNL     1      40.155 -13.395  -2.159  1.00  0.00     0.259 A 
HETATM    9  O   UNL     1      40.517 -13.499  -3.324  1.00  0.00    -0.267 OA
HETATM   10  C   UNL     1      38.172 -11.230   0.136  1.00  0.00     0.035 A 
HETATM   11  C   UNL     1      37.701 -10.239  -0.736  1.00  0.00     0.039 A 
HETATM   12  H   UNL     1      41.098 -15.069  -1.534  1.00  0.00     0.170 HD
ENDROOT
BRANCH   6  13
HETATM   13  C   UNL     1      40.636 -15.342   0.995  1.00  0.00     0.082 C 
HETATM   14  C   UNL     1      42.077 -15.203   1.466  1.00  0.00     0.139 C 
HETATM   15  N   UNL     1      42.076 -15.857   2.750  1.00  0.00    -0.347 N 
HETATM   16  C   UNL     1      40.812 -15.973   3.290  1.00  0.00     0.220 C 
HETATM   17  O   UNL     1      40.518 -16.430   4.382  1.00  0.00    -0.273 OA
HETATM   18  C   UNL     1      39.830 -15.411   2.297  1.00  0.00     0.117 C 
BRANCH  15  19
HETATM   19  C   UNL     1      43.293 -16.275   3.419  1.00  0.00     0.164 C 
BRANCH  19  20
HETATM   20  C   UNL     1      43.461 -17.775   3.376  1.00  0.00    -0.040 A 
HETATM   21  C   UNL     1      43.997 -18.471   4.468  1.00  0.00     0.009 A 
HETATM   22  C   UNL     1      44.154 -19.858   4.414  1.00  0.00     0.001 A 
HETATM   23  C   UNL     1      43.779 -20.561   3.270  1.00  0.00     0.000 A 
HETATM   24  C   UNL     1      43.245 -19.879   2.178  1.00  0.00     0.001 A 
HETATM   25  C   UNL     1      43.085 -18.494   2.231  1.00  0.00     0.009 A 
ENDBRANCH  19  20
ENDBRANCH  15  19
ENDBRANCH   6  13
BRANCH   1  26
HETATM   26  O   UNL     1      37.638  -9.378  -3.042  1.00  0.00    -0.356 OA
HETATM   27  C   UNL     1      38.382  -9.350  -4.254  1.00  0.00     0.210 C 
ENDBRANCH   1  26
TORSDOF 4
ENDMDL
MODEL 3
REMARK VINA RESULT:      -8.5      2.149      8.400
REMARK  4 active torsions:
REMARK  status: ('A' for Active; 'I' for Inactive)
REMARK    1  A    between atoms: O_2  and  C_3 
REMARK    2  A    between atoms: C_8  and  C_9 
REMARK    3  A    between atoms: N_11  and  C_12 
REMARK    4  A    between atoms: C_12  and  C_13 
ROOT
HETATM    1  C   UNL     1      44.119 -18.798   4.213  1.00  0.00     0.069 A 
HETATM    2  C   UNL     1      43.982 -17.630   4.965  1.00  0.00     0.056 A 
HETATM    3  C   UNL     1      43.360 -16.512   4.404  1.00  0.00     0.063 A 
HETATM    4  C   UNL     1      42.873 -16.528   3.095  1.00  0.00     0.074 A 
HETATM    5  N   UNL     1      42.231 -15.423   2.510  1.00  0.00    -0.234 NA
HETATM    6  C   UNL     1      42.085 -14.356   3.225  1.00  0.00     0.113 A 
HETATM    7  N   UNL     1      42.531 -14.259   4.520  1.00  0.00    -0.310 N 
HETATM    8  C   UNL     1      43.183 -15.274   5.174  1.00  0.00     0.259 A 
HETATM    9  O   UNL     1      43.588 -15.148   6.323  1.00  0.00    -0.267 OA
HETATM   10  C   UNL     1      43.025 -17.697   2.348  1.00  0.00     0.035 A 
HETATM   11  C   UNL     1      43.643 -18.827   2.901  1.00  0.00     0.039 A 
HETATM   12  H   UNL     1      42.415 -13.409   5.055  1.00  0.00     0.170 HD
ENDROOT
BRANCH   6  13
HETATM   13  C   UNL     1      41.375 -13.128   2.705  1.00  0.00     0.082 C 
HETATM   14  C   UNL     1      41.377 -12.989   1.189  1.00  0.00     0.139 C 
HETATM   15  N   UNL     1      40.141 -12.301   0.913  1.00  0.00    -0.347 N 
HETATM   16  C   UNL     1      39.234 -12.396   1.948  1.00  0.00     0.220 C 
HETATM   17  O   UNL     1      38.095 -11.960   1.970  1.00  0.00    -0.273 OA
HETATM   18  C   UNL     1      39.888 -13.160   3.068  1.00  0.00     0.117 C 
BRANCH  15  19
HETATM   19  C   UNL     1      39.872 -11.646  -0.353  1.00  0.00     0.164 C 
BRANCH  19  20
HETATM   20  C   UNL     1      39.237 -12.593  -1.342  1.00  0.00    -0.040 A 
HETATM   21  C   UNL     1      39.991 -13.598  -1.964  1.00  0.00     0.009 A 
HETATM   22  C   UNL     1      39.394 -14.464  -2.882  1.00  0.00     0.001 A 
HETATM   23  C   UNL     1      38.040 -14.334  -3.189  1.00  0.00     0.000 A 
HETATM   24  C   UNL     1      37.281 -13.338  -2.578  1.00  0.00     0.001 A 
HETATM   25  C   UNL     1      37.874 -12.473  -1.658  1.00  0.00     0.009 A 
ENDBRANCH  19  20
ENDBRANCH  15  19
ENDBRANCH   6  13
BRANCH   1  26
HETATM   26  O   UNL     1      44.733 -19.830   4.868  1.00  0.00    -0.356 OA
HETATM   27  C   UNL     1      43.920 -20.939   5.231  1.00  0.00     0.210 C 
ENDBRANCH   1  26
TORSDOF 4
ENDMDL
MODEL 4
REMARK VINA RESULT:      -8.5      5.940      7.712
REMARK  4 active torsions:
REMARK  status: ('A' for Active; 'I' for Inactive)
REMARK    1  A    between atoms: O_2  and  C_3 
REMARK    2  A    between atoms: C_8  and  C_9 
REMARK    3  A    between atoms: N_11  and  C_12 
REMARK    4  A    between atoms: C_12  and  C_13 
ROOT
HETATM    1  C   UNL     1      44.781  -8.401   8.356  1.00  0.00     0.069 A 
HETATM    2  C   UNL     1      43.557  -8.874   7.882  1.00  0.00     0.056 A 
HETATM    3  C   UNL     1      43.465 -10.168   7.363  1.00  0.00     0.063 A 
HETATM    4  C   UNL     1      44.579 -11.008   7.299  1.00  0.00     0.074 A 
HETATM    5  N   UNL     1      44.512 -12.318   6.796  1.00  0.00    -0.234 NA
HETATM    6  C   UNL     1      43.367 -12.756   6.385  1.00  0.00     0.113 A 
HETATM    7  N   UNL     1      42.223 -11.997   6.418  1.00  0.00    -0.310 N 
HETATM    8  C   UNL     1      42.187 -10.703   6.874  1.00  0.00     0.259 A 
HETATM    9  O   UNL     1      41.154 -10.044   6.870  1.00  0.00    -0.267 OA
HETATM   10  C   UNL     1      45.801 -10.522   7.764  1.00  0.00     0.035 A 
HETATM   11  C   UNL     1      45.905  -9.227   8.291  1.00  0.00     0.039 A 
HETATM   12  H   UNL     1      41.341 -12.357   6.081  1.00  0.00     0.170 HD
ENDROOT
BRANCH   6  13
HETATM   13  C   UNL     1      43.181 -14.161   5.863  1.00  0.00     0.082 C 
HETATM   14  C   UNL     1      43.842 -15.243   6.706  1.00  0.00     0.139 C 
HETATM   15  N   UNL     1      42.986 -16.387   6.515  1.00  0.00    -0.347 N 
HETATM   16  C   UNL     1      41.729 -16.045   6.062  1.00  0.00     0.220 C 
HETATM   17  O   UNL     1      40.788 -16.795   5.866  1.00  0.00    -0.273 OA
HETATM   18  C   UNL     1      41.700 -14.553   5.859  1.00  0.00     0.117 C 
BRANCH  15  19
HETATM   19  C   UNL     1      43.397 -17.739   6.842  1.00  0.00     0.164 C 
BRANCH  19  20
HETATM   20  C   UNL     1      43.610 -18.568   5.599  1.00  0.00    -0.040 A 
HETATM   21  C   UNL     1      43.734 -19.962   5.676  1.00  0.00     0.009 A 
HETATM   22  C   UNL     1      43.939 -20.718   4.519  1.00  0.00     0.001 A 
HETATM   23  C   UNL     1      44.023 -20.090   3.278  1.00  0.00     0.000 A 
HETATM   24  C   UNL     1      43.901 -18.704   3.190  1.00  0.00     0.001 A 
HETATM   25  C   UNL     1      43.695 -17.947   4.343  1.00  0.00     0.009 A 
ENDBRANCH  19  20
ENDBRANCH  15  19
ENDBRANCH   6  13
BRANCH   1  26
HETATM   26  O   UNL     1      44.748  -7.126   8.849  1.00  0.00    -0.356 OA
HETATM   27  C   UNL     1      43.496  -6.652   9.329  1.00  0.00     0.210 C 
ENDBRANCH   1  26
TORSDOF 4
ENDMDL
MODEL 5
REMARK VINA RESULT:      -8.4      5.931      9.239
REMARK  4 active torsions:
REMARK  status: ('A' for Active; 'I' for Inactive)
REMARK    1  A    between atoms: O_2  and  C_3 
REMARK    2  A    between atoms: C_8  and  C_9 
REMARK    3  A    between atoms: N_11  and  C_12 
REMARK    4  A    between atoms: C_12  and  C_13 
ROOT
HETATM    1  C   UNL     1      43.386 -18.106   2.652  1.00  0.00     0.069 A 
HETATM    2  C   UNL     1      43.564 -18.051   4.035  1.00  0.00     0.056 A 
HETATM    3  C   UNL     1      43.484 -16.824   4.697  1.00  0.00     0.063 A 
HETATM    4  C   UNL     1      43.234 -15.637   4.006  1.00  0.00     0.074 A 
HETATM    5  N   UNL     1      43.134 -14.391   4.648  1.00  0.00    -0.234 NA
HETATM    6  C   UNL     1      43.273 -14.355   5.933  1.00  0.00     0.113 A 
HETATM    7  N   UNL     1      43.515 -15.476   6.688  1.00  0.00    -0.310 N 
HETATM    8  C   UNL     1      43.647 -16.734   6.155  1.00  0.00     0.259 A 
HETATM    9  O   UNL     1      43.885 -17.711   6.854  1.00  0.00    -0.267 OA
HETATM   10  C   UNL     1      43.069 -15.700   2.622  1.00  0.00     0.035 A 
HETATM   11  C   UNL     1      43.144 -16.926   1.946  1.00  0.00     0.039 A 
HETATM   12  H   UNL     1      43.632 -15.422   7.690  1.00  0.00     0.170 HD
ENDROOT
BRANCH   6  13
HETATM   13  C   UNL     1      43.145 -13.074   6.723  1.00  0.00     0.082 C 
HETATM   14  C   UNL     1      44.465 -12.376   7.018  1.00  0.00     0.139 C 
HETATM   15  N   UNL     1      44.105 -10.981   7.060  1.00  0.00    -0.347 N 
HETATM   16  C   UNL     1      42.908 -10.718   6.425  1.00  0.00     0.220 C 
HETATM   17  O   UNL     1      42.388  -9.628   6.258  1.00  0.00    -0.273 OA
HETATM   18  C   UNL     1      42.343 -12.028   5.943  1.00  0.00     0.117 C 
BRANCH  15  19
HETATM   19  C   UNL     1      44.959  -9.966   7.646  1.00  0.00     0.164 C 
BRANCH  19  20
HETATM   20  C   UNL     1      44.402  -9.462   8.955  1.00  0.00    -0.040 A 
HETATM   21  C   UNL     1      44.374 -10.285  10.090  1.00  0.00     0.009 A 
HETATM   22  C   UNL     1      43.850  -9.810  11.294  1.00  0.00     0.001 A 
HETATM   23  C   UNL     1      43.348  -8.512  11.376  1.00  0.00     0.000 A 
HETATM   24  C   UNL     1      43.371  -7.685  10.254  1.00  0.00     0.001 A 
HETATM   25  C   UNL     1      43.896  -8.157   9.050  1.00  0.00     0.009 A 
ENDBRANCH  19  20
ENDBRANCH  15  19
ENDBRANCH   6  13
BRANCH   1  26
HETATM   26  O   UNL     1      43.476 -19.360   2.114  1.00  0.00    -0.356 OA
HETATM   27  C   UNL     1      43.691 -20.436   3.019  1.00  0.00     0.210 C 
ENDBRANCH   1  26
TORSDOF 4
ENDMDL
MODEL 6
REMARK VINA RESULT:      -8.2      6.689      9.076
REMARK  4 active torsions:
REMARK  status: ('A' for Active; 'I' for Inactive)
REMARK    1  A    between atoms: O_2  and  C_3 
REMARK    2  A    between atoms: C_8  and  C_9 
REMARK    3  A    between atoms: N_11  and  C_12 
REMARK    4  A    between atoms: C_12  and  C_13 
ROOT
HETATM    1  C   UNL     1      43.262  -8.457  11.081  1.00  0.00     0.069 A 
HETATM    2  C   UNL     1      42.462  -8.578   9.944  1.00  0.00     0.056 A 
HETATM    3  C   UNL     1      42.738  -9.573   9.003  1.00  0.00     0.063 A 
HETATM    4  C   UNL     1      43.810 -10.454   9.166  1.00  0.00     0.074 A 
HETATM    5  N   UNL     1      44.102 -11.472   8.242  1.00  0.00    -0.234 NA
HETATM    6  C   UNL     1      43.337 -11.592   7.206  1.00  0.00     0.113 A 
HETATM    7  N   UNL     1      42.262 -10.771   6.974  1.00  0.00    -0.310 N 
HETATM    8  C   UNL     1      41.904  -9.739   7.805  1.00  0.00     0.259 A 
HETATM    9  O   UNL     1      40.951  -9.010   7.558  1.00  0.00    -0.267 OA
HETATM   10  C   UNL     1      44.611 -10.317  10.299  1.00  0.00     0.035 A 
HETATM   11  C   UNL     1      44.341  -9.326  11.254  1.00  0.00     0.039 A 
HETATM   12  H   UNL     1      41.685 -10.878   6.151  1.00  0.00     0.170 HD
ENDROOT
BRANCH   6  13
HETATM   13  C   UNL     1      43.542 -12.677   6.176  1.00  0.00     0.082 C 
HETATM   14  C   UNL     1      42.356 -13.616   5.999  1.00  0.00     0.139 C 
HETATM   15  N   UNL     1      42.438 -14.004   4.614  1.00  0.00    -0.347 N 
HETATM   16  C   UNL     1      43.198 -13.135   3.859  1.00  0.00     0.220 C 
HETATM   17  O   UNL     1      43.394 -13.183   2.656  1.00  0.00    -0.273 OA
HETATM   18  C   UNL     1      43.746 -12.078   4.781  1.00  0.00     0.117 C 
BRANCH  15  19
HETATM   19  C   UNL     1      41.731 -15.150   4.075  1.00  0.00     0.164 C 
BRANCH  19  20
HETATM   20  C   UNL     1      42.639 -16.347   3.936  1.00  0.00    -0.040 A 
HETATM   21  C   UNL     1      42.655 -17.106   2.758  1.00  0.00     0.009 A 
HETATM   22  C   UNL     1      43.495 -18.216   2.644  1.00  0.00     0.001 A 
HETATM   23  C   UNL     1      44.324 -18.579   3.705  1.00  0.00     0.000 A 
HETATM   24  C   UNL     1      44.315 -17.832   4.882  1.00  0.00     0.001 A 
HETATM   25  C   UNL     1      43.478 -16.721   4.997  1.00  0.00     0.009 A 
ENDBRANCH  19  20
ENDBRANCH  15  19
ENDBRANCH   6  13
BRANCH   1  26
HETATM   26  O   UNL     1      42.891  -7.457  11.936  1.00  0.00    -0.356 OA
HETATM   27  C   UNL     1      43.167  -7.654  13.317  1.00  0.00     0.210 C 
ENDBRANCH   1  26
TORSDOF 4
ENDMDL
MODEL 7
REMARK VINA RESULT:      -8.0      1.651      2.161
REMARK  4 active torsions:
REMARK  status: ('A' for Active; 'I' for Inactive)
REMARK    1  A    between atoms: O_2  and  C_3 
REMARK    2  A    between atoms: C_8  and  C_9 
REMARK    3  A    between atoms: N_11  and  C_12 
REMARK    4  A    between atoms: C_12  and  C_13 
ROOT
HETATM    1  C   UNL     1      39.572  -9.481  -2.042  1.00  0.00     0.069 A 
HETATM    2  C   UNL     1      38.844 -10.077  -1.011  1.00  0.00     0.056 A 
HETATM    3  C   UNL     1      39.301 -11.265  -0.435  1.00  0.00     0.063 A 
HETATM    4  C   UNL     1      40.475 -11.882  -0.870  1.00  0.00     0.074 A 
HETATM    5  N   UNL     1      40.966 -13.069  -0.299  1.00  0.00    -0.234 NA
HETATM    6  C   UNL     1      40.298 -13.598   0.674  1.00  0.00     0.113 A 
HETATM    7  N   UNL     1      39.138 -13.052   1.165  1.00  0.00    -0.310 N 
HETATM    8  C   UNL     1      38.568 -11.908   0.665  1.00  0.00     0.259 A 
HETATM    9  O   UNL     1      37.520 -11.459   1.111  1.00  0.00    -0.267 OA
HETATM   10  C   UNL     1      41.190 -11.285  -1.909  1.00  0.00     0.035 A 
HETATM   11  C   UNL     1      40.744 -10.091  -2.493  1.00  0.00     0.039 A 
HETATM   12  H   UNL     1      38.627 -13.490   1.919  1.00  0.00     0.170 HD
ENDROOT
BRANCH   6  13
HETATM   13  C   UNL     1      40.760 -14.849   1.382  1.00  0.00     0.082 C 
HETATM   14  C   UNL     1      42.205 -14.811   1.859  1.00  0.00     0.139 C 
HETATM   15  N   UNL     1      42.192 -15.640   3.038  1.00  0.00    -0.347 N 
HETATM   16  C   UNL     1      40.927 -15.801   3.564  1.00  0.00     0.220 C 
HETATM   17  O   UNL     1      40.624 -16.402   4.582  1.00  0.00    -0.273 OA
HETATM   18  C   UNL     1      39.956 -15.082   2.665  1.00  0.00     0.117 C 
BRANCH  15  19
HETATM   19  C   UNL     1      43.399 -16.178   3.635  1.00  0.00     0.164 C 
BRANCH  19  20
HETATM   20  C   UNL     1      43.499 -17.671   3.436  1.00  0.00    -0.040 A 
HETATM   21  C   UNL     1      43.097 -18.265   2.232  1.00  0.00     0.009 A 
HETATM   22  C   UNL     1      43.188 -19.648   2.062  1.00  0.00     0.001 A 
HETATM   23  C   UNL     1      43.677 -20.450   3.092  1.00  0.00     0.000 A 
HETATM   24  C   UNL     1      44.078 -19.869   4.295  1.00  0.00     0.001 A 
HETATM   25  C   UNL     1      43.991 -18.488   4.466  1.00  0.00     0.009 A 
ENDBRANCH  19  20
ENDBRANCH  15  19
ENDBRANCH   6  13
BRANCH   1  26
HETATM   26  O   UNL     1      39.035  -8.319  -2.522  1.00  0.00    -0.356 OA
HETATM   27  C   UNL     1      38.443  -7.441  -1.572  1.00  0.00     0.210 C 
ENDBRANCH   1  26
TORSDOF 4
ENDMDL
MODEL 8
REMARK VINA RESULT:      -7.9      6.459      8.361
REMARK  4 active torsions:
REMARK  status: ('A' for Active; 'I' for Inactive)
REMARK    1  A    between atoms: O_2  and  C_3 
REMARK    2  A    between atoms: C_8  and  C_9 
REMARK    3  A    between atoms: N_11  and  C_12 
REMARK    4  A    between atoms: C_12  and  C_13 
ROOT
HETATM    1  C   UNL     1      42.851  -7.181   9.120  1.00  0.00     0.069 A 
HETATM    2  C   UNL     1      43.639  -8.307   9.361  1.00  0.00     0.056 A 
HETATM    3  C   UNL     1      43.590  -9.390   8.481  1.00  0.00     0.063 A 
HETATM    4  C   UNL     1      42.759  -9.382   7.358  1.00  0.00     0.074 A 
HETATM    5  N   UNL     1      42.700 -10.451   6.449  1.00  0.00    -0.234 NA
HETATM    6  C   UNL     1      43.455 -11.478   6.667  1.00  0.00     0.113 A 
HETATM    7  N   UNL     1      44.304 -11.565   7.743  1.00  0.00    -0.310 N 
HETATM    8  C   UNL     1      44.421 -10.583   8.696  1.00  0.00     0.259 A 
HETATM    9  O   UNL     1      45.171 -10.700   9.656  1.00  0.00    -0.267 OA
HETATM   10  C   UNL     1      41.966  -8.256   7.132  1.00  0.00     0.035 A 
HETATM   11  C   UNL     1      42.010  -7.160   8.006  1.00  0.00     0.039 A 
HETATM   12  H   UNL     1      44.876 -12.383   7.899  1.00  0.00     0.170 HD
ENDROOT
BRANCH   6  13
HETATM   13  C   UNL     1      43.496 -12.662   5.730  1.00  0.00     0.082 C 
HETATM   14  C   UNL     1      42.353 -13.651   5.908  1.00  0.00     0.139 C 
HETATM   15  N   UNL     1      42.162 -14.185   4.583  1.00  0.00    -0.347 N 
HETATM   16  C   UNL     1      42.697 -13.380   3.600  1.00  0.00     0.220 C 
HETATM   17  O   UNL     1      42.638 -13.552   2.393  1.00  0.00    -0.273 OA
HETATM   18  C   UNL     1      43.369 -12.212   4.272  1.00  0.00     0.117 C 
BRANCH  15  19
HETATM   19  C   UNL     1      41.419 -15.404   4.326  1.00  0.00     0.164 C 
BRANCH  19  20
HETATM   20  C   UNL     1      42.335 -16.541   3.941  1.00  0.00    -0.040 A 
HETATM   21  C   UNL     1      42.243 -17.144   2.679  1.00  0.00     0.009 A 
HETATM   22  C   UNL     1      43.092 -18.199   2.338  1.00  0.00     0.001 A 
HETATM   23  C   UNL     1      44.038 -18.662   3.251  1.00  0.00     0.000 A 
HETATM   24  C   UNL     1      44.138 -18.069   4.509  1.00  0.00     0.001 A 
HETATM   25  C   UNL     1      43.293 -17.014   4.852  1.00  0.00     0.009 A 
ENDBRANCH  19  20
ENDBRANCH  15  19
ENDBRANCH   6  13
BRANCH   1  26
HETATM   26  O   UNL     1      42.989  -6.180  10.041  1.00  0.00    -0.356 OA
HETATM   27  C   UNL     1      42.410  -6.397  11.322  1.00  0.00     0.210 C 
ENDBRANCH   1  26
TORSDOF 4
ENDMDL
MODEL 9
REMARK VINA RESULT:      -7.7      7.009      9.910
REMARK  4 active torsions:
REMARK  status: ('A' for Active; 'I' for Inactive)
REMARK    1  A    between atoms: O_2  and  C_3 
REMARK    2  A    between atoms: C_8  and  C_9 
REMARK    3  A    between atoms: N_11  and  C_12 
REMARK    4  A    between atoms: C_12  and  C_13 
ROOT
HETATM    1  C   UNL     1      43.228 -16.998   4.533  1.00  0.00     0.069 A 
HETATM    2  C   UNL     1      42.760 -15.755   4.107  1.00  0.00     0.056 A 
HETATM    3  C   UNL     1      43.038 -14.612   4.860  1.00  0.00     0.063 A 
HETATM    4  C   UNL     1      43.773 -14.680   6.046  1.00  0.00     0.074 A 
HETATM    5  N   UNL     1      44.080 -13.546   6.815  1.00  0.00    -0.234 NA
HETATM    6  C   UNL     1      43.664 -12.395   6.396  1.00  0.00     0.113 A 
HETATM    7  N   UNL     1      42.940 -12.240   5.240  1.00  0.00    -0.310 N 
HETATM    8  C   UNL     1      42.576 -13.285   4.429  1.00  0.00     0.259 A 
HETATM    9  O   UNL     1      41.910 -13.116   3.415  1.00  0.00    -0.267 OA
HETATM   10  C   UNL     1      44.227 -15.930   6.470  1.00  0.00     0.035 A 
HETATM   11  C   UNL     1      43.958 -17.083   5.721  1.00  0.00     0.039 A 
HETATM   12  H   UNL     1      42.617 -11.331   4.938  1.00  0.00     0.170 HD
ENDROOT
BRANCH   6  13
HETATM   13  C   UNL     1      43.973 -11.111   7.128  1.00  0.00     0.082 C 
HETATM   14  C   UNL     1      44.093 -11.255   8.639  1.00  0.00     0.139 C 
HETATM   15  N   UNL     1      45.048 -10.237   8.999  1.00  0.00    -0.347 N 
HETATM   16  C   UNL     1      45.813  -9.820   7.930  1.00  0.00     0.220 C 
HETATM   17  O   UNL     1      46.730  -9.015   7.950  1.00  0.00    -0.273 OA
HETATM   18  C   UNL     1      45.335 -10.552   6.704  1.00  0.00     0.117 C 
BRANCH  15  19
HETATM   19  C   UNL     1      45.221  -9.767  10.360  1.00  0.00     0.164 C 
BRANCH  19  20
HETATM   20  C   UNL     1      43.924  -9.256  10.939  1.00  0.00    -0.040 A 
HETATM   21  C   UNL     1      43.268  -9.952  11.963  1.00  0.00     0.009 A 
HETATM   22  C   UNL     1      42.065  -9.471  12.485  1.00  0.00     0.001 A 
HETATM   23  C   UNL     1      41.506  -8.294  11.989  1.00  0.00     0.000 A 
HETATM   24  C   UNL     1      42.150  -7.595  10.970  1.00  0.00     0.001 A 
HETATM   25  C   UNL     1      43.353  -8.071  10.448  1.00  0.00     0.009 A 
ENDBRANCH  19  20
ENDBRANCH  15  19
ENDBRANCH   6  13
BRANCH   1  26
HETATM   26  O   UNL     1      42.904 -18.042   3.712  1.00  0.00    -0.356 OA
HETATM   27  C   UNL     1      43.325 -17.952   2.357  1.00  0.00     0.210 C 
ENDBRANCH   1  26
TORSDOF 4
ENDMDL
MODEL 10
REMARK VINA RESULT:      -7.6     10.009     12.601
REMARK  4 active torsions:
REMARK  status: ('A' for Active; 'I' for Inactive)
REMARK    1  A    between atoms: O_2  and  C_3 
REMARK    2  A    between atoms: C_8  and  C_9 
REMARK    3  A    between atoms: N_11  and  C_12 
REMARK    4  A    between atoms: C_12  and  C_13 
ROOT
HETATM    1  C   UNL     1      40.771  -7.306  14.575  1.00  0.00     0.069 A 
HETATM    2  C   UNL     1      40.497  -8.212  13.551  1.00  0.00     0.056 A 
HETATM    3  C   UNL     1      41.526  -8.645  12.712  1.00  0.00     0.063 A 
HETATM    4  C   UNL     1      42.836  -8.186  12.868  1.00  0.00     0.074 A 
HETATM    5  N   UNL     1      43.893  -8.615  12.048  1.00  0.00    -0.234 NA
HETATM    6  C   UNL     1      43.633  -9.476  11.119  1.00  0.00     0.113 A 
HETATM    7  N   UNL     1      42.375  -9.981  10.902  1.00  0.00    -0.310 N 
HETATM    8  C   UNL     1      41.274  -9.613  11.636  1.00  0.00     0.259 A 
HETATM    9  O   UNL     1      40.161 -10.066  11.403  1.00  0.00    -0.267 OA
HETATM   10  C   UNL     1      43.098  -7.271  13.888  1.00  0.00     0.035 A 
HETATM   11  C   UNL     1      42.074  -6.832  14.739  1.00  0.00     0.039 A 
HETATM   12  H   UNL     1      42.194 -10.645  10.162  1.00  0.00     0.170 HD
ENDROOT
BRANCH   6  13
HETATM   13  C   UNL     1      44.705 -10.031  10.210  1.00  0.00     0.082 C 
HETATM   14  C   UNL     1      44.180 -10.804   9.009  1.00  0.00     0.139 C 
HETATM   15  N   UNL     1      45.183 -10.577   7.999  1.00  0.00    -0.347 N 
HETATM   16  C   UNL     1      45.968  -9.475   8.264  1.00  0.00     0.220 C 
HETATM   17  O   UNL     1      46.853  -9.015   7.561  1.00  0.00    -0.273 OA
HETATM   18  C   UNL     1      45.533  -8.903   9.587  1.00  0.00     0.117 C 
BRANCH  15  19
HETATM   19  C   UNL     1      45.291 -11.389   6.802  1.00  0.00     0.164 C 
BRANCH  19  20
HETATM   20  C   UNL     1      43.973 -12.036   6.450  1.00  0.00    -0.040 A 
HETATM   21  C   UNL     1      42.935 -11.289   5.877  1.00  0.00     0.009 A 
HETATM   22  C   UNL     1      41.718 -11.898   5.562  1.00  0.00     0.001 A 
HETATM   23  C   UNL     1      41.526 -13.254   5.818  1.00  0.00     0.000 A 
HETATM   24  C   UNL     1      42.552 -14.006   6.389  1.00  0.00     0.001 A 
HETATM   25  C   UNL     1      43.769 -13.401   6.702  1.00  0.00     0.009 A 
ENDBRANCH  19  20
ENDBRANCH  15  19
ENDBRANCH   6  13
BRANCH   1  26
HETATM   26  O   UNL     1      39.690  -6.962  15.338  1.00  0.00    -0.356 OA
HETATM   27  C   UNL     1      39.930  -6.110  16.452  1.00  0.00     0.210 C 
ENDBRANCH   1  26
TORSDOF 4
ENDMDL
