MODEL 1
REMARK VINA RESULT:      -8.4      0.000      0.000
REMARK  7 active torsions:
REMARK  status: ('A' for Active; 'I' for Inactive)
REMARK    1  A    between atoms: C_2  and  C_3 
REMARK    2  A    between atoms: C_6  and  C_7 
REMARK    3  A    between atoms: C_7  and  N_8 
REMARK    4  A    between atoms: C_7  and  C_25 
REMARK    5  A    between atoms: N_8  and  C_11 
REMARK    6  A    between atoms: C_11  and  C_12 
REMARK       I    between atoms: C_12  and  N_13 
REMARK    7  A    between atoms: N_13  and  C_14 
ROOT
HETATM    1  N   UNL     1      41.803 -11.871   3.923  1.00  0.00    -0.054 N 
HETATM    2  H   UNL     1      42.476 -11.092   3.831  1.00  0.00     0.278 HD
HETATM    3  H   UNL     1      41.756 -12.241   2.969  1.00  0.00     0.278 HD
ENDROOT
BRANCH   1   4
HETATM    4  C   UNL     1      42.382 -12.883   4.850  1.00  0.00     0.259 C 
BRANCH   4   5
HETATM    5  C   UNL     1      42.662 -14.230   4.201  1.00  0.00    -0.023 A 
HETATM    6  C   UNL     1      42.394 -15.454   4.839  1.00  0.00     0.010 A 
HETATM    7  C   UNL     1      42.615 -16.666   4.179  1.00  0.00     0.007 A 
HETATM    8  C   UNL     1      43.096 -16.685   2.865  1.00  0.00    -0.059 A 
HETATM    9  C   UNL     1      43.356 -15.473   2.221  1.00  0.00     0.007 A 
HETATM   10  C   UNL     1      43.142 -14.259   2.880  1.00  0.00     0.010 A 
BRANCH   8  11
HETATM   11  C   UNL     1      43.271 -17.994   2.134  1.00  0.00     0.034 C 
HETATM   12  C   UNL     1      43.966 -19.033   3.001  1.00  0.00     0.010 C 
ENDBRANCH   8  11
ENDBRANCH   4   5
BRANCH   4  13
HETATM   13  C   UNL     1      43.596 -12.291   5.529  1.00  0.00     0.017 A 
HETATM   14  S   UNL     1      43.755 -12.459   7.235  1.00  0.00    -0.104 SA
HETATM   15  C   UNL     1      45.228 -11.599   7.254  1.00  0.00     0.050 A 
HETATM   16  C   UNL     1      45.595 -11.177   5.997  1.00  0.00     0.008 A 
HETATM   17  C   UNL     1      44.654 -11.572   5.002  1.00  0.00     0.017 A 
ENDBRANCH   4  13
ENDBRANCH   1   4
BRANCH   1  18
HETATM   18  C   UNL     1      40.482 -11.248   4.310  1.00  0.00     0.336 C 
BRANCH  18  19
HETATM   19  C   UNL     1      39.491 -12.361   4.619  1.00  0.00     0.248 C 
HETATM   20  N   UNL     1      39.058 -13.260   3.701  1.00  0.00    -0.326 N 
HETATM   21  H   UNL     1      38.340 -13.864   4.097  1.00  0.00     0.169 HD
HETATM   22  O   UNL     1      39.039 -12.413   5.772  1.00  0.00    -0.271 OA
BRANCH  20  23
HETATM   23  C   UNL     1      39.384 -13.520   2.356  1.00  0.00     0.037 A 
HETATM   24  C   UNL     1      39.418 -12.567   1.332  1.00  0.00     0.061 A 
HETATM   25  C   UNL     1      39.770 -13.011   0.073  1.00  0.00     0.065 A 
HETATM   26  C   UNL     1      40.088 -14.338  -0.198  1.00  0.00     0.063 A 
HETATM   27  N   UNL     1      39.888 -12.295  -1.114  1.00  0.00    -0.306 N 
HETATM   28  N   UNL     1      40.397 -14.442  -1.548  1.00  0.00    -0.307 N 
HETATM   29  C   UNL     1      40.076 -15.298   0.778  1.00  0.00     0.034 A 
HETATM   30  C   UNL     1      40.280 -13.175  -2.135  1.00  0.00     0.325 A 
HETATM   31  H   UNL     1      40.673 -15.268  -2.056  1.00  0.00     0.170 HD
HETATM   32  O   UNL     1      40.476 -12.886  -3.299  1.00  0.00    -0.247 OA
HETATM   33  C   UNL     1      39.724 -14.873   2.066  1.00  0.00     0.032 A 
HETATM   34  H   UNL     1      39.739 -11.313  -1.276  1.00  0.00     0.170 HD
ENDBRANCH  20  23
ENDBRANCH  18  19
ENDBRANCH   1  18
TORSDOF 7
ENDMDL
MODEL 2
REMARK VINA RESULT:      -8.3      2.993      6.114
REMARK  7 active torsions:
REMARK  status: ('A' for Active; 'I' for Inactive)
REMARK    1  A    between atoms: C_2  and  C_3 
REMARK    2  A    between atoms: C_6  and  C_7 
REMARK    3  A    between atoms: C_7  and  N_8 
REMARK    4  A    between atoms: C_7  and  C_25 
REMARK    5  A    between atoms: N_8  and  C_11 
REMARK    6  A    between atoms: C_11  and  C_12 
REMARK       I    between atoms: C_12  and  N_13 
REMARK    7  A    between atoms: N_13  and  C_14 
ROOT
HETATM    1  N   UNL     1      39.652 -12.672   2.270  1.00  0.00    -0.054 N 
HETATM    2  H   UNL     1      38.744 -12.527   1.799  1.00  0.00     0.278 HD
HETATM    3  H   UNL     1      39.416 -13.339   3.012  1.00  0.00     0.278 HD
ENDROOT
BRANCH   1   4
HETATM    4  C   UNL     1      40.592 -13.289   1.292  1.00  0.00     0.259 C 
BRANCH   4   5
HETATM    5  C   UNL     1      41.338 -14.501   1.829  1.00  0.00    -0.023 A 
HETATM    6  C   UNL     1      40.698 -15.544   2.522  1.00  0.00     0.010 A 
HETATM    7  C   UNL     1      41.417 -16.665   2.946  1.00  0.00     0.007 A 
HETATM    8  C   UNL     1      42.785 -16.778   2.678  1.00  0.00    -0.059 A 
HETATM    9  C   UNL     1      43.426 -15.751   1.981  1.00  0.00     0.007 A 
HETATM   10  C   UNL     1      42.712 -14.625   1.561  1.00  0.00     0.010 A 
BRANCH   8  11
HETATM   11  C   UNL     1      43.543 -18.020   3.079  1.00  0.00     0.034 C 
HETATM   12  C   UNL     1      43.183 -19.207   2.199  1.00  0.00     0.010 C 
ENDBRANCH   8  11
ENDBRANCH   4   5
BRANCH   4  13
HETATM   13  C   UNL     1      39.849 -13.575   0.008  1.00  0.00     0.017 A 
HETATM   14  S   UNL     1      38.857 -12.340  -0.667  1.00  0.00    -0.104 SA
HETATM   15  C   UNL     1      38.385 -13.332  -1.971  1.00  0.00     0.050 A 
HETATM   16  C   UNL     1      38.953 -14.583  -1.900  1.00  0.00     0.008 A 
HETATM   17  C   UNL     1      39.794 -14.726  -0.758  1.00  0.00     0.017 A 
ENDBRANCH   4  13
ENDBRANCH   1   4
BRANCH   1  18
HETATM   18  C   UNL     1      40.042 -11.340   2.864  1.00  0.00     0.336 C 
BRANCH  18  19
HETATM   19  C   UNL     1      39.400 -11.214   4.239  1.00  0.00     0.248 C 
HETATM   20  N   UNL     1      39.735 -11.989   5.299  1.00  0.00    -0.326 N 
HETATM   21  H   UNL     1      39.130 -11.793   6.095  1.00  0.00     0.169 HD
HETATM   22  O   UNL     1      38.499 -10.373   4.368  1.00  0.00    -0.271 OA
BRANCH  20  23
HETATM   23  C   UNL     1      40.713 -12.978   5.520  1.00  0.00     0.037 A 
HETATM   24  C   UNL     1      40.483 -14.229   6.102  1.00  0.00     0.061 A 
HETATM   25  C   UNL     1      41.568 -15.072   6.229  1.00  0.00     0.065 A 
HETATM   26  C   UNL     1      42.846 -14.726   5.800  1.00  0.00     0.063 A 
HETATM   27  N   UNL     1      41.631 -16.357   6.758  1.00  0.00    -0.306 N 
HETATM   28  N   UNL     1      43.696 -15.792   6.068  1.00  0.00    -0.307 N 
HETATM   29  C   UNL     1      43.110 -13.516   5.217  1.00  0.00     0.034 A 
HETATM   30  C   UNL     1      42.953 -16.820   6.664  1.00  0.00     0.325 A 
HETATM   31  H   UNL     1      44.683 -15.858   5.874  1.00  0.00     0.170 HD
HETATM   32  O   UNL     1      43.365 -17.903   7.032  1.00  0.00    -0.247 OA
HETATM   33  C   UNL     1      42.024 -12.643   5.076  1.00  0.00     0.032 A 
HETATM   34  H   UNL     1      40.890 -16.915   7.150  1.00  0.00     0.170 HD
ENDBRANCH  20  23
ENDBRANCH  18  19
ENDBRANCH   1  18
TORSDOF 7
ENDMDL
MODEL 3
REMARK VINA RESULT:      -8.3      2.768      6.440
REMARK  7 active torsions:
REMARK  status: ('A' for Active; 'I' for Inactive)
REMARK    1  A    between atoms: C_2  and  C_3 
REMARK    2  A    between atoms: C_6  and  C_7 
REMARK    3  A    between atoms: C_7  and  N_8 
REMARK    4  A    between atoms: C_7  and  C_25 
REMARK    5  A    between atoms: N_8  and  C_11 
REMARK    6  A    between atoms: C_11  and  C_12 
REMARK       I    between atoms: C_12  and  N_13 
REMARK    7  A    between atoms: N_13  and  C_14 
ROOT
HETATM    1  N   UNL     1      39.072 -13.341   1.766  1.00  0.00    -0.054 N 
HETATM    2  H   UNL     1      38.359 -13.079   1.065  1.00  0.00     0.278 HD
HETATM    3  H   UNL     1      38.723 -14.239   2.116  1.00  0.00     0.278 HD
ENDROOT
BRANCH   1   4
HETATM    4  C   UNL     1      40.374 -13.522   1.065  1.00  0.00     0.259 C 
BRANCH   4   5
HETATM    5  C   UNL     1      41.197 -14.694   1.579  1.00  0.00    -0.023 A 
HETATM    6  C   UNL     1      40.615 -15.874   2.074  1.00  0.00     0.010 A 
HETATM    7  C   UNL     1      41.414 -16.947   2.481  1.00  0.00     0.007 A 
HETATM    8  C   UNL     1      42.808 -16.871   2.393  1.00  0.00    -0.059 A 
HETATM    9  C   UNL     1      43.393 -15.705   1.893  1.00  0.00     0.007 A 
HETATM   10  C   UNL     1      42.598 -14.629   1.491  1.00  0.00     0.010 A 
BRANCH   8  11
HETATM   11  C   UNL     1      43.664 -18.055   2.772  1.00  0.00     0.034 C 
HETATM   12  C   UNL     1      43.139 -19.346   2.160  1.00  0.00     0.010 C 
ENDBRANCH   8  11
ENDBRANCH   4   5
BRANCH   4  13
HETATM   13  C   UNL     1      40.127 -13.583  -0.425  1.00  0.00     0.017 A 
HETATM   14  S   UNL     1      40.635 -12.261  -1.403  1.00  0.00    -0.104 SA
HETATM   15  C   UNL     1      40.046 -12.995  -2.826  1.00  0.00     0.050 A 
HETATM   16  C   UNL     1      39.462 -14.214  -2.574  1.00  0.00     0.008 A 
HETATM   17  C   UNL     1      39.504 -14.553  -1.190  1.00  0.00     0.017 A 
ENDBRANCH   4  13
ENDBRANCH   1   4
BRANCH   1  18
HETATM   18  C   UNL     1      39.006 -12.293   2.852  1.00  0.00     0.336 C 
BRANCH  18  19
HETATM   19  C   UNL     1      39.518 -10.976   2.288  1.00  0.00     0.248 C 
HETATM   20  N   UNL     1      40.634 -10.349   2.734  1.00  0.00    -0.326 N 
HETATM   21  H   UNL     1      40.750  -9.446   2.277  1.00  0.00     0.169 HD
HETATM   22  O   UNL     1      38.846 -10.442   1.394  1.00  0.00    -0.271 OA
BRANCH  20  23
HETATM   23  C   UNL     1      41.633 -10.677   3.671  1.00  0.00     0.037 A 
HETATM   24  C   UNL     1      41.533 -10.507   5.056  1.00  0.00     0.061 A 
HETATM   25  C   UNL     1      42.617 -10.896   5.817  1.00  0.00     0.065 A 
HETATM   26  C   UNL     1      43.770 -11.443   5.263  1.00  0.00     0.063 A 
HETATM   27  N   UNL     1      42.790 -10.847   7.196  1.00  0.00    -0.306 N 
HETATM   28  N   UNL     1      44.654 -11.726   6.296  1.00  0.00    -0.307 N 
HETATM   29  C   UNL     1      43.903 -11.635   3.914  1.00  0.00     0.034 A 
HETATM   30  C   UNL     1      44.057 -11.362   7.511  1.00  0.00     0.325 A 
HETATM   31  H   UNL     1      45.574 -12.133   6.228  1.00  0.00     0.170 HD
HETATM   32  O   UNL     1      44.536 -11.468   8.623  1.00  0.00    -0.247 OA
HETATM   33  C   UNL     1      42.816 -11.249   3.120  1.00  0.00     0.032 A 
HETATM   34  H   UNL     1      42.152 -10.516   7.901  1.00  0.00     0.170 HD
ENDBRANCH  20  23
ENDBRANCH  18  19
ENDBRANCH   1  18
TORSDOF 7
ENDMDL
MODEL 4
REMARK VINA RESULT:      -7.7      6.917     10.720
REMARK  7 active torsions:
REMARK  status: ('A' for Active; 'I' for Inactive)
REMARK    1  A    between atoms: C_2  and  C_3 
REMARK    2  A    between atoms: C_6  and  C_7 
REMARK    3  A    between atoms: C_7  and  N_8 
REMARK    4  A    between atoms: C_7  and  C_25 
REMARK    5  A    between atoms: N_8  and  C_11 
REMARK    6  A    between atoms: C_11  and  C_12 
REMARK       I    between atoms: C_12  and  N_13 
REMARK    7  A    between atoms: N_13  and  C_14 
ROOT
HETATM    1  N   UNL     1      41.976 -10.046   8.303  1.00  0.00    -0.054 N 
HETATM    2  H   UNL     1      42.486 -10.810   7.829  1.00  0.00     0.278 HD
HETATM    3  H   UNL     1      41.625 -10.503   9.151  1.00  0.00     0.278 HD
ENDROOT
BRANCH   1   4
HETATM    4  C   UNL     1      42.952  -8.975   8.651  1.00  0.00     0.259 C 
BRANCH   4   5
HETATM    5  C   UNL     1      42.890  -8.528  10.103  1.00  0.00    -0.023 A 
HETATM    6  C   UNL     1      43.254  -9.364  11.174  1.00  0.00     0.010 A 
HETATM    7  C   UNL     1      43.235  -8.888  12.488  1.00  0.00     0.007 A 
HETATM    8  C   UNL     1      42.867  -7.567  12.763  1.00  0.00    -0.059 A 
HETATM    9  C   UNL     1      42.514  -6.727  11.704  1.00  0.00     0.007 A 
HETATM   10  C   UNL     1      42.525  -7.201  10.390  1.00  0.00     0.010 A 
BRANCH   8  11
HETATM   11  C   UNL     1      42.911  -7.039  14.177  1.00  0.00     0.034 C 
HETATM   12  C   UNL     1      42.115  -7.919  15.130  1.00  0.00     0.010 C 
ENDBRANCH   8  11
ENDBRANCH   4   5
BRANCH   4  13
HETATM   13  C   UNL     1      44.335  -9.415   8.227  1.00  0.00     0.017 A 
HETATM   14  S   UNL     1      44.518 -10.942   7.455  1.00  0.00    -0.104 SA
HETATM   15  C   UNL     1      46.207 -10.748   7.312  1.00  0.00     0.050 A 
HETATM   16  C   UNL     1      46.636  -9.556   7.847  1.00  0.00     0.008 A 
HETATM   17  C   UNL     1      45.559  -8.787   8.379  1.00  0.00     0.017 A 
ENDBRANCH   4  13
ENDBRANCH   1   4
BRANCH   1  18
HETATM   18  C   UNL     1      40.829  -9.673   7.394  1.00  0.00     0.336 C 
BRANCH  18  19
HETATM   19  C   UNL     1      39.621 -10.522   7.762  1.00  0.00     0.248 C 
HETATM   20  N   UNL     1      38.941 -10.399   8.928  1.00  0.00    -0.326 N 
HETATM   21  H   UNL     1      38.220 -11.116   9.005  1.00  0.00     0.169 HD
HETATM   22  O   UNL     1      39.273 -11.394   6.952  1.00  0.00    -0.271 OA
BRANCH  20  23
HETATM   23  C   UNL     1      39.023  -9.515  10.021  1.00  0.00     0.037 A 
HETATM   24  C   UNL     1      38.680  -8.159   9.994  1.00  0.00     0.061 A 
HETATM   25  C   UNL     1      38.820  -7.451  11.171  1.00  0.00     0.065 A 
HETATM   26  C   UNL     1      39.274  -8.033  12.351  1.00  0.00     0.063 A 
HETATM   27  N   UNL     1      38.554  -6.112  11.433  1.00  0.00    -0.306 N 
HETATM   28  N   UNL     1      39.292  -7.054  13.336  1.00  0.00    -0.307 N 
HETATM   29  C   UNL     1      39.610  -9.358  12.421  1.00  0.00     0.034 A 
HETATM   30  C   UNL     1      38.843  -5.848  12.781  1.00  0.00     0.325 A 
HETATM   31  H   UNL     1      39.566  -7.155  14.301  1.00  0.00     0.170 HD
HETATM   32  O   UNL     1      38.725  -4.779  13.347  1.00  0.00    -0.247 OA
HETATM   33  C   UNL     1      39.475 -10.098  11.240  1.00  0.00     0.032 A 
HETATM   34  H   UNL     1      38.206  -5.403  10.807  1.00  0.00     0.170 HD
ENDBRANCH  20  23
ENDBRANCH  18  19
ENDBRANCH   1  18
TORSDOF 7
ENDMDL
MODEL 5
REMARK VINA RESULT:      -7.6      1.888      2.537
REMARK  7 active torsions:
REMARK  status: ('A' for Active; 'I' for Inactive)
REMARK    1  A    between atoms: C_2  and  C_3 
REMARK    2  A    between atoms: C_6  and  C_7 
REMARK    3  A    between atoms: C_7  and  N_8 
REMARK    4  A    between atoms: C_7  and  C_25 
REMARK    5  A    between atoms: N_8  and  C_11 
REMARK    6  A    between atoms: C_11  and  C_12 
REMARK       I    between atoms: C_12  and  N_13 
REMARK    7  A    between atoms: N_13  and  C_14 
ROOT
HETATM    1  N   UNL     1      41.190 -13.602   3.112  1.00  0.00    -0.054 N 
HETATM    2  H   UNL     1      41.751 -12.767   2.871  1.00  0.00     0.278 HD
HETATM    3  H   UNL     1      41.259 -14.171   2.263  1.00  0.00     0.278 HD
ENDROOT
BRANCH   1   4
HETATM    4  C   UNL     1      41.845 -14.291   4.259  1.00  0.00     0.259 C 
BRANCH   4   5
HETATM    5  C   UNL     1      42.500 -15.615   3.896  1.00  0.00    -0.023 A 
HETATM    6  C   UNL     1      43.306 -16.337   4.793  1.00  0.00     0.010 A 
HETATM    7  C   UNL     1      43.840 -17.578   4.432  1.00  0.00     0.007 A 
HETATM    8  C   UNL     1      43.571 -18.131   3.176  1.00  0.00    -0.059 A 
HETATM    9  C   UNL     1      42.763 -17.423   2.282  1.00  0.00     0.007 A 
HETATM   10  C   UNL     1      42.233 -16.180   2.637  1.00  0.00     0.010 A 
BRANCH   8  11
HETATM   11  C   UNL     1      44.095 -19.500   2.815  1.00  0.00     0.034 C 
HETATM   12  C   UNL     1      43.141 -20.240   1.889  1.00  0.00     0.010 C 
ENDBRANCH   8  11
ENDBRANCH   4   5
BRANCH   4  13
HETATM   13  C   UNL     1      42.795 -13.328   4.934  1.00  0.00     0.017 A 
HETATM   14  S   UNL     1      43.499 -12.067   3.998  1.00  0.00    -0.104 SA
HETATM   15  C   UNL     1      44.381 -11.472   5.331  1.00  0.00     0.050 A 
HETATM   16  C   UNL     1      44.161 -12.215   6.468  1.00  0.00     0.008 A 
HETATM   17  C   UNL     1      43.250 -13.287   6.240  1.00  0.00     0.017 A 
ENDBRANCH   4  13
ENDBRANCH   1   4
BRANCH   1  18
HETATM   18  C   UNL     1      39.772 -13.119   3.308  1.00  0.00     0.336 C 
BRANCH  18  19
HETATM   19  C   UNL     1      39.730 -11.619   3.054  1.00  0.00     0.248 C 
HETATM   20  N   UNL     1      39.394 -11.066   1.863  1.00  0.00    -0.326 N 
HETATM   21  H   UNL     1      39.508 -10.054   1.889  1.00  0.00     0.169 HD
HETATM   22  O   UNL     1      40.057 -10.877   3.991  1.00  0.00    -0.271 OA
BRANCH  20  23
HETATM   23  C   UNL     1      38.936 -11.585   0.637  1.00  0.00     0.037 A 
HETATM   24  C   UNL     1      39.475 -12.694  -0.025  1.00  0.00     0.061 A 
HETATM   25  C   UNL     1      38.885 -13.061  -1.218  1.00  0.00     0.065 A 
HETATM   26  C   UNL     1      37.799 -12.383  -1.762  1.00  0.00     0.063 A 
HETATM   27  N   UNL     1      39.205 -14.109  -2.074  1.00  0.00    -0.306 N 
HETATM   28  N   UNL     1      37.452 -13.008  -2.953  1.00  0.00    -0.307 N 
HETATM   29  C   UNL     1      37.237 -11.301  -1.141  1.00  0.00     0.034 A 
HETATM   30  C   UNL     1      38.318 -14.090  -3.163  1.00  0.00     0.325 A 
HETATM   31  H   UNL     1      36.704 -12.763  -3.584  1.00  0.00     0.170 HD
HETATM   32  O   UNL     1      38.311 -14.864  -4.100  1.00  0.00    -0.247 OA
HETATM   33  C   UNL     1      37.816 -10.909   0.073  1.00  0.00     0.032 A 
HETATM   34  H   UNL     1      39.931 -14.801  -1.982  1.00  0.00     0.170 HD
ENDBRANCH  20  23
ENDBRANCH  18  19
ENDBRANCH   1  18
TORSDOF 7
ENDMDL
MODEL 6
REMARK VINA RESULT:      -7.5      4.194      8.364
REMARK  7 active torsions:
REMARK  status: ('A' for Active; 'I' for Inactive)
REMARK    1  A    between atoms: C_2  and  C_3 
REMARK    2  A    between atoms: C_6  and  C_7 
REMARK    3  A    between atoms: C_7  and  N_8 
REMARK    4  A    between atoms: C_7  and  C_25 
REMARK    5  A    between atoms: N_8  and  C_11 
REMARK    6  A    between atoms: C_11  and  C_12 
REMARK       I    between atoms: C_12  and  N_13 
REMARK    7  A    between atoms: N_13  and  C_14 
ROOT
HETATM    1  N   UNL     1      43.763 -12.714   5.805  1.00  0.00    -0.054 N 
HETATM    2  H   UNL     1      43.449 -13.388   6.524  1.00  0.00     0.278 HD
HETATM    3  H   UNL     1      44.733 -13.001   5.638  1.00  0.00     0.278 HD
ENDROOT
BRANCH   1   4
HETATM    4  C   UNL     1      42.938 -12.915   4.582  1.00  0.00     0.259 C 
BRANCH   4   5
HETATM    5  C   UNL     1      43.036 -14.313   3.990  1.00  0.00    -0.023 A 
HETATM    6  C   UNL     1      43.057 -15.475   4.782  1.00  0.00     0.010 A 
HETATM    7  C   UNL     1      43.090 -16.741   4.189  1.00  0.00     0.007 A 
HETATM    8  C   UNL     1      43.091 -16.876   2.797  1.00  0.00    -0.059 A 
HETATM    9  C   UNL     1      43.061 -15.726   2.004  1.00  0.00     0.007 A 
HETATM   10  C   UNL     1      43.034 -14.460   2.592  1.00  0.00     0.010 A 
BRANCH   8  11
HETATM   11  C   UNL     1      43.061 -18.245   2.161  1.00  0.00     0.034 C 
HETATM   12  C   UNL     1      43.860 -19.257   2.970  1.00  0.00     0.010 C 
ENDBRANCH   8  11
ENDBRANCH   4   5
BRANCH   4  13
HETATM   13  C   UNL     1      41.515 -12.497   4.874  1.00  0.00     0.017 A 
HETATM   14  S   UNL     1      40.863 -11.140   4.038  1.00  0.00    -0.104 SA
HETATM   15  C   UNL     1      39.366 -11.273   4.846  1.00  0.00     0.050 A 
HETATM   16  C   UNL     1      39.354 -12.315   5.743  1.00  0.00     0.008 A 
HETATM   17  C   UNL     1      40.593 -13.020   5.764  1.00  0.00     0.017 A 
ENDBRANCH   4  13
ENDBRANCH   1   4
BRANCH   1  18
HETATM   18  C   UNL     1      43.724 -11.351   6.455  1.00  0.00     0.336 C 
BRANCH  18  19
HETATM   19  C   UNL     1      45.100 -11.046   7.030  1.00  0.00     0.248 C 
HETATM   20  N   UNL     1      45.298 -10.380   8.194  1.00  0.00    -0.326 N 
HETATM   21  H   UNL     1      46.291 -10.214   8.351  1.00  0.00     0.169 HD
HETATM   22  O   UNL     1      46.083 -11.405   6.367  1.00  0.00    -0.271 OA
BRANCH  20  23
HETATM   23  C   UNL     1      44.443  -9.884   9.197  1.00  0.00     0.037 A 
HETATM   24  C   UNL     1      43.883 -10.641  10.231  1.00  0.00     0.061 A 
HETATM   25  C   UNL     1      43.072  -9.976  11.129  1.00  0.00     0.065 A 
HETATM   26  C   UNL     1      42.809  -8.613  11.040  1.00  0.00     0.063 A 
HETATM   27  N   UNL     1      42.397 -10.468  12.240  1.00  0.00    -0.306 N 
HETATM   28  N   UNL     1      41.970  -8.266  12.091  1.00  0.00    -0.307 N 
HETATM   29  C   UNL     1      43.346  -7.835  10.050  1.00  0.00     0.034 A 
HETATM   30  C   UNL     1      41.704  -9.412  12.852  1.00  0.00     0.325 A 
HETATM   31  H   UNL     1      41.600  -7.353  12.310  1.00  0.00     0.170 HD
HETATM   32  O   UNL     1      41.010  -9.486  13.848  1.00  0.00    -0.247 OA
HETATM   33  C   UNL     1      44.173  -8.487   9.126  1.00  0.00     0.032 A 
HETATM   34  H   UNL     1      42.374 -11.409  12.600  1.00  0.00     0.170 HD
ENDBRANCH  20  23
ENDBRANCH  18  19
ENDBRANCH   1  18
TORSDOF 7
ENDMDL
MODEL 7
REMARK VINA RESULT:      -7.4      3.477      6.591
REMARK  7 active torsions:
REMARK  status: ('A' for Active; 'I' for Inactive)
REMARK    1  A    between atoms: C_2  and  C_3 
REMARK    2  A    between atoms: C_6  and  C_7 
REMARK    3  A    between atoms: C_7  and  N_8 
REMARK    4  A    between atoms: C_7  and  C_25 
REMARK    5  A    between atoms: N_8  and  C_11 
REMARK    6  A    between atoms: C_11  and  C_12 
REMARK       I    between atoms: C_12  and  N_13 
REMARK    7  A    between atoms: N_13  and  C_14 
ROOT
HETATM    1  N   UNL     1      40.725 -14.549   5.058  1.00  0.00    -0.054 N 
HETATM    2  H   UNL     1      40.669 -14.207   4.084  1.00  0.00     0.278 HD
HETATM    3  H   UNL     1      40.210 -15.434   5.014  1.00  0.00     0.278 HD
ENDROOT
BRANCH   1   4
HETATM    4  C   UNL     1      42.157 -14.793   5.387  1.00  0.00     0.259 C 
BRANCH   4   5
HETATM    5  C   UNL     1      42.758 -16.001   4.685  1.00  0.00    -0.023 A 
HETATM    6  C   UNL     1      43.780 -16.782   5.254  1.00  0.00     0.010 A 
HETATM    7  C   UNL     1      44.261 -17.917   4.595  1.00  0.00     0.007 A 
HETATM    8  C   UNL     1      43.725 -18.306   3.362  1.00  0.00    -0.059 A 
HETATM    9  C   UNL     1      42.703 -17.540   2.796  1.00  0.00     0.007 A 
HETATM   10  C   UNL     1      42.225 -16.401   3.448  1.00  0.00     0.010 A 
BRANCH   8  11
HETATM   11  C   UNL     1      44.202 -19.568   2.685  1.00  0.00     0.034 C 
HETATM   12  C   UNL     1      43.094 -20.220   1.871  1.00  0.00     0.010 C 
ENDBRANCH   8  11
ENDBRANCH   4   5
BRANCH   4  13
HETATM   13  C   UNL     1      42.940 -13.522   5.149  1.00  0.00     0.017 A 
HETATM   14  S   UNL     1      43.782 -12.809   6.470  1.00  0.00    -0.104 SA
HETATM   15  C   UNL     1      44.352 -11.523   5.505  1.00  0.00     0.050 A 
HETATM   16  C   UNL     1      43.908 -11.616   4.207  1.00  0.00     0.008 A 
HETATM   17  C   UNL     1      43.091 -12.765   4.000  1.00  0.00     0.017 A 
ENDBRANCH   4  13
ENDBRANCH   1   4
BRANCH   1  18
HETATM   18  C   UNL     1      39.977 -13.547   5.904  1.00  0.00     0.336 C 
BRANCH  18  19
HETATM   19  C   UNL     1      39.594 -12.362   5.029  1.00  0.00     0.248 C 
HETATM   20  N   UNL     1      39.527 -11.084   5.479  1.00  0.00    -0.326 N 
HETATM   21  H   UNL     1      39.175 -10.463   4.753  1.00  0.00     0.169 HD
HETATM   22  O   UNL     1      39.296 -12.600   3.851  1.00  0.00    -0.271 OA
BRANCH  20  23
HETATM   23  C   UNL     1      39.833 -10.461   6.704  1.00  0.00     0.037 A 
HETATM   24  C   UNL     1      38.983 -10.395   7.814  1.00  0.00     0.061 A 
HETATM   25  C   UNL     1      39.462  -9.746   8.934  1.00  0.00     0.065 A 
HETATM   26  C   UNL     1      40.730  -9.177   8.992  1.00  0.00     0.063 A 
HETATM   27  N   UNL     1      38.847  -9.537  10.164  1.00  0.00    -0.306 N 
HETATM   28  N   UNL     1      40.895  -8.614  10.251  1.00  0.00    -0.307 N 
HETATM   29  C   UNL     1      41.595  -9.228   7.931  1.00  0.00     0.034 A 
HETATM   30  C   UNL     1      39.730  -8.831  10.997  1.00  0.00     0.325 A 
HETATM   31  H   UNL     1      41.705  -8.131  10.610  1.00  0.00     0.170 HD
HETATM   32  O   UNL     1      39.516  -8.481  12.141  1.00  0.00    -0.247 OA
HETATM   33  C   UNL     1      41.133  -9.883   6.782  1.00  0.00     0.032 A 
HETATM   34  H   UNL     1      37.930  -9.823  10.468  1.00  0.00     0.170 HD
ENDBRANCH  20  23
ENDBRANCH  18  19
ENDBRANCH   1  18
TORSDOF 7
ENDMDL
MODEL 8
REMARK VINA RESULT:      -7.3      2.292      2.960
REMARK  7 active torsions:
REMARK  status: ('A' for Active; 'I' for Inactive)
REMARK    1  A    between atoms: C_2  and  C_3 
REMARK    2  A    between atoms: C_6  and  C_7 
REMARK    3  A    between atoms: C_7  and  N_8 
REMARK    4  A    between atoms: C_7  and  C_25 
REMARK    5  A    between atoms: N_8  and  C_11 
REMARK    6  A    between atoms: C_11  and  C_12 
REMARK       I    between atoms: C_12  and  N_13 
REMARK    7  A    between atoms: N_13  and  C_14 
ROOT
HETATM    1  N   UNL     1      41.482 -13.459   3.286  1.00  0.00    -0.054 N 
HETATM    2  H   UNL     1      41.706 -12.456   3.399  1.00  0.00     0.278 HD
HETATM    3  H   UNL     1      41.953 -13.697   2.408  1.00  0.00     0.278 HD
ENDROOT
BRANCH   1   4
HETATM    4  C   UNL     1      42.087 -14.205   4.425  1.00  0.00     0.259 C 
BRANCH   4   5
HETATM    5  C   UNL     1      42.690 -15.546   4.036  1.00  0.00    -0.023 A 
HETATM    6  C   UNL     1      42.901 -16.583   4.962  1.00  0.00     0.010 A 
HETATM    7  C   UNL     1      43.405 -17.819   4.546  1.00  0.00     0.007 A 
HETATM    8  C   UNL     1      43.697 -18.053   3.198  1.00  0.00    -0.059 A 
HETATM    9  C   UNL     1      43.480 -17.031   2.271  1.00  0.00     0.007 A 
HETATM   10  C   UNL     1      42.983 -15.792   2.684  1.00  0.00     0.010 A 
BRANCH   8  11
HETATM   11  C   UNL     1      44.178 -19.410   2.744  1.00  0.00     0.034 C 
HETATM   12  C   UNL     1      43.080 -20.186   2.033  1.00  0.00     0.010 C 
ENDBRANCH   8  11
ENDBRANCH   4   5
BRANCH   4  13
HETATM   13  C   UNL     1      43.067 -13.302   5.139  1.00  0.00     0.017 A 
HETATM   14  S   UNL     1      43.605 -11.873   4.345  1.00  0.00    -0.104 SA
HETATM   15  C   UNL     1      44.608 -11.438   5.655  1.00  0.00     0.050 A 
HETATM   16  C   UNL     1      44.552 -12.359   6.675  1.00  0.00     0.008 A 
HETATM   17  C   UNL     1      43.668 -13.436   6.378  1.00  0.00     0.017 A 
ENDBRANCH   4  13
ENDBRANCH   1   4
BRANCH   1  18
HETATM   18  C   UNL     1      39.983 -13.542   3.119  1.00  0.00     0.336 C 
BRANCH  18  19
HETATM   19  C   UNL     1      39.673 -14.519   1.994  1.00  0.00     0.248 C 
HETATM   20  N   UNL     1      39.495 -14.148   0.702  1.00  0.00    -0.326 N 
HETATM   21  H   UNL     1      39.218 -14.945   0.131  1.00  0.00     0.169 HD
HETATM   22  O   UNL     1      39.546 -15.713   2.299  1.00  0.00    -0.271 OA
BRANCH  20  23
HETATM   23  C   UNL     1      39.608 -12.927   0.009  1.00  0.00     0.037 A 
HETATM   24  C   UNL     1      38.755 -11.828   0.159  1.00  0.00     0.061 A 
HETATM   25  C   UNL     1      39.030 -10.710  -0.602  1.00  0.00     0.065 A 
HETATM   26  C   UNL     1      40.104 -10.644  -1.484  1.00  0.00     0.063 A 
HETATM   27  N   UNL     1      38.363  -9.491  -0.653  1.00  0.00    -0.306 N 
HETATM   28  N   UNL     1      40.097  -9.390  -2.081  1.00  0.00    -0.307 N 
HETATM   29  C   UNL     1      40.968 -11.693  -1.652  1.00  0.00     0.034 A 
HETATM   30  C   UNL     1      39.018  -8.656  -1.572  1.00  0.00     0.325 A 
HETATM   31  H   UNL     1      40.746  -9.027  -2.762  1.00  0.00     0.170 HD
HETATM   32  O   UNL     1      38.703  -7.518  -1.863  1.00  0.00    -0.247 OA
HETATM   33  C   UNL     1      40.710 -12.840  -0.889  1.00  0.00     0.032 A 
HETATM   34  H   UNL     1      37.549  -9.195  -0.140  1.00  0.00     0.170 HD
ENDBRANCH  20  23
ENDBRANCH  18  19
ENDBRANCH   1  18
TORSDOF 7
ENDMDL
MODEL 9
REMARK VINA RESULT:      -7.3     15.827     18.183
REMARK  7 active torsions:
REMARK  status: ('A' for Active; 'I' for Inactive)
REMARK    1  A    between atoms: C_2  and  C_3 
REMARK    2  A    between atoms: C_6  and  C_7 
REMARK    3  A    between atoms: C_7  and  N_8 
REMARK    4  A    between atoms: C_7  and  C_25 
REMARK    5  A    between atoms: N_8  and  C_11 
REMARK    6  A    between atoms: C_11  and  C_12 
REMARK       I    between atoms: C_12  and  N_13 
REMARK    7  A    between atoms: N_13  and  C_14 
ROOT
HETATM    1  N   UNL     1      44.449 -28.955  -0.838  1.00  0.00    -0.054 N 
HETATM    2  H   UNL     1      43.529 -28.576  -0.555  1.00  0.00     0.278 HD
HETATM    3  H   UNL     1      45.083 -28.175  -0.641  1.00  0.00     0.278 HD
ENDROOT
BRANCH   1   4
HETATM    4  C   UNL     1      44.763 -30.120   0.036  1.00  0.00     0.259 C 
BRANCH   4   5
HETATM    5  C   UNL     1      45.838 -29.843   1.076  1.00  0.00    -0.023 A 
HETATM    6  C   UNL     1      46.503 -30.866   1.775  1.00  0.00     0.010 A 
HETATM    7  C   UNL     1      47.524 -30.563   2.680  1.00  0.00     0.007 A 
HETATM    8  C   UNL     1      47.914 -29.237   2.899  1.00  0.00    -0.059 A 
HETATM    9  C   UNL     1      47.264 -28.216   2.200  1.00  0.00     0.007 A 
HETATM   10  C   UNL     1      46.239 -28.514   1.299  1.00  0.00     0.010 A 
BRANCH   8  11
HETATM   11  C   UNL     1      49.061 -28.920   3.827  1.00  0.00     0.034 C 
HETATM   12  C   UNL     1      49.856 -30.168   4.183  1.00  0.00     0.010 C 
ENDBRANCH   8  11
ENDBRANCH   4   5
BRANCH   4  13
HETATM   13  C   UNL     1      43.480 -30.644   0.638  1.00  0.00     0.017 A 
HETATM   14  S   UNL     1      42.479 -29.559   1.525  1.00  0.00    -0.104 SA
HETATM   15  C   UNL     1      41.339 -30.781   1.870  1.00  0.00     0.050 A 
HETATM   16  C   UNL     1      41.706 -31.995   1.338  1.00  0.00     0.008 A 
HETATM   17  C   UNL     1      42.942 -31.919   0.631  1.00  0.00     0.017 A 
ENDBRANCH   4  13
ENDBRANCH   1   4
BRANCH   1  18
HETATM   18  C   UNL     1      44.367 -29.203  -2.326  1.00  0.00     0.336 C 
BRANCH  18  19
HETATM   19  C   UNL     1      45.386 -28.314  -3.024  1.00  0.00     0.248 C 
HETATM   20  N   UNL     1      46.726 -28.436  -2.864  1.00  0.00    -0.326 N 
HETATM   21  H   UNL     1      47.219 -27.693  -3.357  1.00  0.00     0.169 HD
HETATM   22  O   UNL     1      44.946 -27.411  -3.749  1.00  0.00    -0.271 OA
BRANCH  20  23
HETATM   23  C   UNL     1      47.551 -29.348  -2.177  1.00  0.00     0.037 A 
HETATM   24  C   UNL     1      48.512 -29.008  -1.218  1.00  0.00     0.061 A 
HETATM   25  C   UNL     1      49.221 -30.044  -0.645  1.00  0.00     0.065 A 
HETATM   26  C   UNL     1      49.011 -31.378  -0.980  1.00  0.00     0.063 A 
HETATM   27  N   UNL     1      50.218 -30.001   0.324  1.00  0.00    -0.306 N 
HETATM   28  N   UNL     1      49.878 -32.156  -0.223  1.00  0.00    -0.307 N 
HETATM   29  C   UNL     1      48.075 -31.752  -1.906  1.00  0.00     0.034 A 
HETATM   30  C   UNL     1      50.638 -31.312   0.599  1.00  0.00     0.325 A 
HETATM   31  H   UNL     1      49.970 -33.160  -0.228  1.00  0.00     0.170 HD
HETATM   32  O   UNL     1      51.495 -31.642   1.395  1.00  0.00    -0.247 OA
HETATM   33  C   UNL     1      47.340 -30.719  -2.501  1.00  0.00     0.032 A 
HETATM   34  H   UNL     1      50.610 -29.200   0.792  1.00  0.00     0.170 HD
ENDBRANCH  20  23
ENDBRANCH  18  19
ENDBRANCH   1  18
TORSDOF 7
ENDMDL
MODEL 10
REMARK VINA RESULT:      -7.2      4.505      8.529
REMARK  7 active torsions:
REMARK  status: ('A' for Active; 'I' for Inactive)
REMARK    1  A    between atoms: C_2  and  C_3 
REMARK    2  A    between atoms: C_6  and  C_7 
REMARK    3  A    between atoms: C_7  and  N_8 
REMARK    4  A    between atoms: C_7  and  C_25 
REMARK    5  A    between atoms: N_8  and  C_11 
REMARK    6  A    between atoms: C_11  and  C_12 
REMARK       I    between atoms: C_12  and  N_13 
REMARK    7  A    between atoms: N_13  and  C_14 
ROOT
HETATM    1  N   UNL     1      43.394 -12.804   6.867  1.00  0.00    -0.054 N 
HETATM    2  H   UNL     1      42.717 -13.177   7.553  1.00  0.00     0.278 HD
HETATM    3  H   UNL     1      44.269 -13.259   7.146  1.00  0.00     0.278 HD
ENDROOT
BRANCH   1   4
HETATM    4  C   UNL     1      42.980 -13.254   5.508  1.00  0.00     0.259 C 
BRANCH   4   5
HETATM    5  C   UNL     1      43.231 -14.730   5.240  1.00  0.00    -0.023 A 
HETATM    6  C   UNL     1      42.832 -15.366   4.051  1.00  0.00     0.010 A 
HETATM    7  C   UNL     1      43.136 -16.712   3.826  1.00  0.00     0.007 A 
HETATM    8  C   UNL     1      43.854 -17.448   4.774  1.00  0.00    -0.059 A 
HETATM    9  C   UNL     1      44.263 -16.820   5.953  1.00  0.00     0.007 A 
HETATM   10  C   UNL     1      43.955 -15.477   6.184  1.00  0.00     0.010 A 
BRANCH   8  11
HETATM   11  C   UNL     1      44.237 -18.882   4.498  1.00  0.00     0.034 C 
HETATM   12  C   UNL     1      43.948 -19.273   3.056  1.00  0.00     0.010 C 
ENDBRANCH   8  11
ENDBRANCH   4   5
BRANCH   4  13
HETATM   13  C   UNL     1      41.543 -12.847   5.272  1.00  0.00     0.017 A 
HETATM   14  S   UNL     1      41.171 -11.883   3.895  1.00  0.00    -0.104 SA
HETATM   15  C   UNL     1      39.513 -11.829   4.292  1.00  0.00     0.050 A 
HETATM   16  C   UNL     1      39.238 -12.515   5.452  1.00  0.00     0.008 A 
HETATM   17  C   UNL     1      40.407 -13.099   6.021  1.00  0.00     0.017 A 
ENDBRANCH   4  13
ENDBRANCH   1   4
BRANCH   1  18
HETATM   18  C   UNL     1      43.474 -11.316   7.113  1.00  0.00     0.336 C 
BRANCH  18  19
HETATM   19  C   UNL     1      44.916 -10.954   7.439  1.00  0.00     0.248 C 
HETATM   20  N   UNL     1      45.268 -10.028   8.365  1.00  0.00    -0.326 N 
HETATM   21  H   UNL     1      46.277  -9.884   8.366  1.00  0.00     0.169 HD
HETATM   22  O   UNL     1      45.804 -11.522   6.788  1.00  0.00    -0.271 OA
BRANCH  20  23
HETATM   23  C   UNL     1      44.551  -9.249   9.293  1.00  0.00     0.037 A 
HETATM   24  C   UNL     1      43.931  -8.025   9.016  1.00  0.00     0.061 A 
HETATM   25  C   UNL     1      43.265  -7.409  10.056  1.00  0.00     0.065 A 
HETATM   26  C   UNL     1      43.189  -7.957  11.333  1.00  0.00     0.063 A 
HETATM   27  N   UNL     1      42.565  -6.207  10.067  1.00  0.00    -0.306 N 
HETATM   28  N   UNL     1      42.449  -7.093  12.130  1.00  0.00    -0.307 N 
HETATM   29  C   UNL     1      43.773  -9.156  11.641  1.00  0.00     0.034 A 
HETATM   30  C   UNL     1      42.049  -5.996  11.355  1.00  0.00     0.325 A 
HETATM   31  H   UNL     1      42.209  -7.205  13.104  1.00  0.00     0.170 HD
HETATM   32  O   UNL     1      41.387  -5.044  11.719  1.00  0.00    -0.247 OA
HETATM   33  C   UNL     1      44.454  -9.802  10.602  1.00  0.00     0.032 A 
HETATM   34  H   UNL     1      42.414  -5.558   9.312  1.00  0.00     0.170 HD
ENDBRANCH  20  23
ENDBRANCH  18  19
ENDBRANCH   1  18
TORSDOF 7
ENDMDL
