MODEL 1
REMARK VINA RESULT:      -7.6      0.000      0.000
REMARK  6 active torsions:
REMARK  status: ('A' for Active; 'I' for Inactive)
REMARK    1  A    between atoms: C_2  and  N_3 
REMARK    2  A    between atoms: C_2  and  C_16 
REMARK    3  A    between atoms: N_3  and  C_6 
REMARK    4  A    between atoms: C_16  and  C_17 
REMARK       I    between atoms: C_17  and  N_18 
REMARK    5  A    between atoms: N_18  and  C_19 
REMARK    6  A    between atoms: C_21  and  O_22 
ROOT
HETATM    1  C   UNL     1      43.415 -12.191   5.785  1.00  0.00     0.040 C 
HETATM    2  C   UNL     1      41.948 -12.550   5.968  1.00  0.00     0.191 C 
ENDROOT
BRANCH   2   3
HETATM    3  N   UNL     1      41.765 -14.049   6.111  1.00  0.00    -0.063 N 
HETATM    4  H   UNL     1      41.386 -14.163   7.073  1.00  0.00     0.278 HD
HETATM    5  H   UNL     1      41.009 -14.380   5.500  1.00  0.00     0.278 HD
BRANCH   3   6
HETATM    6  C   UNL     1      42.933 -15.014   6.032  1.00  0.00     0.221 C 
HETATM    7  C   UNL     1      43.080 -15.740   4.715  1.00  0.00    -0.011 A 
HETATM    8  C   UNL     1      43.312 -17.124   4.638  1.00  0.00     0.009 A 
HETATM    9  C   UNL     1      43.070 -14.999   3.512  1.00  0.00     0.011 A 
HETATM   10  C   UNL     1      43.452 -17.745   3.388  1.00  0.00     0.019 A 
HETATM   11  S   UNL     1      43.474 -18.170   6.071  1.00  0.00    -0.129 SA
HETATM   12  C   UNL     1      43.402 -17.001   2.212  1.00  0.00     0.001 A 
HETATM   13  C   UNL     1      43.219 -15.626   2.275  1.00  0.00     0.001 A 
HETATM   14  C   UNL     1      43.992 -16.941   7.290  1.00  0.00     0.082 C 
HETATM   15  C   UNL     1      42.950 -15.840   7.328  1.00  0.00     0.048 C 
ENDBRANCH   3   6
ENDBRANCH   2   3
BRANCH   2  16
HETATM   16  C   UNL     1      41.127 -12.053   4.755  1.00  0.00     0.135 C 
BRANCH  16  17
HETATM   17  C   UNL     1      39.705 -12.552   4.810  1.00  0.00     0.224 C 
HETATM   18  N   UNL     1      39.092 -13.161   3.766  1.00  0.00    -0.327 N 
HETATM   19  H   UNL     1      38.124 -13.379   3.991  1.00  0.00     0.169 HD
HETATM   20  O   UNL     1      39.087 -12.456   5.882  1.00  0.00    -0.273 OA
BRANCH  18  21
HETATM   21  C   UNL     1      39.503 -13.598   2.489  1.00  0.00     0.037 A 
HETATM   22  C   UNL     1      39.867 -12.780   1.415  1.00  0.00     0.066 A 
HETATM   23  C   UNL     1      40.301 -13.342   0.205  1.00  0.00     0.070 A 
HETATM   24  C   UNL     1      40.370 -14.728   0.069  1.00  0.00     0.037 A 
HETATM   25  C   UNL     1      40.007 -15.555   1.125  1.00  0.00     0.005 A 
HETATM   26  C   UNL     1      39.576 -14.991   2.326  1.00  0.00     0.029 A 
BRANCH  23  27
HETATM   27  O   UNL     1      40.696 -12.653  -0.909  1.00  0.00    -0.356 OA
HETATM   28  C   UNL     1      40.330 -13.175  -2.178  1.00  0.00     0.210 C 
ENDBRANCH  23  27
ENDBRANCH  18  21
ENDBRANCH  16  17
ENDBRANCH   2  16
TORSDOF 6
ENDMDL
MODEL 2
REMARK VINA RESULT:      -7.1      1.708      2.612
REMARK  6 active torsions:
REMARK  status: ('A' for Active; 'I' for Inactive)
REMARK    1  A    between atoms: C_2  and  N_3 
REMARK    2  A    between atoms: C_2  and  C_16 
REMARK    3  A    between atoms: N_3  and  C_6 
REMARK    4  A    between atoms: C_16  and  C_17 
REMARK       I    between atoms: C_17  and  N_18 
REMARK    5  A    between atoms: N_18  and  C_19 
REMARK    6  A    between atoms: C_21  and  O_22 
ROOT
HETATM    1  C   UNL     1      39.468 -12.458   5.275  1.00  0.00     0.040 C 
HETATM    2  C   UNL     1      40.259 -13.451   4.436  1.00  0.00     0.191 C 
ENDROOT
BRANCH   2   3
HETATM    3  N   UNL     1      41.727 -13.073   4.382  1.00  0.00    -0.063 N 
HETATM    4  H   UNL     1      41.894 -12.864   3.377  1.00  0.00     0.278 HD
HETATM    5  H   UNL     1      41.886 -12.177   4.857  1.00  0.00     0.278 HD
BRANCH   3   6
HETATM    6  C   UNL     1      42.824 -14.048   4.769  1.00  0.00     0.221 C 
HETATM    7  C   UNL     1      43.000 -15.222   3.834  1.00  0.00    -0.011 A 
HETATM    8  C   UNL     1      43.135 -16.541   4.298  1.00  0.00     0.009 A 
HETATM    9  C   UNL     1      43.120 -14.989   2.446  1.00  0.00     0.011 A 
HETATM   10  C   UNL     1      43.308 -17.593   3.386  1.00  0.00     0.019 A 
HETATM   11  S   UNL     1      43.129 -16.977   6.026  1.00  0.00    -0.129 SA
HETATM   12  C   UNL     1      43.387 -17.346   2.018  1.00  0.00     0.001 A 
HETATM   13  C   UNL     1      43.302 -16.041   1.548  1.00  0.00     0.001 A 
HETATM   14  C   UNL     1      43.657 -15.403   6.740  1.00  0.00     0.082 C 
HETATM   15  C   UNL     1      42.698 -14.325   6.275  1.00  0.00     0.048 C 
ENDBRANCH   3   6
ENDBRANCH   2   3
BRANCH   2  16
HETATM   16  C   UNL     1      39.693 -13.496   2.997  1.00  0.00     0.135 C 
BRANCH  16  17
HETATM   17  C   UNL     1      39.709 -14.899   2.444  1.00  0.00     0.224 C 
HETATM   18  N   UNL     1      39.787 -15.171   1.118  1.00  0.00    -0.327 N 
HETATM   19  H   UNL     1      39.737 -16.174   0.951  1.00  0.00     0.169 HD
HETATM   20  O   UNL     1      39.712 -15.849   3.242  1.00  0.00    -0.273 OA
BRANCH  18  21
HETATM   21  C   UNL     1      39.973 -14.398  -0.047  1.00  0.00     0.037 A 
HETATM   22  C   UNL     1      39.448 -14.675  -1.313  1.00  0.00     0.066 A 
HETATM   23  C   UNL     1      39.671 -13.799  -2.386  1.00  0.00     0.070 A 
HETATM   24  C   UNL     1      40.424 -12.641  -2.191  1.00  0.00     0.037 A 
HETATM   25  C   UNL     1      40.957 -12.354  -0.940  1.00  0.00     0.005 A 
HETATM   26  C   UNL     1      40.731 -13.228   0.123  1.00  0.00     0.029 A 
BRANCH  23  27
HETATM   27  O   UNL     1      39.203 -13.950  -3.662  1.00  0.00    -0.356 OA
HETATM   28  C   UNL     1      38.037 -14.737  -3.854  1.00  0.00     0.210 C 
ENDBRANCH  23  27
ENDBRANCH  18  21
ENDBRANCH  16  17
ENDBRANCH   2  16
TORSDOF 6
ENDMDL
MODEL 3
REMARK VINA RESULT:      -7.0      2.093      4.812
REMARK  6 active torsions:
REMARK  status: ('A' for Active; 'I' for Inactive)
REMARK    1  A    between atoms: C_2  and  N_3 
REMARK    2  A    between atoms: C_2  and  C_16 
REMARK    3  A    between atoms: N_3  and  C_6 
REMARK    4  A    between atoms: C_16  and  C_17 
REMARK       I    between atoms: C_17  and  N_18 
REMARK    5  A    between atoms: N_18  and  C_19 
REMARK    6  A    between atoms: C_21  and  O_22 
ROOT
HETATM    1  C   UNL     1      39.909 -15.732   1.400  1.00  0.00     0.040 C 
HETATM    2  C   UNL     1      40.822 -14.743   2.111  1.00  0.00     0.191 C 
ENDROOT
BRANCH   2   3
HETATM    3  N   UNL     1      41.017 -15.129   3.566  1.00  0.00    -0.063 N 
HETATM    4  H   UNL     1      40.590 -14.339   4.092  1.00  0.00     0.278 HD
HETATM    5  H   UNL     1      40.432 -15.938   3.806  1.00  0.00     0.278 HD
BRANCH   3   6
HETATM    6  C   UNL     1      42.395 -15.308   4.174  1.00  0.00     0.221 C 
HETATM    7  C   UNL     1      42.976 -16.698   4.052  1.00  0.00    -0.011 A 
HETATM    8  C   UNL     1      43.583 -17.359   5.133  1.00  0.00     0.009 A 
HETATM    9  C   UNL     1      42.993 -17.332   2.789  1.00  0.00     0.011 A 
HETATM   10  C   UNL     1      44.117 -18.645   4.960  1.00  0.00     0.019 A 
HETATM   11  S   UNL     1      43.749 -16.638   6.754  1.00  0.00    -0.129 SA
HETATM   12  C   UNL     1      44.090 -19.267   3.715  1.00  0.00     0.001 A 
HETATM   13  C   UNL     1      43.535 -18.606   2.627  1.00  0.00     0.001 A 
HETATM   14  C   UNL     1      43.678 -14.886   6.317  1.00  0.00     0.082 C 
HETATM   15  C   UNL     1      42.390 -14.637   5.557  1.00  0.00     0.048 C 
ENDBRANCH   3   6
ENDBRANCH   2   3
BRANCH   2  16
HETATM   16  C   UNL     1      40.219 -13.321   2.040  1.00  0.00     0.135 C 
BRANCH  16  17
HETATM   17  C   UNL     1      41.126 -12.375   1.294  1.00  0.00     0.224 C 
HETATM   18  N   UNL     1      42.001 -11.545   1.913  1.00  0.00    -0.327 N 
HETATM   19  H   UNL     1      42.484 -10.959   1.236  1.00  0.00     0.169 HD
HETATM   20  O   UNL     1      41.115 -12.402   0.054  1.00  0.00    -0.273 OA
BRANCH  18  21
HETATM   21  C   UNL     1      42.420 -11.356   3.247  1.00  0.00     0.037 A 
HETATM   22  C   UNL     1      43.699 -11.608   3.752  1.00  0.00     0.066 A 
HETATM   23  C   UNL     1      44.002 -11.337   5.095  1.00  0.00     0.070 A 
HETATM   24  C   UNL     1      43.021 -10.811   5.935  1.00  0.00     0.037 A 
HETATM   25  C   UNL     1      41.743 -10.560   5.450  1.00  0.00     0.005 A 
HETATM   26  C   UNL     1      41.448 -10.832   4.114  1.00  0.00     0.029 A 
BRANCH  23  27
HETATM   27  O   UNL     1      45.213 -11.525   5.703  1.00  0.00    -0.356 OA
HETATM   28  C   UNL     1      45.255 -11.504   7.122  1.00  0.00     0.210 C 
ENDBRANCH  23  27
ENDBRANCH  18  21
ENDBRANCH  16  17
ENDBRANCH   2  16
TORSDOF 6
ENDMDL
MODEL 4
REMARK VINA RESULT:      -6.9      3.309      6.827
REMARK  6 active torsions:
REMARK  status: ('A' for Active; 'I' for Inactive)
REMARK    1  A    between atoms: C_2  and  N_3 
REMARK    2  A    between atoms: C_2  and  C_16 
REMARK    3  A    between atoms: N_3  and  C_6 
REMARK    4  A    between atoms: C_16  and  C_17 
REMARK       I    between atoms: C_17  and  N_18 
REMARK    5  A    between atoms: N_18  and  C_19 
REMARK    6  A    between atoms: C_21  and  O_22 
ROOT
HETATM    1  C   UNL     1      39.888 -15.663   2.153  1.00  0.00     0.040 C 
HETATM    2  C   UNL     1      40.150 -14.291   2.757  1.00  0.00     0.191 C 
ENDROOT
BRANCH   2   3
HETATM    3  N   UNL     1      41.072 -13.472   1.873  1.00  0.00    -0.063 N 
HETATM    4  H   UNL     1      41.694 -12.982   2.548  1.00  0.00     0.278 HD
HETATM    5  H   UNL     1      41.705 -14.086   1.346  1.00  0.00     0.278 HD
BRANCH   3   6
HETATM    6  C   UNL     1      40.551 -12.383   0.954  1.00  0.00     0.221 C 
HETATM    7  C   UNL     1      40.558 -12.724  -0.518  1.00  0.00    -0.011 A 
HETATM    8  C   UNL     1      41.039 -11.837  -1.495  1.00  0.00     0.009 A 
HETATM    9  C   UNL     1      39.984 -13.942  -0.948  1.00  0.00     0.011 A 
HETATM   10  C   UNL     1      41.011 -12.201  -2.849  1.00  0.00     0.019 A 
HETATM   11  S   UNL     1      41.677 -10.217  -1.117  1.00  0.00    -0.129 SA
HETATM   12  C   UNL     1      40.475 -13.422  -3.249  1.00  0.00     0.001 A 
HETATM   13  C   UNL     1      39.953 -14.289  -2.298  1.00  0.00     0.001 A 
HETATM   14  C   UNL     1      40.838  -9.916   0.455  1.00  0.00     0.082 C 
HETATM   15  C   UNL     1      41.178 -11.052   1.400  1.00  0.00     0.048 C 
ENDBRANCH   3   6
ENDBRANCH   2   3
BRANCH   2  16
HETATM   16  C   UNL     1      40.792 -14.442   4.156  1.00  0.00     0.135 C 
BRANCH  16  17
HETATM   17  C   UNL     1      42.219 -13.957   4.163  1.00  0.00     0.224 C 
HETATM   18  N   UNL     1      43.285 -14.788   4.058  1.00  0.00    -0.327 N 
HETATM   19  H   UNL     1      44.157 -14.269   4.129  1.00  0.00     0.169 HD
HETATM   20  O   UNL     1      42.427 -12.735   4.204  1.00  0.00    -0.273 OA
BRANCH  18  21
HETATM   21  C   UNL     1      43.450 -16.169   3.823  1.00  0.00     0.037 A 
HETATM   22  C   UNL     1      43.692 -17.148   4.792  1.00  0.00     0.066 A 
HETATM   23  C   UNL     1      43.794 -18.499   4.432  1.00  0.00     0.070 A 
HETATM   24  C   UNL     1      43.653 -18.874   3.096  1.00  0.00     0.037 A 
HETATM   25  C   UNL     1      43.417 -17.913   2.120  1.00  0.00     0.005 A 
HETATM   26  C   UNL     1      43.316 -16.571   2.484  1.00  0.00     0.029 A 
BRANCH  23  27
HETATM   27  O   UNL     1      44.014 -19.547   5.283  1.00  0.00    -0.356 OA
HETATM   28  C   UNL     1      43.984 -20.860   4.744  1.00  0.00     0.210 C 
ENDBRANCH  23  27
ENDBRANCH  18  21
ENDBRANCH  16  17
ENDBRANCH   2  16
TORSDOF 6
ENDMDL
MODEL 5
REMARK VINA RESULT:      -6.9      2.188      3.389
REMARK  6 active torsions:
REMARK  status: ('A' for Active; 'I' for Inactive)
REMARK    1  A    between atoms: C_2  and  N_3 
REMARK    2  A    between atoms: C_2  and  C_16 
REMARK    3  A    between atoms: N_3  and  C_6 
REMARK    4  A    between atoms: C_16  and  C_17 
REMARK       I    between atoms: C_17  and  N_18 
REMARK    5  A    between atoms: N_18  and  C_19 
REMARK    6  A    between atoms: C_21  and  O_22 
ROOT
HETATM    1  C   UNL     1      42.732 -12.731   2.813  1.00  0.00     0.040 C 
HETATM    2  C   UNL     1      41.557 -13.679   2.626  1.00  0.00     0.191 C 
ENDROOT
BRANCH   2   3
HETATM    3  N   UNL     1      41.564 -14.772   3.679  1.00  0.00    -0.063 N 
HETATM    4  H   UNL     1      40.977 -14.383   4.445  1.00  0.00     0.278 HD
HETATM    5  H   UNL     1      41.040 -15.592   3.350  1.00  0.00     0.278 HD
BRANCH   3   6
HETATM    6  C   UNL     1      42.842 -15.231   4.355  1.00  0.00     0.221 C 
HETATM    7  C   UNL     1      43.223 -16.671   4.101  1.00  0.00    -0.011 A 
HETATM    8  C   UNL     1      43.629 -17.537   5.131  1.00  0.00     0.009 A 
HETATM    9  C   UNL     1      43.259 -17.153   2.773  1.00  0.00     0.011 A 
HETATM   10  C   UNL     1      43.983 -18.861   4.836  1.00  0.00     0.019 A 
HETATM   11  S   UNL     1      43.754 -17.038   6.837  1.00  0.00    -0.129 SA
HETATM   12  C   UNL     1      43.977 -19.327   3.524  1.00  0.00     0.001 A 
HETATM   13  C   UNL     1      43.623 -18.469   2.491  1.00  0.00     0.001 A 
HETATM   14  C   UNL     1      43.977 -15.258   6.620  1.00  0.00     0.082 C 
HETATM   15  C   UNL     1      42.812 -14.728   5.808  1.00  0.00     0.048 C 
ENDBRANCH   3   6
ENDBRANCH   2   3
BRANCH   2  16
HETATM   16  C   UNL     1      41.618 -14.327   1.223  1.00  0.00     0.135 C 
BRANCH  16  17
HETATM   17  C   UNL     1      40.329 -15.034   0.887  1.00  0.00     0.224 C 
HETATM   18  N   UNL     1      39.448 -14.571  -0.033  1.00  0.00    -0.327 N 
HETATM   19  H   UNL     1      38.625 -15.167  -0.078  1.00  0.00     0.169 HD
HETATM   20  O   UNL     1      40.094 -16.123   1.432  1.00  0.00    -0.273 OA
BRANCH  18  21
HETATM   21  C   UNL     1      39.443 -13.505  -0.958  1.00  0.00     0.037 A 
HETATM   22  C   UNL     1      38.776 -12.285  -0.806  1.00  0.00     0.066 A 
HETATM   23  C   UNL     1      38.887 -11.285  -1.783  1.00  0.00     0.070 A 
HETATM   24  C   UNL     1      39.667 -11.508  -2.918  1.00  0.00     0.037 A 
HETATM   25  C   UNL     1      40.331 -12.717  -3.086  1.00  0.00     0.005 A 
HETATM   26  C   UNL     1      40.218 -13.707  -2.111  1.00  0.00     0.029 A 
BRANCH  23  27
HETATM   27  O   UNL     1      38.299 -10.051  -1.745  1.00  0.00    -0.356 OA
HETATM   28  C   UNL     1      38.890  -9.057  -0.922  1.00  0.00     0.210 C 
ENDBRANCH  23  27
ENDBRANCH  18  21
ENDBRANCH  16  17
ENDBRANCH   2  16
TORSDOF 6
ENDMDL
MODEL 6
REMARK VINA RESULT:      -6.7      4.093      6.980
REMARK  6 active torsions:
REMARK  status: ('A' for Active; 'I' for Inactive)
REMARK    1  A    between atoms: C_2  and  N_3 
REMARK    2  A    between atoms: C_2  and  C_16 
REMARK    3  A    between atoms: N_3  and  C_6 
REMARK    4  A    between atoms: C_16  and  C_17 
REMARK       I    between atoms: C_17  and  N_18 
REMARK    5  A    between atoms: N_18  and  C_19 
REMARK    6  A    between atoms: C_21  and  O_22 
ROOT
HETATM    1  C   UNL     1      43.784 -13.621   6.646  1.00  0.00     0.040 C 
HETATM    2  C   UNL     1      43.107 -12.496   5.876  1.00  0.00     0.191 C 
ENDROOT
BRANCH   2   3
HETATM    3  N   UNL     1      42.330 -11.586   6.810  1.00  0.00    -0.063 N 
HETATM    4  H   UNL     1      41.374 -11.565   6.399  1.00  0.00     0.278 HD
HETATM    5  H   UNL     1      42.203 -12.032   7.725  1.00  0.00     0.278 HD
BRANCH   3   6
HETATM    6  C   UNL     1      42.705 -10.129   7.010  1.00  0.00     0.221 C 
HETATM    7  C   UNL     1      43.225  -9.782   8.385  1.00  0.00    -0.011 A 
HETATM    8  C   UNL     1      42.777  -8.657   9.099  1.00  0.00     0.009 A 
HETATM    9  C   UNL     1      44.261 -10.559   8.950  1.00  0.00     0.011 A 
HETATM   10  C   UNL     1      43.302  -8.375  10.368  1.00  0.00     0.019 A 
HETATM   11  S   UNL     1      41.566  -7.514   8.464  1.00  0.00    -0.129 SA
HETATM   12  C   UNL     1      44.297  -9.176  10.923  1.00  0.00     0.001 A 
HETATM   13  C   UNL     1      44.783 -10.263  10.209  1.00  0.00     0.001 A 
HETATM   14  C   UNL     1      41.782  -7.791   6.692  1.00  0.00     0.082 C 
HETATM   15  C   UNL     1      41.579  -9.268   6.414  1.00  0.00     0.048 C 
ENDBRANCH   3   6
ENDBRANCH   2   3
BRANCH   2  16
HETATM   16  C   UNL     1      42.140 -13.084   4.822  1.00  0.00     0.135 C 
BRANCH  16  17
HETATM   17  C   UNL     1      41.121 -13.997   5.456  1.00  0.00     0.224 C 
HETATM   18  N   UNL     1      41.065 -15.329   5.210  1.00  0.00    -0.327 N 
HETATM   19  H   UNL     1      40.280 -15.754   5.698  1.00  0.00     0.169 HD
HETATM   20  O   UNL     1      40.338 -13.518   6.290  1.00  0.00    -0.273 OA
BRANCH  18  21
HETATM   21  C   UNL     1      41.863 -16.242   4.489  1.00  0.00     0.037 A 
HETATM   22  C   UNL     1      42.911 -17.008   5.008  1.00  0.00     0.066 A 
HETATM   23  C   UNL     1      43.603 -17.917   4.194  1.00  0.00     0.070 A 
HETATM   24  C   UNL     1      43.244 -18.059   2.853  1.00  0.00     0.037 A 
HETATM   25  C   UNL     1      42.208 -17.301   2.321  1.00  0.00     0.005 A 
HETATM   26  C   UNL     1      41.524 -16.399   3.136  1.00  0.00     0.029 A 
BRANCH  23  27
HETATM   27  O   UNL     1      44.632 -18.729   4.583  1.00  0.00    -0.356 OA
HETATM   28  C   UNL     1      44.326 -20.072   4.926  1.00  0.00     0.210 C 
ENDBRANCH  23  27
ENDBRANCH  18  21
ENDBRANCH  16  17
ENDBRANCH   2  16
TORSDOF 6
ENDMDL
MODEL 7
REMARK VINA RESULT:      -6.7      3.392      7.518
REMARK  6 active torsions:
REMARK  status: ('A' for Active; 'I' for Inactive)
REMARK    1  A    between atoms: C_2  and  N_3 
REMARK    2  A    between atoms: C_2  and  C_16 
REMARK    3  A    between atoms: N_3  and  C_6 
REMARK    4  A    between atoms: C_16  and  C_17 
REMARK       I    between atoms: C_17  and  N_18 
REMARK    5  A    between atoms: N_18  and  C_19 
REMARK    6  A    between atoms: C_21  and  O_22 
ROOT
HETATM    1  C   UNL     1      39.889 -15.810   1.484  1.00  0.00     0.040 C 
HETATM    2  C   UNL     1      39.905 -14.346   1.069  1.00  0.00     0.191 C 
ENDROOT
BRANCH   2   3
HETATM    3  N   UNL     1      40.808 -14.127  -0.130  1.00  0.00    -0.063 N 
HETATM    4  H   UNL     1      41.296 -13.234   0.085  1.00  0.00     0.278 HD
HETATM    5  H   UNL     1      41.558 -14.827  -0.149  1.00  0.00     0.278 HD
BRANCH   3   6
HETATM    6  C   UNL     1      40.256 -13.946  -1.532  1.00  0.00     0.221 C 
HETATM    7  C   UNL     1      40.038 -12.512  -1.957  1.00  0.00    -0.011 A 
HETATM    8  C   UNL     1      38.857 -12.084  -2.588  1.00  0.00     0.009 A 
HETATM    9  C   UNL     1      41.084 -11.577  -1.798  1.00  0.00     0.011 A 
HETATM   10  C   UNL     1      38.712 -10.743  -2.972  1.00  0.00     0.019 A 
HETATM   11  S   UNL     1      37.500 -13.174  -2.968  1.00  0.00    -0.129 SA
HETATM   12  C   UNL     1      39.743  -9.828  -2.773  1.00  0.00     0.001 A 
HETATM   13  C   UNL     1      40.933 -10.248  -2.193  1.00  0.00     0.001 A 
HETATM   14  C   UNL     1      38.382 -14.750  -3.036  1.00  0.00     0.082 C 
HETATM   15  C   UNL     1      39.104 -14.947  -1.717  1.00  0.00     0.048 C 
ENDBRANCH   3   6
ENDBRANCH   2   3
BRANCH   2  16
HETATM   16  C   UNL     1      40.399 -13.469   2.243  1.00  0.00     0.135 C 
BRANCH  16  17
HETATM   17  C   UNL     1      41.819 -13.011   2.028  1.00  0.00     0.224 C 
HETATM   18  N   UNL     1      42.898 -13.760   2.362  1.00  0.00    -0.327 N 
HETATM   19  H   UNL     1      43.761 -13.254   2.179  1.00  0.00     0.169 HD
HETATM   20  O   UNL     1      42.010 -11.923   1.462  1.00  0.00    -0.273 OA
BRANCH  18  21
HETATM   21  C   UNL     1      43.087 -15.073   2.843  1.00  0.00     0.037 A 
HETATM   22  C   UNL     1      43.020 -15.480   4.179  1.00  0.00     0.066 A 
HETATM   23  C   UNL     1      43.184 -16.830   4.523  1.00  0.00     0.070 A 
HETATM   24  C   UNL     1      43.417 -17.776   3.526  1.00  0.00     0.037 A 
HETATM   25  C   UNL     1      43.493 -17.388   2.194  1.00  0.00     0.005 A 
HETATM   26  C   UNL     1      43.328 -16.045   1.857  1.00  0.00     0.029 A 
BRANCH  23  27
HETATM   27  O   UNL     1      43.127 -17.353   5.785  1.00  0.00    -0.356 OA
HETATM   28  C   UNL     1      43.581 -18.685   5.975  1.00  0.00     0.210 C 
ENDBRANCH  23  27
ENDBRANCH  18  21
ENDBRANCH  16  17
ENDBRANCH   2  16
TORSDOF 6
ENDMDL
MODEL 8
REMARK VINA RESULT:      -6.7      2.089      3.587
REMARK  6 active torsions:
REMARK  status: ('A' for Active; 'I' for Inactive)
REMARK    1  A    between atoms: C_2  and  N_3 
REMARK    2  A    between atoms: C_2  and  C_16 
REMARK    3  A    between atoms: N_3  and  C_6 
REMARK    4  A    between atoms: C_16  and  C_17 
REMARK       I    between atoms: C_17  and  N_18 
REMARK    5  A    between atoms: N_18  and  C_19 
REMARK    6  A    between atoms: C_21  and  O_22 
ROOT
HETATM    1  C   UNL     1      40.082 -15.484   1.081  1.00  0.00     0.040 C 
HETATM    2  C   UNL     1      40.975 -14.643   1.982  1.00  0.00     0.191 C 
ENDROOT
BRANCH   2   3
HETATM    3  N   UNL     1      41.101 -15.265   3.360  1.00  0.00    -0.063 N 
HETATM    4  H   UNL     1      40.587 -14.605   3.979  1.00  0.00     0.278 HD
HETATM    5  H   UNL     1      40.559 -16.136   3.413  1.00  0.00     0.278 HD
BRANCH   3   6
HETATM    6  C   UNL     1      42.446 -15.469   4.032  1.00  0.00     0.221 C 
HETATM    7  C   UNL     1      43.001 -16.872   3.948  1.00  0.00    -0.011 A 
HETATM    8  C   UNL     1      43.543 -17.537   5.061  1.00  0.00     0.009 A 
HETATM    9  C   UNL     1      43.060 -17.518   2.693  1.00  0.00     0.011 A 
HETATM   10  C   UNL     1      44.055 -18.835   4.924  1.00  0.00     0.019 A 
HETATM   11  S   UNL     1      43.651 -16.803   6.682  1.00  0.00    -0.129 SA
HETATM   12  C   UNL     1      44.071 -19.468   3.684  1.00  0.00     0.001 A 
HETATM   13  C   UNL     1      43.581 -18.806   2.566  1.00  0.00     0.001 A 
HETATM   14  C   UNL     1      43.639 -15.054   6.228  1.00  0.00     0.082 C 
HETATM   15  C   UNL     1      42.393 -14.785   5.408  1.00  0.00     0.048 C 
ENDBRANCH   3   6
ENDBRANCH   2   3
BRANCH   2  16
HETATM   16  C   UNL     1      40.395 -13.216   2.120  1.00  0.00     0.135 C 
BRANCH  16  17
HETATM   17  C   UNL     1      41.374 -12.175   1.640  1.00  0.00     0.224 C 
HETATM   18  N   UNL     1      41.334 -11.640   0.395  1.00  0.00    -0.327 N 
HETATM   19  H   UNL     1      42.106 -10.992   0.255  1.00  0.00     0.169 HD
HETATM   20  O   UNL     1      42.216 -11.742   2.441  1.00  0.00    -0.273 OA
BRANCH  18  21
HETATM   21  C   UNL     1      40.452 -11.737  -0.702  1.00  0.00     0.037 A 
HETATM   22  C   UNL     1      40.353 -12.814  -1.588  1.00  0.00     0.066 A 
HETATM   23  C   UNL     1      39.400 -12.807  -2.617  1.00  0.00     0.070 A 
HETATM   24  C   UNL     1      38.543 -11.716  -2.761  1.00  0.00     0.037 A 
HETATM   25  C   UNL     1      38.633 -10.634  -1.893  1.00  0.00     0.005 A 
HETATM   26  C   UNL     1      39.582 -10.648  -0.871  1.00  0.00     0.029 A 
BRANCH  23  27
HETATM   27  O   UNL     1      39.195 -13.800  -3.534  1.00  0.00    -0.356 OA
HETATM   28  C   UNL     1      38.532 -14.979  -3.102  1.00  0.00     0.210 C 
ENDBRANCH  23  27
ENDBRANCH  18  21
ENDBRANCH  16  17
ENDBRANCH   2  16
TORSDOF 6
ENDMDL
MODEL 9
REMARK VINA RESULT:      -6.7      3.706      6.509
REMARK  6 active torsions:
REMARK  status: ('A' for Active; 'I' for Inactive)
REMARK    1  A    between atoms: C_2  and  N_3 
REMARK    2  A    between atoms: C_2  and  C_16 
REMARK    3  A    between atoms: N_3  and  C_6 
REMARK    4  A    between atoms: C_16  and  C_17 
REMARK       I    between atoms: C_17  and  N_18 
REMARK    5  A    between atoms: N_18  and  C_19 
REMARK    6  A    between atoms: C_21  and  O_22 
ROOT
HETATM    1  C   UNL     1      43.072 -12.808   3.773  1.00  0.00     0.040 C 
HETATM    2  C   UNL     1      42.200 -12.191   4.857  1.00  0.00     0.191 C 
ENDROOT
BRANCH   2   3
HETATM    3  N   UNL     1      42.823 -10.919   5.402  1.00  0.00    -0.063 N 
HETATM    4  H   UNL     1      43.531 -10.661   4.684  1.00  0.00     0.278 HD
HETATM    5  H   UNL     1      42.146 -10.148   5.377  1.00  0.00     0.278 HD
BRANCH   3   6
HETATM    6  C   UNL     1      43.571 -10.888   6.721  1.00  0.00     0.221 C 
HETATM    7  C   UNL     1      43.216  -9.739   7.636  1.00  0.00    -0.011 A 
HETATM    8  C   UNL     1      44.192  -8.965   8.287  1.00  0.00     0.009 A 
HETATM    9  C   UNL     1      41.858  -9.475   7.921  1.00  0.00     0.011 A 
HETATM   10  C   UNL     1      43.806  -7.916   9.135  1.00  0.00     0.019 A 
HETATM   11  S   UNL     1      45.942  -9.257   8.124  1.00  0.00    -0.129 SA
HETATM   12  C   UNL     1      42.460  -7.650   9.374  1.00  0.00     0.001 A 
HETATM   13  C   UNL     1      41.486  -8.436   8.773  1.00  0.00     0.001 A 
HETATM   14  C   UNL     1      45.920 -11.003   7.663  1.00  0.00     0.082 C 
HETATM   15  C   UNL     1      45.055 -11.158   6.427  1.00  0.00     0.048 C 
ENDBRANCH   3   6
ENDBRANCH   2   3
BRANCH   2  16
HETATM   16  C   UNL     1      42.007 -13.197   6.016  1.00  0.00     0.135 C 
BRANCH  16  17
HETATM   17  C   UNL     1      40.699 -13.938   5.890  1.00  0.00     0.224 C 
HETATM   18  N   UNL     1      40.559 -15.075   5.165  1.00  0.00    -0.327 N 
HETATM   19  H   UNL     1      39.592 -15.390   5.171  1.00  0.00     0.169 HD
HETATM   20  O   UNL     1      39.721 -13.521   6.528  1.00  0.00    -0.273 OA
BRANCH  18  21
HETATM   21  C   UNL     1      41.443 -15.926   4.470  1.00  0.00     0.037 A 
HETATM   22  C   UNL     1      42.521 -16.625   5.023  1.00  0.00     0.066 A 
HETATM   23  C   UNL     1      43.301 -17.478   4.229  1.00  0.00     0.070 A 
HETATM   24  C   UNL     1      43.002 -17.633   2.875  1.00  0.00     0.037 A 
HETATM   25  C   UNL     1      41.938 -16.941   2.309  1.00  0.00     0.005 A 
HETATM   26  C   UNL     1      41.165 -16.095   3.104  1.00  0.00     0.029 A 
BRANCH  23  27
HETATM   27  O   UNL     1      44.367 -18.223   4.652  1.00  0.00    -0.356 OA
HETATM   28  C   UNL     1      44.132 -19.574   5.019  1.00  0.00     0.210 C 
ENDBRANCH  23  27
ENDBRANCH  18  21
ENDBRANCH  16  17
ENDBRANCH   2  16
TORSDOF 6
ENDMDL
MODEL 10
REMARK VINA RESULT:      -6.6      2.992      5.708
REMARK  6 active torsions:
REMARK  status: ('A' for Active; 'I' for Inactive)
REMARK    1  A    between atoms: C_2  and  N_3 
REMARK    2  A    between atoms: C_2  and  C_16 
REMARK    3  A    between atoms: N_3  and  C_6 
REMARK    4  A    between atoms: C_16  and  C_17 
REMARK       I    between atoms: C_17  and  N_18 
REMARK    5  A    between atoms: N_18  and  C_19 
REMARK    6  A    between atoms: C_21  and  O_22 
ROOT
HETATM    1  C   UNL     1      41.719 -12.128   6.121  1.00  0.00     0.040 C 
HETATM    2  C   UNL     1      41.223 -13.389   5.428  1.00  0.00     0.191 C 
ENDROOT
BRANCH   2   3
HETATM    3  N   UNL     1      39.744 -13.288   5.104  1.00  0.00    -0.063 N 
HETATM    4  H   UNL     1      39.420 -14.277   5.110  1.00  0.00     0.278 HD
HETATM    5  H   UNL     1      39.234 -12.851   5.881  1.00  0.00     0.278 HD
BRANCH   3   6
HETATM    6  C   UNL     1      39.243 -12.717   3.791  1.00  0.00     0.221 C 
HETATM    7  C   UNL     1      39.732 -13.431   2.552  1.00  0.00    -0.011 A 
HETATM    8  C   UNL     1      40.231 -12.743   1.432  1.00  0.00     0.009 A 
HETATM    9  C   UNL     1      39.607 -14.836   2.469  1.00  0.00     0.011 A 
HETATM   10  C   UNL     1      40.660 -13.456   0.304  1.00  0.00     0.019 A 
HETATM   11  S   UNL     1      40.332 -10.966   1.341  1.00  0.00    -0.129 SA
HETATM   12  C   UNL     1      40.563 -14.844   0.257  1.00  0.00     0.001 A 
HETATM   13  C   UNL     1      40.028 -15.534   1.337  1.00  0.00     0.001 A 
HETATM   14  C   UNL     1      39.051 -10.525   2.536  1.00  0.00     0.082 C 
HETATM   15  C   UNL     1      39.386 -11.188   3.858  1.00  0.00     0.048 C 
ENDBRANCH   3   6
ENDBRANCH   2   3
BRANCH   2  16
HETATM   16  C   UNL     1      41.461 -14.620   6.334  1.00  0.00     0.135 C 
BRANCH  16  17
HETATM   17  C   UNL     1      42.919 -14.769   6.687  1.00  0.00     0.224 C 
HETATM   18  N   UNL     1      43.766 -15.583   6.010  1.00  0.00    -0.327 N 
HETATM   19  H   UNL     1      44.691 -15.576   6.433  1.00  0.00     0.169 HD
HETATM   20  O   UNL     1      43.380 -14.069   7.602  1.00  0.00    -0.273 OA
BRANCH  18  21
HETATM   21  C   UNL     1      43.667 -16.374   4.845  1.00  0.00     0.037 A 
HETATM   22  C   UNL     1      43.849 -17.758   4.771  1.00  0.00     0.066 A 
HETATM   23  C   UNL     1      43.679 -18.436   3.555  1.00  0.00     0.070 A 
HETATM   24  C   UNL     1      43.326 -17.725   2.408  1.00  0.00     0.037 A 
HETATM   25  C   UNL     1      43.146 -16.348   2.464  1.00  0.00     0.005 A 
HETATM   26  C   UNL     1      43.316 -15.680   3.676  1.00  0.00     0.029 A 
BRANCH  23  27
HETATM   27  O   UNL     1      43.814 -19.782   3.356  1.00  0.00    -0.356 OA
HETATM   28  C   UNL     1      43.533 -20.295   2.062  1.00  0.00     0.210 C 
ENDBRANCH  23  27
ENDBRANCH  18  21
ENDBRANCH  16  17
ENDBRANCH   2  16
TORSDOF 6
ENDMDL
