MODEL 1
REMARK VINA RESULT:      -7.9      0.000      0.000
REMARK  6 active torsions:
REMARK  status: ('A' for Active; 'I' for Inactive)
REMARK    1  A    between atoms: N_2  and  C_4 
REMARK    2  A    between atoms: C_4  and  C_5 
REMARK    3  A    between atoms: C_5  and  N_6 
REMARK    4  A    between atoms: C_5  and  C_21 
REMARK       I    between atoms: N_6  and  C_7 
REMARK       I    between atoms: C_7  and  N_8 
REMARK    5  A    between atoms: N_8  and  C_9 
REMARK    6  A    between atoms: C_12  and  C_13 
ROOT
HETATM    1  N   UNL     1      41.982 -15.905   4.493  1.00  0.00    -0.333 N 
HETATM    2  C   UNL     1      40.750 -15.594   4.977  1.00  0.00     0.322 C 
HETATM    3  N   UNL     1      40.021 -14.665   4.309  1.00  0.00    -0.287 N 
HETATM    4  O   UNL     1      40.253 -16.191   5.929  1.00  0.00    -0.247 OA
HETATM    5  H   UNL     1      42.365 -15.212   3.849  1.00  0.00     0.165 HD
HETATM    6  H   UNL     1      39.099 -14.466   4.671  1.00  0.00     0.172 HD
ENDROOT
BRANCH   1   7
HETATM    7  C   UNL     1      42.936 -16.794   5.140  1.00  0.00     0.145 C 
BRANCH   7   8
HETATM    8  C   UNL     1      44.227 -16.133   5.718  1.00  0.00     0.263 C 
BRANCH   8   9
HETATM    9  N   UNL     1      44.018 -15.190   6.906  1.00  0.00    -0.076 N 
HETATM   10  C   UNL     1      43.058 -15.697   7.939  1.00  0.00     0.269 C 
HETATM   11  H   UNL     1      44.938 -15.164   7.364  1.00  0.00     0.279 HD
HETATM   12  C   UNL     1      43.744 -13.764   6.527  1.00  0.00     0.269 C 
ENDBRANCH   8   9
ENDBRANCH   7   8
BRANCH   7  13
HETATM   13  C   UNL     1      43.274 -17.996   4.272  1.00  0.00    -0.034 A 
HETATM   14  C   UNL     1      42.956 -17.979   2.902  1.00  0.00     0.009 A 
HETATM   15  C   UNL     1      43.212 -19.090   2.095  1.00  0.00     0.001 A 
HETATM   16  C   UNL     1      43.797 -20.229   2.640  1.00  0.00     0.000 A 
HETATM   17  C   UNL     1      44.134 -20.257   3.990  1.00  0.00     0.001 A 
HETATM   18  C   UNL     1      43.875 -19.149   4.801  1.00  0.00     0.009 A 
ENDBRANCH   7  13
ENDBRANCH   1   7
BRANCH   3  19
HETATM   19  C   UNL     1      40.388 -14.042   3.151  1.00  0.00     0.175 A 
HETATM   20  S   UNL     1      41.458 -12.734   3.351  1.00  0.00    -0.061 SA
HETATM   21  C   UNL     1      41.372 -12.439   1.661  1.00  0.00     0.086 A 
HETATM   22  C   UNL     1      40.551 -13.381   1.068  1.00  0.00     0.078 A 
HETATM   23  N   UNL     1      39.989 -14.310   1.931  1.00  0.00    -0.223 NA
BRANCH  22  24
HETATM   24  C   UNL     1      40.294 -13.423  -0.356  1.00  0.00     0.011 A 
HETATM   25  C   UNL     1      40.744 -12.420  -1.208  1.00  0.00     0.130 A 
HETATM   26  N   UNL     1      40.532 -12.411  -2.546  1.00  0.00    -0.272 NA
HETATM   27  C   UNL     1      39.854 -13.460  -3.060  1.00  0.00     0.116 A 
HETATM   28  C   UNL     1      39.361 -14.505  -2.295  1.00  0.00     0.020 A 
HETATM   29  C   UNL     1      39.578 -14.480  -0.919  1.00  0.00     0.017 A 
ENDBRANCH  22  24
ENDBRANCH   3  19
TORSDOF 6
ENDMDL
MODEL 2
REMARK VINA RESULT:      -7.9      2.622      6.667
REMARK  6 active torsions:
REMARK  status: ('A' for Active; 'I' for Inactive)
REMARK    1  A    between atoms: N_2  and  C_4 
REMARK    2  A    between atoms: C_4  and  C_5 
REMARK    3  A    between atoms: C_5  and  N_6 
REMARK    4  A    between atoms: C_5  and  C_21 
REMARK       I    between atoms: N_6  and  C_7 
REMARK       I    between atoms: C_7  and  N_8 
REMARK    5  A    between atoms: N_8  and  C_9 
REMARK    6  A    between atoms: C_12  and  C_13 
ROOT
HETATM    1  N   UNL     1      41.748 -13.615   4.536  1.00  0.00    -0.333 N 
HETATM    2  C   UNL     1      42.604 -13.030   5.416  1.00  0.00     0.322 C 
HETATM    3  N   UNL     1      43.344 -13.839   6.215  1.00  0.00    -0.287 N 
HETATM    4  O   UNL     1      42.791 -11.815   5.436  1.00  0.00    -0.247 OA
HETATM    5  H   UNL     1      41.524 -14.585   4.754  1.00  0.00     0.165 HD
HETATM    6  H   UNL     1      43.991 -13.386   6.845  1.00  0.00     0.172 HD
ENDROOT
BRANCH   1   7
HETATM    7  C   UNL     1      40.806 -12.901   3.685  1.00  0.00     0.145 C 
BRANCH   7   8
HETATM    8  C   UNL     1      39.498 -12.389   4.364  1.00  0.00     0.263 C 
BRANCH   8   9
HETATM    9  N   UNL     1      39.613 -11.060   5.115  1.00  0.00    -0.076 N 
HETATM   10  C   UNL     1      39.223 -11.128   6.561  1.00  0.00     0.269 C 
HETATM   11  H   UNL     1      40.620 -10.857   5.103  1.00  0.00     0.279 HD
HETATM   12  C   UNL     1      38.983  -9.893   4.412  1.00  0.00     0.269 C 
ENDBRANCH   8   9
ENDBRANCH   7   8
BRANCH   7  13
HETATM   13  C   UNL     1      40.500 -13.669   2.407  1.00  0.00    -0.034 A 
HETATM   14  C   UNL     1      40.428 -12.983   1.181  1.00  0.00     0.009 A 
HETATM   15  C   UNL     1      40.101 -13.657   0.003  1.00  0.00     0.001 A 
HETATM   16  C   UNL     1      39.850 -15.027   0.029  1.00  0.00     0.000 A 
HETATM   17  C   UNL     1      39.934 -15.724   1.230  1.00  0.00     0.001 A 
HETATM   18  C   UNL     1      40.257 -15.051   2.411  1.00  0.00     0.009 A 
ENDBRANCH   7  13
ENDBRANCH   1   7
BRANCH   3  19
HETATM   19  C   UNL     1      43.350 -15.204   6.185  1.00  0.00     0.175 A 
HETATM   20  S   UNL     1      43.224 -15.953   7.708  1.00  0.00    -0.061 SA
HETATM   21  C   UNL     1      43.393 -17.481   6.942  1.00  0.00     0.086 A 
HETATM   22  C   UNL     1      43.508 -17.303   5.576  1.00  0.00     0.078 A 
HETATM   23  N   UNL     1      43.476 -15.986   5.141  1.00  0.00    -0.223 NA
BRANCH  22  24
HETATM   24  C   UNL     1      43.637 -18.402   4.643  1.00  0.00     0.011 A 
HETATM   25  C   UNL     1      43.989 -19.680   5.064  1.00  0.00     0.130 A 
HETATM   26  N   UNL     1      44.122 -20.742   4.235  1.00  0.00    -0.272 NA
HETATM   27  C   UNL     1      43.878 -20.523   2.924  1.00  0.00     0.116 A 
HETATM   28  C   UNL     1      43.525 -19.287   2.405  1.00  0.00     0.020 A 
HETATM   29  C   UNL     1      43.413 -18.208   3.279  1.00  0.00     0.017 A 
ENDBRANCH  22  24
ENDBRANCH   3  19
TORSDOF 6
ENDMDL
MODEL 3
REMARK VINA RESULT:      -7.8      2.669      6.343
REMARK  6 active torsions:
REMARK  status: ('A' for Active; 'I' for Inactive)
REMARK    1  A    between atoms: N_2  and  C_4 
REMARK    2  A    between atoms: C_4  and  C_5 
REMARK    3  A    between atoms: C_5  and  N_6 
REMARK    4  A    between atoms: C_5  and  C_21 
REMARK       I    between atoms: N_6  and  C_7 
REMARK       I    between atoms: C_7  and  N_8 
REMARK    5  A    between atoms: N_8  and  C_9 
REMARK    6  A    between atoms: C_12  and  C_13 
ROOT
HETATM    1  N   UNL     1      42.022 -14.511   3.641  1.00  0.00    -0.333 N 
HETATM    2  C   UNL     1      40.835 -14.912   4.169  1.00  0.00     0.322 C 
HETATM    3  N   UNL     1      40.316 -14.183   5.189  1.00  0.00    -0.287 N 
HETATM    4  O   UNL     1      40.188 -15.841   3.691  1.00  0.00    -0.247 OA
HETATM    5  H   UNL     1      42.555 -13.882   4.241  1.00  0.00     0.165 HD
HETATM    6  H   UNL     1      39.422 -14.484   5.552  1.00  0.00     0.172 HD
ENDROOT
BRANCH   1   7
HETATM    7  C   UNL     1      42.771 -15.233   2.622  1.00  0.00     0.145 C 
BRANCH   7   8
HETATM    8  C   UNL     1      42.126 -15.309   1.202  1.00  0.00     0.263 C 
BRANCH   8   9
HETATM    9  N   UNL     1      40.920 -14.395   0.969  1.00  0.00    -0.076 N 
HETATM   10  C   UNL     1      39.894 -14.949   0.027  1.00  0.00     0.269 C 
HETATM   11  H   UNL     1      40.464 -14.349   1.889  1.00  0.00     0.279 HD
HETATM   12  C   UNL     1      41.272 -12.971   0.651  1.00  0.00     0.269 C 
ENDBRANCH   8   9
ENDBRANCH   7   8
BRANCH   7  13
HETATM   13  C   UNL     1      43.208 -16.608   3.103  1.00  0.00    -0.034 A 
HETATM   14  C   UNL     1      43.761 -16.755   4.388  1.00  0.00     0.009 A 
HETATM   15  C   UNL     1      44.213 -17.999   4.833  1.00  0.00     0.001 A 
HETATM   16  C   UNL     1      44.112 -19.115   4.008  1.00  0.00     0.000 A 
HETATM   17  C   UNL     1      43.553 -18.991   2.740  1.00  0.00     0.001 A 
HETATM   18  C   UNL     1      43.103 -17.747   2.290  1.00  0.00     0.009 A 
ENDBRANCH   7  13
ENDBRANCH   1   7
BRANCH   3  19
HETATM   19  C   UNL     1      40.851 -13.040   5.709  1.00  0.00     0.175 A 
HETATM   20  S   UNL     1      39.761 -11.740   5.848  1.00  0.00    -0.061 SA
HETATM   21  C   UNL     1      41.051 -10.754   6.409  1.00  0.00     0.086 A 
HETATM   22  C   UNL     1      42.212 -11.502   6.472  1.00  0.00     0.078 A 
HETATM   23  N   UNL     1      42.092 -12.825   6.072  1.00  0.00    -0.223 NA
BRANCH  22  24
HETATM   24  C   UNL     1      43.475 -10.966   6.934  1.00  0.00     0.011 A 
HETATM   25  C   UNL     1      43.535  -9.841   7.750  1.00  0.00     0.130 A 
HETATM   26  N   UNL     1      44.688  -9.301   8.211  1.00  0.00    -0.272 NA
HETATM   27  C   UNL     1      45.835  -9.919   7.854  1.00  0.00     0.116 A 
HETATM   28  C   UNL     1      45.880 -11.041   7.042  1.00  0.00     0.020 A 
HETATM   29  C   UNL     1      44.680 -11.566   6.567  1.00  0.00     0.017 A 
ENDBRANCH  22  24
ENDBRANCH   3  19
TORSDOF 6
ENDMDL
MODEL 4
REMARK VINA RESULT:      -7.6      3.463      6.957
REMARK  6 active torsions:
REMARK  status: ('A' for Active; 'I' for Inactive)
REMARK    1  A    between atoms: N_2  and  C_4 
REMARK    2  A    between atoms: C_4  and  C_5 
REMARK    3  A    between atoms: C_5  and  N_6 
REMARK    4  A    between atoms: C_5  and  C_21 
REMARK       I    between atoms: N_6  and  C_7 
REMARK       I    between atoms: C_7  and  N_8 
REMARK    5  A    between atoms: N_8  and  C_9 
REMARK    6  A    between atoms: C_12  and  C_13 
ROOT
HETATM    1  N   UNL     1      41.138 -11.895   5.843  1.00  0.00    -0.333 N 
HETATM    2  C   UNL     1      39.835 -12.269   5.735  1.00  0.00     0.322 C 
HETATM    3  N   UNL     1      39.532 -13.272   4.874  1.00  0.00    -0.287 N 
HETATM    4  O   UNL     1      38.958 -11.796   6.454  1.00  0.00    -0.247 OA
HETATM    5  H   UNL     1      41.725 -12.196   5.065  1.00  0.00     0.165 HD
HETATM    6  H   UNL     1      38.562 -13.551   4.825  1.00  0.00     0.172 HD
ENDROOT
BRANCH   1   7
HETATM    7  C   UNL     1      41.624 -10.773   6.634  1.00  0.00     0.145 C 
BRANCH   7   8
HETATM    8  C   UNL     1      41.203  -9.347   6.157  1.00  0.00     0.263 C 
BRANCH   8   9
HETATM    9  N   UNL     1      39.955  -8.763   6.826  1.00  0.00    -0.076 N 
HETATM   10  C   UNL     1      39.636  -7.355   6.422  1.00  0.00     0.269 C 
HETATM   11  H   UNL     1      39.187  -9.342   6.463  1.00  0.00     0.279 HD
HETATM   12  C   UNL     1      39.902  -8.952   8.314  1.00  0.00     0.269 C 
ENDBRANCH   8   9
ENDBRANCH   7   8
BRANCH   7  13
HETATM   13  C   UNL     1      43.124 -10.853   6.873  1.00  0.00    -0.034 A 
HETATM   14  C   UNL     1      43.681 -10.252   8.017  1.00  0.00     0.009 A 
HETATM   15  C   UNL     1      45.061 -10.270   8.233  1.00  0.00     0.001 A 
HETATM   16  C   UNL     1      45.903 -10.895   7.318  1.00  0.00     0.000 A 
HETATM   17  C   UNL     1      45.367 -11.509   6.190  1.00  0.00     0.001 A 
HETATM   18  C   UNL     1      43.988 -11.489   5.968  1.00  0.00     0.009 A 
ENDBRANCH   7  13
ENDBRANCH   1   7
BRANCH   3  19
HETATM   19  C   UNL     1      40.428 -13.989   4.133  1.00  0.00     0.175 A 
HETATM   20  S   UNL     1      40.621 -13.452   2.530  1.00  0.00    -0.061 SA
HETATM   21  C   UNL     1      41.694 -14.763   2.248  1.00  0.00     0.086 A 
HETATM   22  C   UNL     1      41.843 -15.498   3.410  1.00  0.00     0.078 A 
HETATM   23  N   UNL     1      41.115 -15.043   4.500  1.00  0.00    -0.223 NA
BRANCH  22  24
HETATM   24  C   UNL     1      42.706 -16.655   3.510  1.00  0.00     0.011 A 
HETATM   25  C   UNL     1      43.570 -16.830   4.586  1.00  0.00     0.130 A 
HETATM   26  N   UNL     1      44.397 -17.893   4.729  1.00  0.00    -0.272 NA
HETATM   27  C   UNL     1      44.349 -18.834   3.761  1.00  0.00     0.116 A 
HETATM   28  C   UNL     1      43.526 -18.750   2.649  1.00  0.00     0.020 A 
HETATM   29  C   UNL     1      42.699 -17.637   2.519  1.00  0.00     0.017 A 
ENDBRANCH  22  24
ENDBRANCH   3  19
TORSDOF 6
ENDMDL
MODEL 5
REMARK VINA RESULT:      -7.5      1.737      2.184
REMARK  6 active torsions:
REMARK  status: ('A' for Active; 'I' for Inactive)
REMARK    1  A    between atoms: N_2  and  C_4 
REMARK    2  A    between atoms: C_4  and  C_5 
REMARK    3  A    between atoms: C_5  and  N_6 
REMARK    4  A    between atoms: C_5  and  C_21 
REMARK       I    between atoms: N_6  and  C_7 
REMARK       I    between atoms: C_7  and  N_8 
REMARK    5  A    between atoms: N_8  and  C_9 
REMARK    6  A    between atoms: C_12  and  C_13 
ROOT
HETATM    1  N   UNL     1      41.333 -14.100   4.796  1.00  0.00    -0.333 N 
HETATM    2  C   UNL     1      40.188 -13.714   5.419  1.00  0.00     0.322 C 
HETATM    3  N   UNL     1      39.340 -12.900   4.742  1.00  0.00    -0.287 N 
HETATM    4  O   UNL     1      39.864 -14.153   6.520  1.00  0.00    -0.247 OA
HETATM    5  H   UNL     1      41.592 -13.518   3.999  1.00  0.00     0.165 HD
HETATM    6  H   UNL     1      38.483 -12.644   5.213  1.00  0.00     0.172 HD
ENDROOT
BRANCH   1   7
HETATM    7  C   UNL     1      42.399 -14.878   5.411  1.00  0.00     0.145 C 
BRANCH   7   8
HETATM    8  C   UNL     1      43.619 -14.077   5.966  1.00  0.00     0.263 C 
BRANCH   8   9
HETATM    9  N   UNL     1      43.419 -12.565   6.096  1.00  0.00    -0.076 N 
HETATM   10  C   UNL     1      43.851 -11.776   4.897  1.00  0.00     0.269 C 
HETATM   11  H   UNL     1      42.399 -12.455   6.154  1.00  0.00     0.279 HD
HETATM   12  C   UNL     1      43.936 -11.978   7.377  1.00  0.00     0.269 C 
ENDBRANCH   8   9
ENDBRANCH   7   8
BRANCH   7  13
HETATM   13  C   UNL     1      42.853 -16.025   4.520  1.00  0.00    -0.034 A 
HETATM   14  C   UNL     1      42.373 -16.116   3.201  1.00  0.00     0.009 A 
HETATM   15  C   UNL     1      42.736 -17.187   2.381  1.00  0.00     0.001 A 
HETATM   16  C   UNL     1      43.591 -18.176   2.861  1.00  0.00     0.000 A 
HETATM   17  C   UNL     1      44.088 -18.092   4.158  1.00  0.00     0.001 A 
HETATM   18  C   UNL     1      43.723 -17.025   4.982  1.00  0.00     0.009 A 
ENDBRANCH   7  13
ENDBRANCH   1   7
BRANCH   3  19
HETATM   19  C   UNL     1      39.502 -12.467   3.457  1.00  0.00     0.175 A 
HETATM   20  S   UNL     1      40.035 -10.858   3.307  1.00  0.00    -0.061 SA
HETATM   21  C   UNL     1      39.908 -11.003   1.600  1.00  0.00     0.086 A 
HETATM   22  C   UNL     1      39.490 -12.280   1.274  1.00  0.00     0.078 A 
HETATM   23  N   UNL     1      39.263 -13.126   2.349  1.00  0.00    -0.223 NA
BRANCH  22  24
HETATM   24  C   UNL     1      39.311 -12.730  -0.090  1.00  0.00     0.011 A 
HETATM   25  C   UNL     1      40.215 -13.594  -0.698  1.00  0.00     0.130 A 
HETATM   26  N   UNL     1      40.095 -14.046  -1.969  1.00  0.00    -0.272 NA
HETATM   27  C   UNL     1      39.013 -13.629  -2.662  1.00  0.00     0.116 A 
HETATM   28  C   UNL     1      38.058 -12.766  -2.148  1.00  0.00     0.020 A 
HETATM   29  C   UNL     1      38.216 -12.303  -0.843  1.00  0.00     0.017 A 
ENDBRANCH  22  24
ENDBRANCH   3  19
TORSDOF 6
ENDMDL
MODEL 6
REMARK VINA RESULT:      -7.5      2.226      7.811
REMARK  6 active torsions:
REMARK  status: ('A' for Active; 'I' for Inactive)
REMARK    1  A    between atoms: N_2  and  C_4 
REMARK    2  A    between atoms: C_4  and  C_5 
REMARK    3  A    between atoms: C_5  and  N_6 
REMARK    4  A    between atoms: C_5  and  C_21 
REMARK       I    between atoms: N_6  and  C_7 
REMARK       I    between atoms: C_7  and  N_8 
REMARK    5  A    between atoms: N_8  and  C_9 
REMARK    6  A    between atoms: C_12  and  C_13 
ROOT
HETATM    1  N   UNL     1      39.918 -13.076   1.460  1.00  0.00    -0.333 N 
HETATM    2  C   UNL     1      39.097 -12.832   2.515  1.00  0.00     0.322 C 
HETATM    3  N   UNL     1      39.439 -13.355   3.719  1.00  0.00    -0.287 N 
HETATM    4  O   UNL     1      38.125 -12.085   2.427  1.00  0.00    -0.247 OA
HETATM    5  H   UNL     1      40.553 -13.862   1.597  1.00  0.00     0.165 HD
HETATM    6  H   UNL     1      38.828 -13.143   4.496  1.00  0.00     0.172 HD
ENDROOT
BRANCH   1   7
HETATM    7  C   UNL     1      39.650 -12.686   0.082  1.00  0.00     0.145 C 
BRANCH   7   8
HETATM    8  C   UNL     1      39.761 -13.807  -0.997  1.00  0.00     0.263 C 
BRANCH   8   9
HETATM    9  N   UNL     1      38.457 -14.180  -1.708  1.00  0.00    -0.076 N 
HETATM   10  C   UNL     1      38.626 -15.121  -2.862  1.00  0.00     0.269 C 
HETATM   11  H   UNL     1      37.928 -14.699  -0.995  1.00  0.00     0.279 HD
HETATM   12  C   UNL     1      37.581 -13.011  -2.052  1.00  0.00     0.269 C 
ENDBRANCH   8   9
ENDBRANCH   7   8
BRANCH   7  13
HETATM   13  C   UNL     1      40.440 -11.450  -0.323  1.00  0.00    -0.034 A 
HETATM   14  C   UNL     1      40.815 -11.272  -1.667  1.00  0.00     0.009 A 
HETATM   15  C   UNL     1      41.582 -10.171  -2.054  1.00  0.00     0.001 A 
HETATM   16  C   UNL     1      41.978  -9.228  -1.109  1.00  0.00     0.000 A 
HETATM   17  C   UNL     1      41.601  -9.380   0.222  1.00  0.00     0.001 A 
HETATM   18  C   UNL     1      40.837 -10.483   0.613  1.00  0.00     0.009 A 
ENDBRANCH   7  13
ENDBRANCH   1   7
BRANCH   3  19
HETATM   19  C   UNL     1      40.571 -14.068   3.990  1.00  0.00     0.175 A 
HETATM   20  S   UNL     1      41.695 -13.272   4.989  1.00  0.00    -0.061 SA
HETATM   21  C   UNL     1      42.765 -14.603   4.802  1.00  0.00     0.086 A 
HETATM   22  C   UNL     1      42.170 -15.567   4.009  1.00  0.00     0.078 A 
HETATM   23  N   UNL     1      40.899 -15.257   3.547  1.00  0.00    -0.223 NA
BRANCH  22  24
HETATM   24  C   UNL     1      42.804 -16.826   3.684  1.00  0.00     0.011 A 
HETATM   25  C   UNL     1      42.468 -17.539   2.538  1.00  0.00     0.130 A 
HETATM   26  N   UNL     1      43.031 -18.720   2.187  1.00  0.00    -0.272 NA
HETATM   27  C   UNL     1      43.985 -19.206   3.009  1.00  0.00     0.116 A 
HETATM   28  C   UNL     1      44.388 -18.574   4.175  1.00  0.00     0.020 A 
HETATM   29  C   UNL     1      43.780 -17.369   4.521  1.00  0.00     0.017 A 
ENDBRANCH  22  24
ENDBRANCH   3  19
TORSDOF 6
ENDMDL
MODEL 7
REMARK VINA RESULT:      -7.5      2.321      7.456
REMARK  6 active torsions:
REMARK  status: ('A' for Active; 'I' for Inactive)
REMARK    1  A    between atoms: N_2  and  C_4 
REMARK    2  A    between atoms: C_4  and  C_5 
REMARK    3  A    between atoms: C_5  and  N_6 
REMARK    4  A    between atoms: C_5  and  C_21 
REMARK       I    between atoms: N_6  and  C_7 
REMARK       I    between atoms: C_7  and  N_8 
REMARK    5  A    between atoms: N_8  and  C_9 
REMARK    6  A    between atoms: C_12  and  C_13 
ROOT
HETATM    1  N   UNL     1      40.272 -12.758   1.402  1.00  0.00    -0.333 N 
HETATM    2  C   UNL     1      39.220 -12.782   2.261  1.00  0.00     0.322 C 
HETATM    3  N   UNL     1      39.336 -13.530   3.387  1.00  0.00    -0.287 N 
HETATM    4  O   UNL     1      38.224 -12.080   2.095  1.00  0.00    -0.247 OA
HETATM    5  H   UNL     1      40.933 -13.524   1.529  1.00  0.00     0.165 HD
HETATM    6  H   UNL     1      38.552 -13.516   4.025  1.00  0.00     0.172 HD
ENDROOT
BRANCH   1   7
HETATM    7  C   UNL     1      40.278 -12.099   0.103  1.00  0.00     0.145 C 
BRANCH   7   8
HETATM    8  C   UNL     1      39.970 -10.569   0.094  1.00  0.00     0.263 C 
BRANCH   8   9
HETATM    9  N   UNL     1      41.179  -9.647  -0.083  1.00  0.00    -0.076 N 
HETATM   10  C   UNL     1      40.936  -8.221   0.310  1.00  0.00     0.269 C 
HETATM   11  H   UNL     1      41.867 -10.011   0.588  1.00  0.00     0.279 HD
HETATM   12  C   UNL     1      41.856  -9.760  -1.418  1.00  0.00     0.269 C 
ENDBRANCH   8   9
ENDBRANCH   7   8
BRANCH   7  13
HETATM   13  C   UNL     1      39.423 -12.840  -0.915  1.00  0.00    -0.034 A 
HETATM   14  C   UNL     1      39.773 -14.146  -1.302  1.00  0.00     0.009 A 
HETATM   15  C   UNL     1      39.032 -14.827  -2.270  1.00  0.00     0.001 A 
HETATM   16  C   UNL     1      37.926 -14.219  -2.858  1.00  0.00     0.000 A 
HETATM   17  C   UNL     1      37.556 -12.934  -2.475  1.00  0.00     0.001 A 
HETATM   18  C   UNL     1      38.298 -12.248  -1.510  1.00  0.00     0.009 A 
ENDBRANCH   7  13
ENDBRANCH   1   7
BRANCH   3  19
HETATM   19  C   UNL     1      40.444 -14.230   3.772  1.00  0.00     0.175 A 
HETATM   20  S   UNL     1      41.434 -13.433   4.903  1.00  0.00    -0.061 SA
HETATM   21  C   UNL     1      42.542 -14.743   4.817  1.00  0.00     0.086 A 
HETATM   22  C   UNL     1      42.057 -15.702   3.947  1.00  0.00     0.078 A 
HETATM   23  N   UNL     1      40.841 -15.405   3.350  1.00  0.00    -0.223 NA
BRANCH  22  24
HETATM   24  C   UNL     1      42.746 -16.945   3.676  1.00  0.00     0.011 A 
HETATM   25  C   UNL     1      43.642 -17.497   4.586  1.00  0.00     0.130 A 
HETATM   26  N   UNL     1      44.311 -18.657   4.383  1.00  0.00    -0.272 NA
HETATM   27  C   UNL     1      44.065 -19.305   3.223  1.00  0.00     0.116 A 
HETATM   28  C   UNL     1      43.194 -18.837   2.252  1.00  0.00     0.020 A 
HETATM   29  C   UNL     1      42.532 -17.632   2.480  1.00  0.00     0.017 A 
ENDBRANCH  22  24
ENDBRANCH   3  19
TORSDOF 6
ENDMDL
MODEL 8
REMARK VINA RESULT:      -7.4      4.006      7.916
REMARK  6 active torsions:
REMARK  status: ('A' for Active; 'I' for Inactive)
REMARK    1  A    between atoms: N_2  and  C_4 
REMARK    2  A    between atoms: C_4  and  C_5 
REMARK    3  A    between atoms: C_5  and  N_6 
REMARK    4  A    between atoms: C_5  and  C_21 
REMARK       I    between atoms: N_6  and  C_7 
REMARK       I    between atoms: C_7  and  N_8 
REMARK    5  A    between atoms: N_8  and  C_9 
REMARK    6  A    between atoms: C_12  and  C_13 
ROOT
HETATM    1  N   UNL     1      42.741 -13.186   5.432  1.00  0.00    -0.333 N 
HETATM    2  C   UNL     1      43.335 -12.382   4.511  1.00  0.00     0.322 C 
HETATM    3  N   UNL     1      44.057 -11.325   4.962  1.00  0.00    -0.287 N 
HETATM    4  O   UNL     1      43.315 -12.639   3.309  1.00  0.00    -0.247 OA
HETATM    5  H   UNL     1      42.646 -12.765   6.355  1.00  0.00     0.165 HD
HETATM    6  H   UNL     1      44.510 -10.753   4.263  1.00  0.00     0.172 HD
ENDROOT
BRANCH   1   7
HETATM    7  C   UNL     1      41.847 -14.294   5.123  1.00  0.00     0.145 C 
BRANCH   7   8
HETATM    8  C   UNL     1      40.435 -14.259   5.786  1.00  0.00     0.263 C 
BRANCH   8   9
HETATM    9  N   UNL     1      39.466 -13.209   5.234  1.00  0.00    -0.076 N 
HETATM   10  C   UNL     1      39.597 -12.956   3.763  1.00  0.00     0.269 C 
HETATM   11  H   UNL     1      38.540 -13.635   5.366  1.00  0.00     0.279 HD
HETATM   12  C   UNL     1      39.413 -11.935   6.026  1.00  0.00     0.269 C 
ENDBRANCH   8   9
ENDBRANCH   7   8
BRANCH   7  13
HETATM   13  C   UNL     1      42.520 -15.643   5.330  1.00  0.00    -0.034 A 
HETATM   14  C   UNL     1      42.482 -16.254   6.596  1.00  0.00     0.009 A 
HETATM   15  C   UNL     1      43.133 -17.469   6.823  1.00  0.00     0.001 A 
HETATM   16  C   UNL     1      43.824 -18.095   5.789  1.00  0.00     0.000 A 
HETATM   17  C   UNL     1      43.858 -17.512   4.526  1.00  0.00     0.001 A 
HETATM   18  C   UNL     1      43.210 -16.295   4.297  1.00  0.00     0.009 A 
ENDBRANCH   7  13
ENDBRANCH   1   7
BRANCH   3  19
HETATM   19  C   UNL     1      44.291 -11.017   6.272  1.00  0.00     0.175 A 
HETATM   20  S   UNL     1      45.921 -11.126   6.751  1.00  0.00    -0.061 SA
HETATM   21  C   UNL     1      45.447 -10.743   8.357  1.00  0.00     0.086 A 
HETATM   22  C   UNL     1      44.080 -10.537   8.399  1.00  0.00     0.078 A 
HETATM   23  N   UNL     1      43.416 -10.690   7.191  1.00  0.00    -0.223 NA
BRANCH  22  24
HETATM   24  C   UNL     1      43.372 -10.170   9.607  1.00  0.00     0.011 A 
HETATM   25  C   UNL     1      43.754 -10.656  10.853  1.00  0.00     0.130 A 
HETATM   26  N   UNL     1      43.129 -10.343  12.013  1.00  0.00    -0.272 NA
HETATM   27  C   UNL     1      42.081  -9.494  11.928  1.00  0.00     0.116 A 
HETATM   28  C   UNL     1      41.621  -8.959  10.736  1.00  0.00     0.020 A 
HETATM   29  C   UNL     1      42.273  -9.311   9.556  1.00  0.00     0.017 A 
ENDBRANCH  22  24
ENDBRANCH   3  19
TORSDOF 6
ENDMDL
MODEL 9
REMARK VINA RESULT:      -7.1      3.036      4.357
REMARK  6 active torsions:
REMARK  status: ('A' for Active; 'I' for Inactive)
REMARK    1  A    between atoms: N_2  and  C_4 
REMARK    2  A    between atoms: C_4  and  C_5 
REMARK    3  A    between atoms: C_5  and  N_6 
REMARK    4  A    between atoms: C_5  and  C_21 
REMARK       I    between atoms: N_6  and  C_7 
REMARK       I    between atoms: C_7  and  N_8 
REMARK    5  A    between atoms: N_8  and  C_9 
REMARK    6  A    between atoms: C_12  and  C_13 
ROOT
HETATM    1  N   UNL     1      41.385 -13.181   1.832  1.00  0.00    -0.333 N 
HETATM    2  C   UNL     1      40.060 -13.482   1.822  1.00  0.00     0.322 C 
HETATM    3  N   UNL     1      39.333 -13.112   0.738  1.00  0.00    -0.287 N 
HETATM    4  O   UNL     1      39.535 -14.151   2.710  1.00  0.00    -0.247 OA
HETATM    5  H   UNL     1      41.655 -12.457   1.167  1.00  0.00     0.165 HD
HETATM    6  H   UNL     1      38.355 -13.365   0.739  1.00  0.00     0.172 HD
ENDROOT
BRANCH   1   7
HETATM    7  C   UNL     1      42.286 -13.406   2.954  1.00  0.00     0.145 C 
BRANCH   7   8
HETATM    8  C   UNL     1      43.504 -12.437   3.079  1.00  0.00     0.263 C 
BRANCH   8   9
HETATM    9  N   UNL     1      43.425 -11.411   4.213  1.00  0.00    -0.076 N 
HETATM   10  C   UNL     1      43.633 -11.983   5.583  1.00  0.00     0.269 C 
HETATM   11  H   UNL     1      44.226 -10.791   4.041  1.00  0.00     0.279 HD
HETATM   12  C   UNL     1      42.228 -10.508   4.152  1.00  0.00     0.269 C 
ENDBRANCH   8   9
ENDBRANCH   7   8
BRANCH   7  13
HETATM   13  C   UNL     1      42.727 -14.859   3.048  1.00  0.00    -0.034 A 
HETATM   14  C   UNL     1      42.980 -15.589   1.872  1.00  0.00     0.009 A 
HETATM   15  C   UNL     1      43.339 -16.937   1.931  1.00  0.00     0.001 A 
HETATM   16  C   UNL     1      43.458 -17.575   3.163  1.00  0.00     0.000 A 
HETATM   17  C   UNL     1      43.227 -16.864   4.337  1.00  0.00     0.001 A 
HETATM   18  C   UNL     1      42.865 -15.515   4.281  1.00  0.00     0.009 A 
ENDBRANCH   7  13
ENDBRANCH   1   7
BRANCH   3  19
HETATM   19  C   UNL     1      39.822 -12.506  -0.384  1.00  0.00     0.175 A 
HETATM   20  S   UNL     1      39.858 -13.492  -1.770  1.00  0.00    -0.061 SA
HETATM   21  C   UNL     1      40.608 -12.208  -2.631  1.00  0.00     0.086 A 
HETATM   22  C   UNL     1      40.751 -11.114  -1.798  1.00  0.00     0.078 A 
HETATM   23  N   UNL     1      40.289 -11.287  -0.501  1.00  0.00    -0.223 NA
BRANCH  22  24
HETATM   24  C   UNL     1      41.325  -9.858  -2.232  1.00  0.00     0.011 A 
HETATM   25  C   UNL     1      41.001  -9.293  -3.461  1.00  0.00     0.130 A 
HETATM   26  N   UNL     1      41.507  -8.122  -3.914  1.00  0.00    -0.272 NA
HETATM   27  C   UNL     1      42.367  -7.475  -3.097  1.00  0.00     0.116 A 
HETATM   28  C   UNL     1      42.757  -7.957  -1.857  1.00  0.00     0.020 A 
HETATM   29  C   UNL     1      42.233  -9.173  -1.423  1.00  0.00     0.017 A 
ENDBRANCH  22  24
ENDBRANCH   3  19
TORSDOF 6
ENDMDL
MODEL 10
REMARK VINA RESULT:      -7.1      2.843      7.637
REMARK  6 active torsions:
REMARK  status: ('A' for Active; 'I' for Inactive)
REMARK    1  A    between atoms: N_2  and  C_4 
REMARK    2  A    between atoms: C_4  and  C_5 
REMARK    3  A    between atoms: C_5  and  N_6 
REMARK    4  A    between atoms: C_5  and  C_21 
REMARK       I    between atoms: N_6  and  C_7 
REMARK       I    between atoms: C_7  and  N_8 
REMARK    5  A    between atoms: N_8  and  C_9 
REMARK    6  A    between atoms: C_12  and  C_13 
ROOT
HETATM    1  N   UNL     1      40.215 -12.271   1.002  1.00  0.00    -0.333 N 
HETATM    2  C   UNL     1      41.323 -11.545   1.304  1.00  0.00     0.322 C 
HETATM    3  N   UNL     1      42.194 -12.062   2.208  1.00  0.00    -0.287 N 
HETATM    4  O   UNL     1      41.599 -10.500   0.719  1.00  0.00    -0.247 OA
HETATM    5  H   UNL     1      39.988 -12.992   1.687  1.00  0.00     0.165 HD
HETATM    6  H   UNL     1      43.023 -11.518   2.401  1.00  0.00     0.172 HD
ENDROOT
BRANCH   1   7
HETATM    7  C   UNL     1      39.129 -11.823   0.142  1.00  0.00     0.145 C 
BRANCH   7   8
HETATM    8  C   UNL     1      37.789 -11.441   0.846  1.00  0.00     0.263 C 
BRANCH   8   9
HETATM    9  N   UNL     1      37.531  -9.941   1.018  1.00  0.00    -0.076 N 
HETATM   10  C   UNL     1      37.600  -9.150  -0.253  1.00  0.00     0.269 C 
HETATM   11  H   UNL     1      36.553  -9.894   1.328  1.00  0.00     0.279 HD
HETATM   12  C   UNL     1      38.311  -9.300   2.129  1.00  0.00     0.269 C 
ENDBRANCH   8   9
ENDBRANCH   7   8
BRANCH   7  13
HETATM   13  C   UNL     1      38.889 -12.779  -1.017  1.00  0.00    -0.034 A 
HETATM   14  C   UNL     1      37.728 -12.648  -1.801  1.00  0.00     0.009 A 
HETATM   15  C   UNL     1      37.462 -13.544  -2.838  1.00  0.00     0.001 A 
HETATM   16  C   UNL     1      38.353 -14.578  -3.115  1.00  0.00     0.000 A 
HETATM   17  C   UNL     1      39.514 -14.712  -2.360  1.00  0.00     0.001 A 
HETATM   18  C   UNL     1      39.781 -13.819  -1.318  1.00  0.00     0.009 A 
ENDBRANCH   7  13
ENDBRANCH   1   7
BRANCH   3  19
HETATM   19  C   UNL     1      42.090 -13.282   2.812  1.00  0.00     0.175 A 
HETATM   20  S   UNL     1      41.010 -13.337   4.127  1.00  0.00    -0.061 SA
HETATM   21  C   UNL     1      41.459 -14.974   4.392  1.00  0.00     0.086 A 
HETATM   22  C   UNL     1      42.383 -15.360   3.439  1.00  0.00     0.078 A 
HETATM   23  N   UNL     1      42.740 -14.382   2.523  1.00  0.00    -0.223 NA
BRANCH  22  24
HETATM   24  C   UNL     1      42.941 -16.694   3.372  1.00  0.00     0.011 A 
HETATM   25  C   UNL     1      43.827 -17.165   4.336  1.00  0.00     0.130 A 
HETATM   26  N   UNL     1      44.375 -18.403   4.322  1.00  0.00    -0.272 NA
HETATM   27  C   UNL     1      44.011 -19.216   3.307  1.00  0.00     0.116 A 
HETATM   28  C   UNL     1      43.140 -18.841   2.297  1.00  0.00     0.020 A 
HETATM   29  C   UNL     1      42.603 -17.556   2.327  1.00  0.00     0.017 A 
ENDBRANCH  22  24
ENDBRANCH   3  19
TORSDOF 6
ENDMDL
