MODEL 1
REMARK VINA RESULT:      -9.0      0.000      0.000
REMARK  6 active torsions:
REMARK  status: ('A' for Active; 'I' for Inactive)
REMARK    1  A    between atoms: C_4  and  C_5 
REMARK    2  A    between atoms: C_6  and  O_7 
REMARK    3  A    between atoms: O_7  and  C_8 
REMARK    4  A    between atoms: C_8  and  C_9 
REMARK       I    between atoms: C_9  and  N_10 
REMARK    5  A    between atoms: N_10  and  N_11 
REMARK       I    between atoms: N_11  and  C_12 
REMARK    6  A    between atoms: C_12  and  C_13 
ROOT
HETATM    1  C   UNL     1      43.536 -16.892   7.256  1.00  0.00     0.260 C 
HETATM    2  N   UNL     1      42.732 -15.928   7.815  1.00  0.00    -0.265 N 
HETATM    3  O   UNL     1      43.544 -18.033   7.722  1.00  0.00    -0.269 OA
HETATM    4  H   UNL     1      42.065 -16.274   8.506  1.00  0.00     0.190 HD
ENDROOT
BRANCH   1   5
HETATM    5  C   UNL     1      44.425 -16.496   6.078  1.00  0.00     0.280 C 
BRANCH   5   6
HETATM    6  O   UNL     1      43.690 -16.319   4.869  1.00  0.00    -0.341 OA
BRANCH   6   7
HETATM    7  C   UNL     1      43.625 -17.450   4.089  1.00  0.00     0.080 A 
HETATM    8  C   UNL     1      42.823 -17.426   2.928  1.00  0.00     0.007 A 
HETATM    9  C   UNL     1      42.793 -18.585   2.124  1.00  0.00     0.015 A 
HETATM   10  C   UNL     1      43.546 -19.715   2.444  1.00  0.00     0.001 A 
HETATM   11  C   UNL     1      44.358 -19.708   3.572  1.00  0.00     0.003 A 
HETATM   12  C   UNL     1      44.404 -18.578   4.388  1.00  0.00     0.037 A 
BRANCH   8  13
HETATM   13  C   UNL     1      42.015 -16.256   2.531  1.00  0.00    -0.023 A 
HETATM   14  C   UNL     1      42.533 -15.296   1.644  1.00  0.00     0.012 A 
HETATM   15  C   UNL     1      41.764 -14.206   1.230  1.00  0.00     0.001 A 
HETATM   16  C   UNL     1      40.462 -14.054   1.699  1.00  0.00     0.000 A 
HETATM   17  C   UNL     1      39.930 -14.992   2.581  1.00  0.00     0.001 A 
HETATM   18  C   UNL     1      40.700 -16.085   2.990  1.00  0.00     0.012 A 
ENDBRANCH   8  13
ENDBRANCH   6   7
ENDBRANCH   5   6
ENDBRANCH   1   5
BRANCH   2  19
HETATM   19  N   UNL     1      42.316 -14.804   7.092  1.00  0.00    -0.262 N 
HETATM   20  C   UNL     1      41.054 -14.823   6.516  1.00  0.00     0.291 C 
HETATM   21  O   UNL     1      40.348 -15.830   6.505  1.00  0.00    -0.264 OA
HETATM   22  H   UNL     1      42.769 -13.901   7.243  1.00  0.00     0.190 HD
BRANCH  20  23
HETATM   23  C   UNL     1      40.645 -13.532   5.950  1.00  0.00     0.158 A 
HETATM   24  N   UNL     1      39.442 -12.986   6.233  1.00  0.00    -0.168 NA
HETATM   25  N   UNL     1      39.444 -11.831   5.542  1.00  0.00    -0.277 N 
HETATM   26  H   UNL     1      38.628 -11.233   5.603  1.00  0.00     0.189 HD
HETATM   27  C   UNL     1      40.583 -11.604   4.819  1.00  0.00     0.063 A 
HETATM   28  C   UNL     1      41.396 -12.705   5.064  1.00  0.00     0.028 A 
HETATM   29  C   UNL     1      40.959 -10.544   3.987  1.00  0.00     0.032 A 
HETATM   30  C   UNL     1      42.661 -12.764   4.445  1.00  0.00     0.016 A 
HETATM   31  C   UNL     1      43.057 -11.716   3.605  1.00  0.00     0.001 A 
HETATM   32  C   UNL     1      42.219 -10.625   3.383  1.00  0.00     0.002 A 
ENDBRANCH  20  23
ENDBRANCH   2  19
TORSDOF 6
ENDMDL
MODEL 2
REMARK VINA RESULT:      -8.5      3.078      3.571
REMARK  6 active torsions:
REMARK  status: ('A' for Active; 'I' for Inactive)
REMARK    1  A    between atoms: C_4  and  C_5 
REMARK    2  A    between atoms: C_6  and  O_7 
REMARK    3  A    between atoms: O_7  and  C_8 
REMARK    4  A    between atoms: C_8  and  C_9 
REMARK       I    between atoms: C_9  and  N_10 
REMARK    5  A    between atoms: N_10  and  N_11 
REMARK       I    between atoms: N_11  and  C_12 
REMARK    6  A    between atoms: C_12  and  C_13 
ROOT
HETATM    1  C   UNL     1      41.790 -15.912   6.523  1.00  0.00     0.260 C 
HETATM    2  N   UNL     1      41.835 -14.657   7.082  1.00  0.00    -0.265 N 
HETATM    3  O   UNL     1      40.710 -16.396   6.183  1.00  0.00    -0.269 OA
HETATM    4  H   UNL     1      40.957 -14.137   7.038  1.00  0.00     0.190 HD
ENDROOT
BRANCH   1   5
HETATM    5  C   UNL     1      43.102 -16.681   6.372  1.00  0.00     0.280 C 
BRANCH   5   6
HETATM    6  O   UNL     1      43.692 -16.514   5.084  1.00  0.00    -0.341 OA
BRANCH   6   7
HETATM    7  C   UNL     1      43.639 -17.644   4.301  1.00  0.00     0.080 A 
HETATM    8  C   UNL     1      42.989 -17.568   3.050  1.00  0.00     0.007 A 
HETATM    9  C   UNL     1      42.971 -18.728   2.247  1.00  0.00     0.015 A 
HETATM   10  C   UNL     1      43.593 -19.908   2.655  1.00  0.00     0.001 A 
HETATM   11  C   UNL     1      44.259 -19.953   3.874  1.00  0.00     0.003 A 
HETATM   12  C   UNL     1      44.290 -18.824   4.691  1.00  0.00     0.037 A 
BRANCH   8  13
HETATM   13  C   UNL     1      42.325 -16.345   2.560  1.00  0.00    -0.023 A 
HETATM   14  C   UNL     1      43.077 -15.304   1.985  1.00  0.00     0.012 A 
HETATM   15  C   UNL     1      42.457 -14.158   1.482  1.00  0.00     0.001 A 
HETATM   16  C   UNL     1      41.072 -14.031   1.545  1.00  0.00     0.000 A 
HETATM   17  C   UNL     1      40.308 -15.049   2.111  1.00  0.00     0.001 A 
HETATM   18  C   UNL     1      40.931 -16.197   2.611  1.00  0.00     0.012 A 
ENDBRANCH   8  13
ENDBRANCH   6   7
ENDBRANCH   5   6
ENDBRANCH   1   5
BRANCH   2  19
HETATM   19  N   UNL     1      42.996 -13.876   7.051  1.00  0.00    -0.262 N 
HETATM   20  C   UNL     1      42.942 -12.645   6.414  1.00  0.00     0.291 C 
HETATM   21  O   UNL     1      41.963 -12.278   5.767  1.00  0.00    -0.264 OA
HETATM   22  H   UNL     1      43.744 -14.043   7.726  1.00  0.00     0.190 HD
BRANCH  20  23
HETATM   23  C   UNL     1      44.148 -11.829   6.604  1.00  0.00     0.158 A 
HETATM   24  N   UNL     1      45.125 -11.787   5.673  1.00  0.00    -0.168 NA
HETATM   25  N   UNL     1      46.036 -10.948   6.203  1.00  0.00    -0.277 N 
HETATM   26  H   UNL     1      46.877 -10.753   5.670  1.00  0.00     0.189 HD
HETATM   27  C   UNL     1      45.702 -10.452   7.433  1.00  0.00     0.063 A 
HETATM   28  C   UNL     1      44.465 -11.012   7.729  1.00  0.00     0.028 A 
HETATM   29  C   UNL     1      46.371  -9.575   8.293  1.00  0.00     0.032 A 
HETATM   30  C   UNL     1      43.849 -10.687   8.955  1.00  0.00     0.016 A 
HETATM   31  C   UNL     1      44.502  -9.814   9.833  1.00  0.00     0.001 A 
HETATM   32  C   UNL     1      45.742  -9.267   9.505  1.00  0.00     0.002 A 
ENDBRANCH  20  23
ENDBRANCH   2  19
TORSDOF 6
ENDMDL
MODEL 3
REMARK VINA RESULT:      -8.3      1.854      2.423
REMARK  6 active torsions:
REMARK  status: ('A' for Active; 'I' for Inactive)
REMARK    1  A    between atoms: C_4  and  C_5 
REMARK    2  A    between atoms: C_6  and  O_7 
REMARK    3  A    between atoms: O_7  and  C_8 
REMARK    4  A    between atoms: C_8  and  C_9 
REMARK       I    between atoms: C_9  and  N_10 
REMARK    5  A    between atoms: N_10  and  N_11 
REMARK       I    between atoms: N_11  and  C_12 
REMARK    6  A    between atoms: C_12  and  C_13 
ROOT
HETATM    1  C   UNL     1      43.735 -16.368   7.160  1.00  0.00     0.260 C 
HETATM    2  N   UNL     1      44.099 -15.059   6.955  1.00  0.00    -0.265 N 
HETATM    3  O   UNL     1      43.945 -16.902   8.250  1.00  0.00    -0.269 OA
HETATM    4  H   UNL     1      44.392 -14.559   7.795  1.00  0.00     0.190 HD
ENDROOT
BRANCH   1   5
HETATM    5  C   UNL     1      43.101 -17.131   5.998  1.00  0.00     0.280 C 
BRANCH   5   6
HETATM    6  O   UNL     1      43.939 -17.171   4.844  1.00  0.00    -0.341 OA
BRANCH   6   7
HETATM    7  C   UNL     1      43.772 -18.301   4.077  1.00  0.00     0.080 A 
HETATM    8  C   UNL     1      43.141 -18.178   2.821  1.00  0.00     0.007 A 
HETATM    9  C   UNL     1      43.005 -19.342   2.036  1.00  0.00     0.015 A 
HETATM   10  C   UNL     1      43.499 -20.574   2.465  1.00  0.00     0.001 A 
HETATM   11  C   UNL     1      44.150 -20.669   3.689  1.00  0.00     0.003 A 
HETATM   12  C   UNL     1      44.294 -19.536   4.489  1.00  0.00     0.037 A 
BRANCH   8  13
HETATM   13  C   UNL     1      42.611 -16.900   2.308  1.00  0.00    -0.023 A 
HETATM   14  C   UNL     1      41.224 -16.676   2.239  1.00  0.00     0.012 A 
HETATM   15  C   UNL     1      40.711 -15.456   1.791  1.00  0.00     0.001 A 
HETATM   16  C   UNL     1      41.576 -14.438   1.401  1.00  0.00     0.000 A 
HETATM   17  C   UNL     1      42.953 -14.639   1.459  1.00  0.00     0.001 A 
HETATM   18  C   UNL     1      43.465 -15.859   1.911  1.00  0.00     0.012 A 
ENDBRANCH   8  13
ENDBRANCH   6   7
ENDBRANCH   5   6
ENDBRANCH   1   5
BRANCH   2  19
HETATM   19  N   UNL     1      43.493 -14.270   5.970  1.00  0.00    -0.262 N 
HETATM   20  C   UNL     1      43.550 -12.891   6.105  1.00  0.00     0.291 C 
HETATM   21  O   UNL     1      43.991 -12.344   7.115  1.00  0.00    -0.264 OA
HETATM   22  H   UNL     1      43.303 -14.661   5.046  1.00  0.00     0.190 HD
BRANCH  20  23
HETATM   23  C   UNL     1      43.058 -12.162   4.930  1.00  0.00     0.158 A 
HETATM   24  N   UNL     1      43.864 -11.347   4.216  1.00  0.00    -0.168 NA
HETATM   25  N   UNL     1      43.062 -10.878   3.241  1.00  0.00    -0.277 N 
HETATM   26  H   UNL     1      43.456 -10.235   2.563  1.00  0.00     0.189 HD
HETATM   27  C   UNL     1      41.776 -11.341   3.292  1.00  0.00     0.063 A 
HETATM   28  C   UNL     1      41.737 -12.188   4.393  1.00  0.00     0.028 A 
HETATM   29  C   UNL     1      40.666 -11.089   2.480  1.00  0.00     0.032 A 
HETATM   30  C   UNL     1      40.522 -12.828   4.714  1.00  0.00     0.016 A 
HETATM   31  C   UNL     1      39.397 -12.588   3.916  1.00  0.00     0.001 A 
HETATM   32  C   UNL     1      39.470 -11.734   2.817  1.00  0.00     0.002 A 
ENDBRANCH  20  23
ENDBRANCH   2  19
TORSDOF 6
ENDMDL
MODEL 4
REMARK VINA RESULT:      -8.2      2.316      4.162
REMARK  6 active torsions:
REMARK  status: ('A' for Active; 'I' for Inactive)
REMARK    1  A    between atoms: C_4  and  C_5 
REMARK    2  A    between atoms: C_6  and  O_7 
REMARK    3  A    between atoms: O_7  and  C_8 
REMARK    4  A    between atoms: C_8  and  C_9 
REMARK       I    between atoms: C_9  and  N_10 
REMARK    5  A    between atoms: N_10  and  N_11 
REMARK       I    between atoms: N_11  and  C_12 
REMARK    6  A    between atoms: C_12  and  C_13 
ROOT
HETATM    1  C   UNL     1      39.861 -15.461   1.885  1.00  0.00     0.260 C 
HETATM    2  N   UNL     1      39.353 -14.313   2.445  1.00  0.00    -0.265 N 
HETATM    3  O   UNL     1      39.713 -15.676   0.681  1.00  0.00    -0.269 OA
HETATM    4  H   UNL     1      39.007 -13.626   1.774  1.00  0.00     0.190 HD
ENDROOT
BRANCH   1   5
HETATM    5  C   UNL     1      40.575 -16.455   2.799  1.00  0.00     0.280 C 
BRANCH   5   6
HETATM    6  O   UNL     1      41.988 -16.261   2.827  1.00  0.00    -0.341 OA
BRANCH   6   7
HETATM    7  C   UNL     1      42.701 -17.414   3.059  1.00  0.00     0.080 A 
HETATM    8  C   UNL     1      43.263 -17.615   4.338  1.00  0.00     0.007 A 
HETATM    9  C   UNL     1      43.964 -18.817   4.567  1.00  0.00     0.015 A 
HETATM   10  C   UNL     1      44.083 -19.793   3.578  1.00  0.00     0.001 A 
HETATM   11  C   UNL     1      43.492 -19.593   2.336  1.00  0.00     0.003 A 
HETATM   12  C   UNL     1      42.797 -18.413   2.079  1.00  0.00     0.037 A 
BRANCH   8  13
HETATM   13  C   UNL     1      43.159 -16.626   5.428  1.00  0.00    -0.023 A 
HETATM   14  C   UNL     1      41.968 -16.495   6.165  1.00  0.00     0.012 A 
HETATM   15  C   UNL     1      41.870 -15.589   7.224  1.00  0.00     0.001 A 
HETATM   16  C   UNL     1      42.962 -14.797   7.566  1.00  0.00     0.000 A 
HETATM   17  C   UNL     1      44.150 -14.909   6.849  1.00  0.00     0.001 A 
HETATM   18  C   UNL     1      44.248 -15.818   5.791  1.00  0.00     0.012 A 
ENDBRANCH   8  13
ENDBRANCH   6   7
ENDBRANCH   5   6
ENDBRANCH   1   5
BRANCH   2  19
HETATM   19  N   UNL     1      39.867 -13.783   3.635  1.00  0.00    -0.262 N 
HETATM   20  C   UNL     1      40.914 -12.877   3.552  1.00  0.00     0.291 C 
HETATM   21  O   UNL     1      41.490 -12.629   2.494  1.00  0.00    -0.264 OA
HETATM   22  H   UNL     1      39.307 -13.803   4.488  1.00  0.00     0.190 HD
BRANCH  20  23
HETATM   23  C   UNL     1      41.247 -12.242   4.832  1.00  0.00     0.158 A 
HETATM   24  N   UNL     1      40.290 -11.926   5.732  1.00  0.00    -0.168 NA
HETATM   25  N   UNL     1      40.978 -11.376   6.751  1.00  0.00    -0.277 N 
HETATM   26  H   UNL     1      40.462 -11.058   7.564  1.00  0.00     0.189 HD
HETATM   27  C   UNL     1      42.330 -11.313   6.553  1.00  0.00     0.063 A 
HETATM   28  C   UNL     1      42.543 -11.873   5.299  1.00  0.00     0.028 A 
HETATM   29  C   UNL     1      43.364 -10.818   7.356  1.00  0.00     0.032 A 
HETATM   30  C   UNL     1      43.861 -11.949   4.804  1.00  0.00     0.016 A 
HETATM   31  C   UNL     1      44.911 -11.457   5.589  1.00  0.00     0.001 A 
HETATM   32  C   UNL     1      44.664 -10.903   6.844  1.00  0.00     0.002 A 
ENDBRANCH  20  23
ENDBRANCH   2  19
TORSDOF 6
ENDMDL
MODEL 5
REMARK VINA RESULT:      -8.0      2.989      5.848
REMARK  6 active torsions:
REMARK  status: ('A' for Active; 'I' for Inactive)
REMARK    1  A    between atoms: C_4  and  C_5 
REMARK    2  A    between atoms: C_6  and  O_7 
REMARK    3  A    between atoms: O_7  and  C_8 
REMARK    4  A    between atoms: C_8  and  C_9 
REMARK       I    between atoms: C_9  and  N_10 
REMARK    5  A    between atoms: N_10  and  N_11 
REMARK       I    between atoms: N_11  and  C_12 
REMARK    6  A    between atoms: C_12  and  C_13 
ROOT
HETATM    1  C   UNL     1      41.592 -10.413   1.344  1.00  0.00     0.260 C 
HETATM    2  N   UNL     1      42.382 -10.769   2.411  1.00  0.00    -0.265 N 
HETATM    3  O   UNL     1      42.064  -9.743   0.424  1.00  0.00    -0.269 OA
HETATM    4  H   UNL     1      43.376 -10.572   2.292  1.00  0.00     0.190 HD
ENDROOT
BRANCH   1   5
HETATM    5  C   UNL     1      40.126 -10.845   1.356  1.00  0.00     0.280 C 
BRANCH   5   6
HETATM    6  O   UNL     1      39.969 -12.254   1.514  1.00  0.00    -0.341 OA
BRANCH   6   7
HETATM    7  C   UNL     1      39.610 -12.904   0.356  1.00  0.00     0.080 A 
HETATM    8  C   UNL     1      40.004 -14.249   0.186  1.00  0.00     0.007 A 
HETATM    9  C   UNL     1      39.601 -14.909  -0.993  1.00  0.00     0.015 A 
HETATM   10  C   UNL     1      38.816 -14.271  -1.955  1.00  0.00     0.001 A 
HETATM   11  C   UNL     1      38.407 -12.959  -1.753  1.00  0.00     0.003 A 
HETATM   12  C   UNL     1      38.795 -12.279  -0.599  1.00  0.00     0.037 A 
BRANCH   8  13
HETATM   13  C   UNL     1      40.822 -14.980   1.174  1.00  0.00    -0.023 A 
HETATM   14  C   UNL     1      42.226 -14.911   1.131  1.00  0.00     0.012 A 
HETATM   15  C   UNL     1      43.010 -15.566   2.083  1.00  0.00     0.001 A 
HETATM   16  C   UNL     1      42.404 -16.306   3.095  1.00  0.00     0.000 A 
HETATM   17  C   UNL     1      41.015 -16.389   3.154  1.00  0.00     0.001 A 
HETATM   18  C   UNL     1      40.231 -15.729   2.203  1.00  0.00     0.012 A 
ENDBRANCH   8  13
ENDBRANCH   6   7
ENDBRANCH   5   6
ENDBRANCH   1   5
BRANCH   2  19
HETATM   19  N   UNL     1      42.081 -11.875   3.215  1.00  0.00    -0.262 N 
HETATM   20  C   UNL     1      41.723 -11.648   4.536  1.00  0.00     0.291 C 
HETATM   21  O   UNL     1      41.788 -10.536   5.057  1.00  0.00    -0.264 OA
HETATM   22  H   UNL     1      41.824 -12.765   2.786  1.00  0.00     0.190 HD
BRANCH  20  23
HETATM   23  C   UNL     1      41.245 -12.849   5.231  1.00  0.00     0.158 A 
HETATM   24  N   UNL     1      39.927 -13.086   5.407  1.00  0.00    -0.168 NA
HETATM   25  N   UNL     1      39.898 -14.258   6.069  1.00  0.00    -0.277 N 
HETATM   26  H   UNL     1      38.995 -14.650   6.313  1.00  0.00     0.189 HD
HETATM   27  C   UNL     1      41.129 -14.789   6.338  1.00  0.00     0.063 A 
HETATM   28  C   UNL     1      42.041 -13.887   5.801  1.00  0.00     0.028 A 
HETATM   29  C   UNL     1      41.511 -15.963   6.995  1.00  0.00     0.032 A 
HETATM   30  C   UNL     1      43.418 -14.160   5.924  1.00  0.00     0.016 A 
HETATM   31  C   UNL     1      43.823 -15.328   6.581  1.00  0.00     0.001 A 
HETATM   32  C   UNL     1      42.883 -16.214   7.106  1.00  0.00     0.002 A 
ENDBRANCH  20  23
ENDBRANCH   2  19
TORSDOF 6
ENDMDL
MODEL 6
REMARK VINA RESULT:      -7.8      3.575      4.464
REMARK  6 active torsions:
REMARK  status: ('A' for Active; 'I' for Inactive)
REMARK    1  A    between atoms: C_4  and  C_5 
REMARK    2  A    between atoms: C_6  and  O_7 
REMARK    3  A    between atoms: O_7  and  C_8 
REMARK    4  A    between atoms: C_8  and  C_9 
REMARK       I    between atoms: C_9  and  N_10 
REMARK    5  A    between atoms: N_10  and  N_11 
REMARK       I    between atoms: N_11  and  C_12 
REMARK    6  A    between atoms: C_12  and  C_13 
ROOT
HETATM    1  C   UNL     1      40.713 -13.537   5.017  1.00  0.00     0.260 C 
HETATM    2  N   UNL     1      40.863 -12.414   5.795  1.00  0.00    -0.265 N 
HETATM    3  O   UNL     1      39.942 -13.521   4.055  1.00  0.00    -0.269 OA
HETATM    4  H   UNL     1      40.423 -11.572   5.421  1.00  0.00     0.190 HD
ENDROOT
BRANCH   1   5
HETATM    5  C   UNL     1      41.498 -14.790   5.400  1.00  0.00     0.280 C 
BRANCH   5   6
HETATM    6  O   UNL     1      42.804 -14.818   4.827  1.00  0.00    -0.341 OA
BRANCH   6   7
HETATM    7  C   UNL     1      43.201 -16.069   4.415  1.00  0.00     0.080 A 
HETATM    8  C   UNL     1      42.834 -16.503   3.124  1.00  0.00     0.007 A 
HETATM    9  C   UNL     1      43.276 -17.777   2.707  1.00  0.00     0.015 A 
HETATM   10  C   UNL     1      44.072 -18.577   3.527  1.00  0.00     0.001 A 
HETATM   11  C   UNL     1      44.454 -18.118   4.781  1.00  0.00     0.003 A 
HETATM   12  C   UNL     1      44.028 -16.865   5.221  1.00  0.00     0.037 A 
BRANCH   8  13
HETATM   13  C   UNL     1      42.006 -15.696   2.207  1.00  0.00    -0.023 A 
HETATM   14  C   UNL     1      40.728 -16.138   1.820  1.00  0.00     0.012 A 
HETATM   15  C   UNL     1      39.919 -15.365   0.984  1.00  0.00     0.001 A 
HETATM   16  C   UNL     1      40.374 -14.135   0.518  1.00  0.00     0.000 A 
HETATM   17  C   UNL     1      41.637 -13.679   0.887  1.00  0.00     0.001 A 
HETATM   18  C   UNL     1      42.444 -14.453   1.726  1.00  0.00     0.012 A 
ENDBRANCH   8  13
ENDBRANCH   6   7
ENDBRANCH   5   6
ENDBRANCH   1   5
BRANCH   2  19
HETATM   19  N   UNL     1      42.011 -12.199   6.566  1.00  0.00    -0.262 N 
HETATM   20  C   UNL     1      42.895 -11.208   6.164  1.00  0.00     0.291 C 
HETATM   21  O   UNL     1      42.777 -10.610   5.095  1.00  0.00    -0.264 OA
HETATM   22  H   UNL     1      42.045 -12.517   7.535  1.00  0.00     0.190 HD
BRANCH  20  23
HETATM   23  C   UNL     1      43.958 -10.936   7.139  1.00  0.00     0.158 A 
HETATM   24  N   UNL     1      45.236 -11.310   6.912  1.00  0.00    -0.168 NA
HETATM   25  N   UNL     1      45.893 -10.890   8.010  1.00  0.00    -0.277 N 
HETATM   26  H   UNL     1      46.891 -11.059   8.068  1.00  0.00     0.189 HD
HETATM   27  C   UNL     1      45.104 -10.270   8.940  1.00  0.00     0.063 A 
HETATM   28  C   UNL     1      43.823 -10.283   8.400  1.00  0.00     0.028 A 
HETATM   29  C   UNL     1      45.403  -9.711  10.187  1.00  0.00     0.032 A 
HETATM   30  C   UNL     1      42.769  -9.709   9.139  1.00  0.00     0.016 A 
HETATM   31  C   UNL     1      43.045  -9.146  10.390  1.00  0.00     0.001 A 
HETATM   32  C   UNL     1      44.341  -9.147  10.903  1.00  0.00     0.002 A 
ENDBRANCH  20  23
ENDBRANCH   2  19
TORSDOF 6
ENDMDL
MODEL 7
REMARK VINA RESULT:      -7.8      2.784      4.299
REMARK  6 active torsions:
REMARK  status: ('A' for Active; 'I' for Inactive)
REMARK    1  A    between atoms: C_4  and  C_5 
REMARK    2  A    between atoms: C_6  and  O_7 
REMARK    3  A    between atoms: O_7  and  C_8 
REMARK    4  A    between atoms: C_8  and  C_9 
REMARK       I    between atoms: C_9  and  N_10 
REMARK    5  A    between atoms: N_10  and  N_11 
REMARK       I    between atoms: N_11  and  C_12 
REMARK    6  A    between atoms: C_12  and  C_13 
ROOT
HETATM    1  C   UNL     1      43.000 -15.979   6.991  1.00  0.00     0.260 C 
HETATM    2  N   UNL     1      43.691 -14.799   7.139  1.00  0.00    -0.265 N 
HETATM    3  O   UNL     1      43.495 -17.035   7.387  1.00  0.00    -0.269 OA
HETATM    4  H   UNL     1      44.528 -14.863   7.720  1.00  0.00     0.190 HD
ENDROOT
BRANCH   1   5
HETATM    5  C   UNL     1      41.638 -15.935   6.302  1.00  0.00     0.280 C 
BRANCH   5   6
HETATM    6  O   UNL     1      41.632 -16.617   5.049  1.00  0.00    -0.341 OA
BRANCH   6   7
HETATM    7  C   UNL     1      42.188 -15.892   4.021  1.00  0.00     0.080 A 
HETATM    8  C   UNL     1      42.994 -16.565   3.078  1.00  0.00     0.007 A 
HETATM    9  C   UNL     1      43.531 -15.810   2.013  1.00  0.00     0.015 A 
HETATM   10  C   UNL     1      43.259 -14.449   1.873  1.00  0.00     0.001 A 
HETATM   11  C   UNL     1      42.433 -13.812   2.791  1.00  0.00     0.003 A 
HETATM   12  C   UNL     1      41.893 -14.530   3.856  1.00  0.00     0.037 A 
BRANCH   8  13
HETATM   13  C   UNL     1      43.306 -18.004   3.166  1.00  0.00    -0.023 A 
HETATM   14  C   UNL     1      43.943 -18.531   4.304  1.00  0.00     0.012 A 
HETATM   15  C   UNL     1      44.208 -19.897   4.415  1.00  0.00     0.001 A 
HETATM   16  C   UNL     1      43.843 -20.764   3.389  1.00  0.00     0.000 A 
HETATM   17  C   UNL     1      43.212 -20.264   2.252  1.00  0.00     0.001 A 
HETATM   18  C   UNL     1      42.944 -18.896   2.144  1.00  0.00     0.012 A 
ENDBRANCH   8  13
ENDBRANCH   6   7
ENDBRANCH   5   6
ENDBRANCH   1   5
BRANCH   2  19
HETATM   19  N   UNL     1      43.039 -13.561   7.162  1.00  0.00    -0.262 N 
HETATM   20  C   UNL     1      43.781 -12.423   6.881  1.00  0.00     0.291 C 
HETATM   21  O   UNL     1      45.004 -12.448   6.748  1.00  0.00    -0.264 OA
HETATM   22  H   UNL     1      42.023 -13.515   7.069  1.00  0.00     0.190 HD
BRANCH  20  23
HETATM   23  C   UNL     1      42.969 -11.208   6.743  1.00  0.00     0.158 A 
HETATM   24  N   UNL     1      41.894 -11.168   5.925  1.00  0.00    -0.168 NA
HETATM   25  N   UNL     1      41.426  -9.914   6.074  1.00  0.00    -0.277 N 
HETATM   26  H   UNL     1      40.602  -9.643   5.549  1.00  0.00     0.189 HD
HETATM   27  C   UNL     1      42.147  -9.138   6.939  1.00  0.00     0.063 A 
HETATM   28  C   UNL     1      43.171  -9.958   7.398  1.00  0.00     0.028 A 
HETATM   29  C   UNL     1      41.988  -7.810   7.348  1.00  0.00     0.032 A 
HETATM   30  C   UNL     1      44.100  -9.432   8.319  1.00  0.00     0.016 A 
HETATM   31  C   UNL     1      43.962  -8.104   8.741  1.00  0.00     0.001 A 
HETATM   32  C   UNL     1      42.922  -7.309   8.263  1.00  0.00     0.002 A 
ENDBRANCH  20  23
ENDBRANCH   2  19
TORSDOF 6
ENDMDL
MODEL 8
REMARK VINA RESULT:      -7.7      2.291      4.656
REMARK  6 active torsions:
REMARK  status: ('A' for Active; 'I' for Inactive)
REMARK    1  A    between atoms: C_4  and  C_5 
REMARK    2  A    between atoms: C_6  and  O_7 
REMARK    3  A    between atoms: O_7  and  C_8 
REMARK    4  A    between atoms: C_8  and  C_9 
REMARK       I    between atoms: C_9  and  N_10 
REMARK    5  A    between atoms: N_10  and  N_11 
REMARK       I    between atoms: N_11  and  C_12 
REMARK    6  A    between atoms: C_12  and  C_13 
ROOT
HETATM    1  C   UNL     1      40.143 -15.482   1.907  1.00  0.00     0.260 C 
HETATM    2  N   UNL     1      39.227 -14.893   2.746  1.00  0.00    -0.265 N 
HETATM    3  O   UNL     1      39.801 -15.845   0.780  1.00  0.00    -0.269 OA
HETATM    4  H   UNL     1      38.336 -14.656   2.308  1.00  0.00     0.190 HD
ENDROOT
BRANCH   1   5
HETATM    5  C   UNL     1      41.565 -15.692   2.425  1.00  0.00     0.280 C 
BRANCH   5   6
HETATM    6  O   UNL     1      41.619 -16.585   3.536  1.00  0.00    -0.341 OA
BRANCH   6   7
HETATM    7  C   UNL     1      42.514 -16.204   4.509  1.00  0.00     0.080 A 
HETATM    8  C   UNL     1      43.532 -17.108   4.880  1.00  0.00     0.007 A 
HETATM    9  C   UNL     1      44.460 -16.689   5.858  1.00  0.00     0.015 A 
HETATM   10  C   UNL     1      44.397 -15.416   6.426  1.00  0.00     0.001 A 
HETATM   11  C   UNL     1      43.409 -14.527   6.021  1.00  0.00     0.003 A 
HETATM   12  C   UNL     1      42.476 -14.915   5.060  1.00  0.00     0.037 A 
BRANCH   8  13
HETATM   13  C   UNL     1      43.658 -18.461   4.305  1.00  0.00    -0.023 A 
HETATM   14  C   UNL     1      43.622 -18.653   2.913  1.00  0.00     0.012 A 
HETATM   15  C   UNL     1      43.779 -19.924   2.355  1.00  0.00     0.001 A 
HETATM   16  C   UNL     1      43.973 -21.028   3.180  1.00  0.00     0.000 A 
HETATM   17  C   UNL     1      44.010 -20.861   4.563  1.00  0.00     0.001 A 
HETATM   18  C   UNL     1      43.857 -19.587   5.119  1.00  0.00     0.012 A 
ENDBRANCH   8  13
ENDBRANCH   6   7
ENDBRANCH   5   6
ENDBRANCH   1   5
BRANCH   2  19
HETATM   19  N   UNL     1      39.620 -14.055   3.796  1.00  0.00    -0.262 N 
HETATM   20  C   UNL     1      39.358 -12.697   3.686  1.00  0.00     0.291 C 
HETATM   21  O   UNL     1      38.920 -12.190   2.655  1.00  0.00    -0.264 OA
HETATM   22  H   UNL     1      39.794 -14.444   4.723  1.00  0.00     0.190 HD
BRANCH  20  23
HETATM   23  C   UNL     1      39.634 -11.943   4.914  1.00  0.00     0.158 A 
HETATM   24  N   UNL     1      39.273 -12.413   6.128  1.00  0.00    -0.168 NA
HETATM   25  N   UNL     1      39.693 -11.458   6.979  1.00  0.00    -0.277 N 
HETATM   26  H   UNL     1      39.532 -11.594   7.972  1.00  0.00     0.189 HD
HETATM   27  C   UNL     1      40.300 -10.390   6.379  1.00  0.00     0.063 A 
HETATM   28  C   UNL     1      40.278 -10.674   5.019  1.00  0.00     0.028 A 
HETATM   29  C   UNL     1      40.855  -9.219   6.907  1.00  0.00     0.032 A 
HETATM   30  C   UNL     1      40.839  -9.742   4.122  1.00  0.00     0.016 A 
HETATM   31  C   UNL     1      41.397  -8.563   4.628  1.00  0.00     0.001 A 
HETATM   32  C   UNL     1      41.405  -8.308   5.999  1.00  0.00     0.002 A 
ENDBRANCH  20  23
ENDBRANCH   2  19
TORSDOF 6
ENDMDL
MODEL 9
REMARK VINA RESULT:      -7.7      4.881      5.660
REMARK  6 active torsions:
REMARK  status: ('A' for Active; 'I' for Inactive)
REMARK    1  A    between atoms: C_4  and  C_5 
REMARK    2  A    between atoms: C_6  and  O_7 
REMARK    3  A    between atoms: O_7  and  C_8 
REMARK    4  A    between atoms: C_8  and  C_9 
REMARK       I    between atoms: C_9  and  N_10 
REMARK    5  A    between atoms: N_10  and  N_11 
REMARK       I    between atoms: N_11  and  C_12 
REMARK    6  A    between atoms: C_12  and  C_13 
ROOT
HETATM    1  C   UNL     1      43.710 -11.614   5.982  1.00  0.00     0.260 C 
HETATM    2  N   UNL     1      43.612 -10.493   6.773  1.00  0.00    -0.265 N 
HETATM    3  O   UNL     1      44.406 -11.590   4.965  1.00  0.00    -0.269 OA
HETATM    4  H   UNL     1      44.262  -9.742   6.534  1.00  0.00     0.190 HD
ENDROOT
BRANCH   1   5
HETATM    5  C   UNL     1      42.916 -12.854   6.387  1.00  0.00     0.280 C 
BRANCH   5   6
HETATM    6  O   UNL     1      42.592 -13.687   5.275  1.00  0.00    -0.341 OA
BRANCH   6   7
HETATM    7  C   UNL     1      43.134 -14.949   5.352  1.00  0.00     0.080 A 
HETATM    8  C   UNL     1      42.822 -15.881   4.340  1.00  0.00     0.007 A 
HETATM    9  C   UNL     1      43.411 -17.161   4.418  1.00  0.00     0.015 A 
HETATM   10  C   UNL     1      44.295 -17.495   5.445  1.00  0.00     0.001 A 
HETATM   11  C   UNL     1      44.618 -16.552   6.413  1.00  0.00     0.003 A 
HETATM   12  C   UNL     1      44.048 -15.281   6.363  1.00  0.00     0.037 A 
BRANCH   8  13
HETATM   13  C   UNL     1      41.905 -15.581   3.222  1.00  0.00    -0.023 A 
HETATM   14  C   UNL     1      42.378 -14.946   2.060  1.00  0.00     0.012 A 
HETATM   15  C   UNL     1      41.529 -14.691   0.980  1.00  0.00     0.001 A 
HETATM   16  C   UNL     1      40.190 -15.066   1.044  1.00  0.00     0.000 A 
HETATM   17  C   UNL     1      39.701 -15.695   2.186  1.00  0.00     0.001 A 
HETATM   18  C   UNL     1      40.553 -15.952   3.265  1.00  0.00     0.012 A 
ENDBRANCH   8  13
ENDBRANCH   6   7
ENDBRANCH   5   6
ENDBRANCH   1   5
BRANCH   2  19
HETATM   19  N   UNL     1      43.260 -10.573   8.125  1.00  0.00    -0.262 N 
HETATM   20  C   UNL     1      44.277 -10.621   9.067  1.00  0.00     0.291 C 
HETATM   21  O   UNL     1      45.462 -10.730   8.755  1.00  0.00    -0.264 OA
HETATM   22  H   UNL     1      42.328 -10.289   8.429  1.00  0.00     0.190 HD
BRANCH  20  23
HETATM   23  C   UNL     1      43.803 -10.510  10.452  1.00  0.00     0.158 A 
HETATM   24  N   UNL     1      43.780 -11.579  11.278  1.00  0.00    -0.168 NA
HETATM   25  N   UNL     1      43.296 -11.081  12.431  1.00  0.00    -0.277 N 
HETATM   26  H   UNL     1      43.190 -11.711  13.219  1.00  0.00     0.189 HD
HETATM   27  C   UNL     1      42.996  -9.747  12.392  1.00  0.00     0.063 A 
HETATM   28  C   UNL     1      43.317  -9.338  11.103  1.00  0.00     0.028 A 
HETATM   29  C   UNL     1      42.479  -8.883  13.363  1.00  0.00     0.032 A 
HETATM   30  C   UNL     1      43.112  -7.989  10.749  1.00  0.00     0.016 A 
HETATM   31  C   UNL     1      42.593  -7.107  11.704  1.00  0.00     0.001 A 
HETATM   32  C   UNL     1      42.284  -7.549  12.990  1.00  0.00     0.002 A 
ENDBRANCH  20  23
ENDBRANCH   2  19
TORSDOF 6
ENDMDL
MODEL 10
REMARK VINA RESULT:      -7.7      3.410      6.064
REMARK  6 active torsions:
REMARK  status: ('A' for Active; 'I' for Inactive)
REMARK    1  A    between atoms: C_4  and  C_5 
REMARK    2  A    between atoms: C_6  and  O_7 
REMARK    3  A    between atoms: O_7  and  C_8 
REMARK    4  A    between atoms: C_8  and  C_9 
REMARK       I    between atoms: C_9  and  N_10 
REMARK    5  A    between atoms: N_10  and  N_11 
REMARK       I    between atoms: N_11  and  C_12 
REMARK    6  A    between atoms: C_12  and  C_13 
ROOT
HETATM    1  C   UNL     1      43.186 -11.644   3.320  1.00  0.00     0.260 C 
HETATM    2  N   UNL     1      42.445 -10.723   2.618  1.00  0.00    -0.265 N 
HETATM    3  O   UNL     1      44.008 -11.265   4.156  1.00  0.00    -0.269 OA
HETATM    4  H   UNL     1      42.524  -9.762   2.957  1.00  0.00     0.190 HD
ENDROOT
BRANCH   1   5
HETATM    5  C   UNL     1      42.980 -13.124   3.007  1.00  0.00     0.280 C 
BRANCH   5   6
HETATM    6  O   UNL     1      43.301 -13.970   4.110  1.00  0.00    -0.341 OA
BRANCH   6   7
HETATM    7  C   UNL     1      42.206 -14.371   4.838  1.00  0.00     0.080 A 
HETATM    8  C   UNL     1      41.918 -15.750   4.922  1.00  0.00     0.007 A 
HETATM    9  C   UNL     1      40.809 -16.146   5.698  1.00  0.00     0.015 A 
HETATM   10  C   UNL     1      40.029 -15.214   6.385  1.00  0.00     0.001 A 
HETATM   11  C   UNL     1      40.349 -13.864   6.319  1.00  0.00     0.003 A 
HETATM   12  C   UNL     1      41.437 -13.443   5.556  1.00  0.00     0.037 A 
BRANCH   8  13
HETATM   13  C   UNL     1      42.714 -16.783   4.230  1.00  0.00    -0.023 A 
HETATM   14  C   UNL     1      43.741 -17.467   4.904  1.00  0.00     0.012 A 
HETATM   15  C   UNL     1      44.474 -18.473   4.272  1.00  0.00     0.001 A 
HETATM   16  C   UNL     1      44.196 -18.813   2.951  1.00  0.00     0.000 A 
HETATM   17  C   UNL     1      43.185 -18.147   2.263  1.00  0.00     0.001 A 
HETATM   18  C   UNL     1      42.449 -17.142   2.899  1.00  0.00     0.012 A 
ENDBRANCH   8  13
ENDBRANCH   6   7
ENDBRANCH   5   6
ENDBRANCH   1   5
BRANCH   2  19
HETATM   19  N   UNL     1      41.216 -11.054   2.036  1.00  0.00    -0.262 N 
HETATM   20  C   UNL     1      41.051 -10.826   0.677  1.00  0.00     0.291 C 
HETATM   21  O   UNL     1      41.886 -10.227   0.002  1.00  0.00    -0.264 OA
HETATM   22  H   UNL     1      40.593 -11.717   2.498  1.00  0.00     0.190 HD
BRANCH  20  23
HETATM   23  C   UNL     1      39.806 -11.382   0.134  1.00  0.00     0.158 A 
HETATM   24  N   UNL     1      38.612 -11.142   0.717  1.00  0.00    -0.168 NA
HETATM   25  N   UNL     1      37.736 -11.807  -0.060  1.00  0.00    -0.277 N 
HETATM   26  H   UNL     1      36.752 -11.770   0.183  1.00  0.00     0.189 HD
HETATM   27  C   UNL     1      38.303 -12.472  -1.113  1.00  0.00     0.063 A 
HETATM   28  C   UNL     1      39.666 -12.215  -1.016  1.00  0.00     0.028 A 
HETATM   29  C   UNL     1      37.743 -13.262  -2.122  1.00  0.00     0.032 A 
HETATM   30  C   UNL     1      40.532 -12.776  -1.976  1.00  0.00     0.016 A 
HETATM   31  C   UNL     1      39.994 -13.574  -2.993  1.00  0.00     0.001 A 
HETATM   32  C   UNL     1      38.621 -13.810  -3.063  1.00  0.00     0.002 A 
ENDBRANCH  20  23
ENDBRANCH   2  19
TORSDOF 6
ENDMDL
