MODEL 1
REMARK VINA RESULT:      -8.3      0.000      0.000
REMARK  8 active torsions:
REMARK  status: ('A' for Active; 'I' for Inactive)
REMARK    1  A    between atoms: C_2  and  C_3 
REMARK    2  A    between atoms: C_3  and  N_4 
REMARK    3  A    between atoms: C_7  and  C_8 
REMARK       I    between atoms: C_8  and  N_9 
REMARK    4  A    between atoms: N_9  and  N_10 
REMARK       I    between atoms: N_10  and  C_11 
REMARK    5  A    between atoms: C_11  and  C_12 
REMARK    6  A    between atoms: C_12  and  O_13 
REMARK    7  A    between atoms: O_13  and  C_14 
REMARK    8  A    between atoms: C_23  and  C_24 
ROOT
HETATM    1  C   UNL     1      42.311 -13.514   5.407  1.00  0.00     0.273 C 
HETATM    2  N   UNL     1      43.382 -12.939   6.064  1.00  0.00    -0.263 N 
HETATM    3  O   UNL     1      41.176 -13.047   5.440  1.00  0.00    -0.266 OA
HETATM    4  H   UNL     1      44.227 -13.485   6.233  1.00  0.00     0.190 HD
ENDROOT
BRANCH   2   5
HETATM    5  N   UNL     1      43.125 -11.902   6.975  1.00  0.00    -0.265 N 
HETATM    6  C   UNL     1      44.191 -11.405   7.697  1.00  0.00     0.260 C 
HETATM    7  O   UNL     1      45.359 -11.706   7.450  1.00  0.00    -0.269 OA
HETATM    8  H   UNL     1      42.190 -11.870   7.386  1.00  0.00     0.190 HD
BRANCH   6   9
HETATM    9  C   UNL     1      43.814 -10.430   8.809  1.00  0.00     0.280 C 
BRANCH   9  10
HETATM   10  O   UNL     1      43.888 -11.043  10.093  1.00  0.00    -0.342 OA
BRANCH  10  11
HETATM   11  C   UNL     1      43.530 -10.266  11.161  1.00  0.00     0.069 A 
HETATM   12  C   UNL     1      43.990  -8.949  11.111  1.00  0.00     0.037 A 
HETATM   13  C   UNL     1      43.706  -8.054  12.146  1.00  0.00     0.009 A 
HETATM   14  C   UNL     1      42.950  -8.466  13.248  1.00  0.00    -0.062 A 
HETATM   15  C   UNL     1      42.636  -7.521  14.369  1.00  0.00     0.048 C 
HETATM   16  C   UNL     1      42.474  -9.781  13.287  1.00  0.00     0.009 A 
HETATM   17  C   UNL     1      42.759 -10.676  12.249  1.00  0.00     0.037 A 
ENDBRANCH  10  11
ENDBRANCH   9  10
ENDBRANCH   6   9
ENDBRANCH   2   5
BRANCH   1  18
HETATM   18  C   UNL     1      42.679 -14.689   4.651  1.00  0.00     0.077 A 
HETATM   19  C   UNL     1      43.039 -14.692   3.286  1.00  0.00     0.158 A 
HETATM   20  N   UNL     1      43.342 -15.905   2.832  1.00  0.00    -0.183 NA
HETATM   21  N   UNL     1      43.165 -16.707   3.901  1.00  0.00    -0.268 N 
HETATM   22  C   UNL     1      42.784 -16.017   5.038  1.00  0.00     0.052 A 
BRANCH  21  23
HETATM   23  C   UNL     1      43.356 -18.150   3.757  1.00  0.00     0.106 C 
HETATM   24  C   UNL     1      44.708 -18.644   4.290  1.00  0.00     0.034 C 
BRANCH  23  25
HETATM   25  C   UNL     1      43.087 -18.622   2.315  1.00  0.00     0.022 C 
HETATM   26  C   UNL     1      43.400 -20.089   2.047  1.00  0.00     0.007 C 
ENDBRANCH  23  25
ENDBRANCH  21  23
BRANCH  22  27
HETATM   27  C   UNL     1      42.566 -16.662   6.407  1.00  0.00     0.038 A 
HETATM   28  C   UNL     1      43.740 -16.861   7.341  1.00  0.00     0.011 A 
HETATM   29  C   UNL     1      42.696 -15.850   7.673  1.00  0.00     0.011 A 
ENDBRANCH  22  27
ENDBRANCH   1  18
TORSDOF 8
ENDMDL
MODEL 2
REMARK VINA RESULT:      -8.1      1.026      2.240
REMARK  8 active torsions:
REMARK  status: ('A' for Active; 'I' for Inactive)
REMARK    1  A    between atoms: C_2  and  C_3 
REMARK    2  A    between atoms: C_3  and  N_4 
REMARK    3  A    between atoms: C_7  and  C_8 
REMARK       I    between atoms: C_8  and  N_9 
REMARK    4  A    between atoms: N_9  and  N_10 
REMARK       I    between atoms: N_10  and  C_11 
REMARK    5  A    between atoms: C_11  and  C_12 
REMARK    6  A    between atoms: C_12  and  O_13 
REMARK    7  A    between atoms: O_13  and  C_14 
REMARK    8  A    between atoms: C_23  and  C_24 
ROOT
HETATM    1  C   UNL     1      42.826 -14.106   6.280  1.00  0.00     0.273 C 
HETATM    2  N   UNL     1      43.982 -13.477   6.702  1.00  0.00    -0.263 N 
HETATM    3  O   UNL     1      41.705 -13.641   6.462  1.00  0.00    -0.266 OA
HETATM    4  H   UNL     1      44.851 -14.005   6.772  1.00  0.00     0.190 HD
ENDROOT
BRANCH   2   5
HETATM    5  N   UNL     1      43.861 -12.370   7.558  1.00  0.00    -0.265 N 
HETATM    6  C   UNL     1      44.746 -11.325   7.382  1.00  0.00     0.260 C 
HETATM    7  O   UNL     1      45.503 -11.251   6.413  1.00  0.00    -0.269 OA
HETATM    8  H   UNL     1      43.481 -12.546   8.490  1.00  0.00     0.190 HD
BRANCH   6   9
HETATM    9  C   UNL     1      44.696 -10.253   8.466  1.00  0.00     0.280 C 
BRANCH   9  10
HETATM   10  O   UNL     1      44.996 -10.790   9.751  1.00  0.00    -0.342 OA
BRANCH  10  11
HETATM   11  C   UNL     1      44.258 -10.312  10.800  1.00  0.00     0.069 A 
HETATM   12  C   UNL     1      44.175  -8.920  10.874  1.00  0.00     0.037 A 
HETATM   13  C   UNL     1      43.463  -8.302  11.906  1.00  0.00     0.009 A 
HETATM   14  C   UNL     1      42.818  -9.073  12.878  1.00  0.00    -0.062 A 
HETATM   15  C   UNL     1      42.049  -8.428  13.993  1.00  0.00     0.048 C 
HETATM   16  C   UNL     1      42.887 -10.468  12.790  1.00  0.00     0.009 A 
HETATM   17  C   UNL     1      43.600 -11.085  11.757  1.00  0.00     0.037 A 
ENDBRANCH  10  11
ENDBRANCH   9  10
ENDBRANCH   6   9
ENDBRANCH   2   5
BRANCH   1  18
HETATM   18  C   UNL     1      43.084 -15.338   5.570  1.00  0.00     0.077 A 
HETATM   19  C   UNL     1      43.499 -16.546   6.171  1.00  0.00     0.158 A 
HETATM   20  N   UNL     1      43.658 -17.534   5.295  1.00  0.00    -0.183 NA
HETATM   21  N   UNL     1      43.363 -16.967   4.107  1.00  0.00    -0.268 N 
HETATM   22  C   UNL     1      42.986 -15.641   4.219  1.00  0.00     0.052 A 
BRANCH  21  23
HETATM   23  C   UNL     1      43.487 -17.758   2.883  1.00  0.00     0.106 C 
HETATM   24  C   UNL     1      42.169 -17.898   2.108  1.00  0.00     0.034 C 
BRANCH  23  25
HETATM   25  C   UNL     1      44.158 -19.120   3.146  1.00  0.00     0.022 C 
HETATM   26  C   UNL     1      43.727 -20.244   2.212  1.00  0.00     0.007 C 
ENDBRANCH  23  25
ENDBRANCH  21  23
BRANCH  22  27
HETATM   27  C   UNL     1      42.544 -14.767   3.045  1.00  0.00     0.038 A 
HETATM   28  C   UNL     1      43.175 -13.407   2.842  1.00  0.00     0.011 A 
HETATM   29  C   UNL     1      43.473 -14.509   1.883  1.00  0.00     0.011 A 
ENDBRANCH  22  27
ENDBRANCH   1  18
TORSDOF 8
ENDMDL
MODEL 3
REMARK VINA RESULT:      -8.0      1.470      2.270
REMARK  8 active torsions:
REMARK  status: ('A' for Active; 'I' for Inactive)
REMARK    1  A    between atoms: C_2  and  C_3 
REMARK    2  A    between atoms: C_3  and  N_4 
REMARK    3  A    between atoms: C_7  and  C_8 
REMARK       I    between atoms: C_8  and  N_9 
REMARK    4  A    between atoms: N_9  and  N_10 
REMARK       I    between atoms: N_10  and  C_11 
REMARK    5  A    between atoms: C_11  and  C_12 
REMARK    6  A    between atoms: C_12  and  O_13 
REMARK    7  A    between atoms: O_13  and  C_14 
REMARK    8  A    between atoms: C_23  and  C_24 
ROOT
HETATM    1  C   UNL     1      43.458 -14.720   7.263  1.00  0.00     0.273 C 
HETATM    2  N   UNL     1      43.594 -13.414   6.835  1.00  0.00    -0.263 N 
HETATM    3  O   UNL     1      43.184 -15.020   8.422  1.00  0.00    -0.266 OA
HETATM    4  H   UNL     1      44.072 -13.214   5.957  1.00  0.00     0.190 HD
ENDROOT
BRANCH   2   5
HETATM    5  N   UNL     1      43.629 -12.396   7.802  1.00  0.00    -0.265 N 
HETATM    6  C   UNL     1      44.632 -11.452   7.704  1.00  0.00     0.260 C 
HETATM    7  O   UNL     1      45.371 -11.369   6.723  1.00  0.00    -0.269 OA
HETATM    8  H   UNL     1      43.250 -12.622   8.723  1.00  0.00     0.190 HD
BRANCH   6   9
HETATM    9  C   UNL     1      44.737 -10.502   8.893  1.00  0.00     0.280 C 
BRANCH   9  10
HETATM   10  O   UNL     1      44.194 -11.079  10.076  1.00  0.00    -0.342 OA
BRANCH  10  11
HETATM   11  C   UNL     1      43.738 -10.206  11.028  1.00  0.00     0.069 A 
HETATM   12  C   UNL     1      43.052 -10.799  12.089  1.00  0.00     0.037 A 
HETATM   13  C   UNL     1      42.522 -10.019  13.120  1.00  0.00     0.009 A 
HETATM   14  C   UNL     1      42.678  -8.630  13.106  1.00  0.00    -0.062 A 
HETATM   15  C   UNL     1      42.116  -7.776  14.203  1.00  0.00     0.048 C 
HETATM   16  C   UNL     1      43.383  -8.040  12.051  1.00  0.00     0.009 A 
HETATM   17  C   UNL     1      43.912  -8.822  11.018  1.00  0.00     0.037 A 
ENDBRANCH  10  11
ENDBRANCH   9  10
ENDBRANCH   6   9
ENDBRANCH   2   5
BRANCH   1  18
HETATM   18  C   UNL     1      43.630 -15.682   6.199  1.00  0.00     0.077 A 
HETATM   19  C   UNL     1      44.728 -16.561   6.073  1.00  0.00     0.158 A 
HETATM   20  N   UNL     1      44.641 -17.352   5.008  1.00  0.00    -0.183 NA
HETATM   21  N   UNL     1      43.486 -16.979   4.420  1.00  0.00    -0.268 N 
HETATM   22  C   UNL     1      42.821 -15.985   5.114  1.00  0.00     0.052 A 
BRANCH  21  23
HETATM   23  C   UNL     1      43.084 -17.610   3.162  1.00  0.00     0.106 C 
HETATM   24  C   UNL     1      43.617 -19.040   2.996  1.00  0.00     0.034 C 
BRANCH  23  25
HETATM   25  C   UNL     1      43.407 -16.720   1.946  1.00  0.00     0.022 C 
HETATM   26  C   UNL     1      42.245 -15.879   1.434  1.00  0.00     0.007 C 
ENDBRANCH  23  25
ENDBRANCH  21  23
BRANCH  22  27
HETATM   27  C   UNL     1      41.463 -15.409   4.709  1.00  0.00     0.038 A 
HETATM   28  C   UNL     1      40.216 -16.253   4.849  1.00  0.00     0.011 A 
HETATM   29  C   UNL     1      40.420 -15.084   5.751  1.00  0.00     0.011 A 
ENDBRANCH  22  27
ENDBRANCH   1  18
TORSDOF 8
ENDMDL
MODEL 4
REMARK VINA RESULT:      -7.9      1.951     10.183
REMARK  8 active torsions:
REMARK  status: ('A' for Active; 'I' for Inactive)
REMARK    1  A    between atoms: C_2  and  C_3 
REMARK    2  A    between atoms: C_3  and  N_4 
REMARK    3  A    between atoms: C_7  and  C_8 
REMARK       I    between atoms: C_8  and  N_9 
REMARK    4  A    between atoms: N_9  and  N_10 
REMARK       I    between atoms: N_10  and  C_11 
REMARK    5  A    between atoms: C_11  and  C_12 
REMARK    6  A    between atoms: C_12  and  O_13 
REMARK    7  A    between atoms: O_13  and  C_14 
REMARK    8  A    between atoms: C_23  and  C_24 
ROOT
HETATM    1  C   UNL     1      44.417 -11.123   7.603  1.00  0.00     0.273 C 
HETATM    2  N   UNL     1      43.555 -12.193   7.455  1.00  0.00    -0.263 N 
HETATM    3  O   UNL     1      45.274 -10.834   6.773  1.00  0.00    -0.266 OA
HETATM    4  H   UNL     1      43.052 -12.556   8.264  1.00  0.00     0.190 HD
ENDROOT
BRANCH   2   5
HETATM    5  N   UNL     1      43.803 -13.109   6.421  1.00  0.00    -0.265 N 
HETATM    6  C   UNL     1      42.747 -13.452   5.601  1.00  0.00     0.260 C 
HETATM    7  O   UNL     1      41.666 -12.865   5.630  1.00  0.00    -0.269 OA
HETATM    8  H   UNL     1      44.551 -13.788   6.576  1.00  0.00     0.190 HD
BRANCH   6   9
HETATM    9  C   UNL     1      43.031 -14.599   4.635  1.00  0.00     0.280 C 
BRANCH   9  10
HETATM   10  O   UNL     1      43.296 -15.816   5.327  1.00  0.00    -0.342 OA
BRANCH  10  11
HETATM   11  C   UNL     1      43.417 -16.941   4.557  1.00  0.00     0.069 A 
HETATM   12  C   UNL     1      42.752 -16.889   3.331  1.00  0.00     0.037 A 
HETATM   13  C   UNL     1      42.783 -17.977   2.455  1.00  0.00     0.009 A 
HETATM   14  C   UNL     1      43.486 -19.137   2.795  1.00  0.00    -0.062 A 
HETATM   15  C   UNL     1      43.531 -20.316   1.869  1.00  0.00     0.048 C 
HETATM   16  C   UNL     1      44.167 -19.180   4.017  1.00  0.00     0.009 A 
HETATM   17  C   UNL     1      44.135 -18.089   4.893  1.00  0.00     0.037 A 
ENDBRANCH  10  11
ENDBRANCH   9  10
ENDBRANCH   6   9
ENDBRANCH   2   5
BRANCH   1  18
HETATM   18  C   UNL     1      44.173 -10.367   8.810  1.00  0.00     0.077 A 
HETATM   19  C   UNL     1      45.091 -10.223   9.874  1.00  0.00     0.158 A 
HETATM   20  N   UNL     1      44.623  -9.468  10.864  1.00  0.00    -0.183 NA
HETATM   21  N   UNL     1      43.384  -9.128  10.456  1.00  0.00    -0.268 N 
HETATM   22  C   UNL     1      43.068  -9.627   9.206  1.00  0.00     0.052 A 
BRANCH  21  23
HETATM   23  C   UNL     1      42.532  -8.328  11.338  1.00  0.00     0.106 C 
HETATM   24  C   UNL     1      42.624  -6.819  11.073  1.00  0.00     0.034 C 
BRANCH  23  25
HETATM   25  C   UNL     1      42.757  -8.677  12.822  1.00  0.00     0.022 C 
HETATM   26  C   UNL     1      43.177  -7.507  13.704  1.00  0.00     0.007 C 
ENDBRANCH  23  25
ENDBRANCH  21  23
BRANCH  22  27
HETATM   27  C   UNL     1      41.754  -9.354   8.474  1.00  0.00     0.038 A 
HETATM   28  C   UNL     1      41.528  -8.015   7.808  1.00  0.00     0.011 A 
HETATM   29  C   UNL     1      41.720  -9.232   6.969  1.00  0.00     0.011 A 
ENDBRANCH  22  27
ENDBRANCH   1  18
TORSDOF 8
ENDMDL
MODEL 5
REMARK VINA RESULT:      -7.9      5.994     10.067
REMARK  8 active torsions:
REMARK  status: ('A' for Active; 'I' for Inactive)
REMARK    1  A    between atoms: C_2  and  C_3 
REMARK    2  A    between atoms: C_3  and  N_4 
REMARK    3  A    between atoms: C_7  and  C_8 
REMARK       I    between atoms: C_8  and  N_9 
REMARK    4  A    between atoms: N_9  and  N_10 
REMARK       I    between atoms: N_10  and  C_11 
REMARK    5  A    between atoms: C_11  and  C_12 
REMARK    6  A    between atoms: C_12  and  O_13 
REMARK    7  A    between atoms: O_13  and  C_14 
REMARK    8  A    between atoms: C_23  and  C_24 
ROOT
HETATM    1  C   UNL     1      39.977 -14.049   1.091  1.00  0.00     0.273 C 
HETATM    2  N   UNL     1      39.339 -14.222   2.305  1.00  0.00    -0.263 N 
HETATM    3  O   UNL     1      40.953 -14.711   0.747  1.00  0.00    -0.266 OA
HETATM    4  H   UNL     1      38.720 -13.495   2.661  1.00  0.00     0.190 HD
ENDROOT
BRANCH   2   5
HETATM    5  N   UNL     1      39.954 -15.036   3.270  1.00  0.00    -0.265 N 
HETATM    6  C   UNL     1      40.779 -14.425   4.193  1.00  0.00     0.260 C 
HETATM    7  O   UNL     1      40.854 -13.202   4.309  1.00  0.00    -0.269 OA
HETATM    8  H   UNL     1      40.139 -16.006   3.005  1.00  0.00     0.190 HD
BRANCH   6   9
HETATM    9  C   UNL     1      41.571 -15.383   5.078  1.00  0.00     0.280 C 
BRANCH   9  10
HETATM   10  O   UNL     1      42.884 -15.602   4.571  1.00  0.00    -0.342 OA
BRANCH  10  11
HETATM   11  C   UNL     1      43.098 -16.790   3.924  1.00  0.00     0.069 A 
HETATM   12  C   UNL     1      43.934 -17.683   4.597  1.00  0.00     0.037 A 
HETATM   13  C   UNL     1      44.245 -18.926   4.040  1.00  0.00     0.009 A 
HETATM   14  C   UNL     1      43.718 -19.295   2.798  1.00  0.00    -0.062 A 
HETATM   15  C   UNL     1      44.042 -20.624   2.184  1.00  0.00     0.048 C 
HETATM   16  C   UNL     1      42.866 -18.405   2.135  1.00  0.00     0.009 A 
HETATM   17  C   UNL     1      42.555 -17.161   2.694  1.00  0.00     0.037 A 
ENDBRANCH  10  11
ENDBRANCH   9  10
ENDBRANCH   6   9
ENDBRANCH   2   5
BRANCH   1  18
HETATM   18  C   UNL     1      39.350 -13.044   0.264  1.00  0.00     0.077 A 
HETATM   19  C   UNL     1      38.821 -11.823   0.736  1.00  0.00     0.158 A 
HETATM   20  N   UNL     1      38.306 -11.072  -0.232  1.00  0.00    -0.183 NA
HETATM   21  N   UNL     1      38.483 -11.810  -1.347  1.00  0.00    -0.268 N 
HETATM   22  C   UNL     1      39.132 -13.007  -1.106  1.00  0.00     0.052 A 
BRANCH  21  23
HETATM   23  C   UNL     1      37.977 -11.313  -2.626  1.00  0.00     0.106 C 
HETATM   24  C   UNL     1      38.967 -10.399  -3.363  1.00  0.00     0.034 C 
BRANCH  23  25
HETATM   25  C   UNL     1      36.584 -10.669  -2.481  1.00  0.00     0.022 C 
HETATM   26  C   UNL     1      35.531 -11.179  -3.457  1.00  0.00     0.007 C 
ENDBRANCH  23  25
ENDBRANCH  21  23
BRANCH  22  27
HETATM   27  C   UNL     1      39.514 -14.016  -2.189  1.00  0.00     0.038 A 
HETATM   28  C   UNL     1      38.850 -15.376  -2.218  1.00  0.00     0.011 A 
HETATM   29  C   UNL     1      38.539 -14.380  -3.283  1.00  0.00     0.011 A 
ENDBRANCH  22  27
ENDBRANCH   1  18
TORSDOF 8
ENDMDL
MODEL 6
REMARK VINA RESULT:      -7.8      2.307     10.106
REMARK  8 active torsions:
REMARK  status: ('A' for Active; 'I' for Inactive)
REMARK    1  A    between atoms: C_2  and  C_3 
REMARK    2  A    between atoms: C_3  and  N_4 
REMARK    3  A    between atoms: C_7  and  C_8 
REMARK       I    between atoms: C_8  and  N_9 
REMARK    4  A    between atoms: N_9  and  N_10 
REMARK       I    between atoms: N_10  and  C_11 
REMARK    5  A    between atoms: C_11  and  C_12 
REMARK    6  A    between atoms: C_12  and  O_13 
REMARK    7  A    between atoms: O_13  and  C_14 
REMARK    8  A    between atoms: C_23  and  C_24 
ROOT
HETATM    1  C   UNL     1      42.271 -10.307   6.642  1.00  0.00     0.273 C 
HETATM    2  N   UNL     1      42.243 -11.678   6.805  1.00  0.00    -0.263 N 
HETATM    3  O   UNL     1      42.338  -9.764   5.543  1.00  0.00    -0.266 OA
HETATM    4  H   UNL     1      42.454 -12.087   7.715  1.00  0.00     0.190 HD
ENDROOT
BRANCH   2   5
HETATM    5  N   UNL     1      42.512 -12.487   5.689  1.00  0.00    -0.265 N 
HETATM    6  C   UNL     1      42.156 -13.819   5.762  1.00  0.00     0.260 C 
HETATM    7  O   UNL     1      41.468 -14.274   6.676  1.00  0.00    -0.269 OA
HETATM    8  H   UNL     1      43.305 -12.217   5.104  1.00  0.00     0.190 HD
BRANCH   6   9
HETATM    9  C   UNL     1      42.658 -14.681   4.606  1.00  0.00     0.280 C 
BRANCH   9  10
HETATM   10  O   UNL     1      43.613 -15.642   5.044  1.00  0.00    -0.342 OA
BRANCH  10  11
HETATM   11  C   UNL     1      43.650 -16.824   4.354  1.00  0.00     0.069 A 
HETATM   12  C   UNL     1      43.074 -16.781   3.084  1.00  0.00     0.037 A 
HETATM   13  C   UNL     1      43.033 -17.923   2.280  1.00  0.00     0.009 A 
HETATM   14  C   UNL     1      43.574 -19.128   2.738  1.00  0.00    -0.062 A 
HETATM   15  C   UNL     1      43.539 -20.365   1.890  1.00  0.00     0.048 C 
HETATM   16  C   UNL     1      44.168 -19.164   4.004  1.00  0.00     0.009 A 
HETATM   17  C   UNL     1      44.209 -18.019   4.808  1.00  0.00     0.037 A 
ENDBRANCH  10  11
ENDBRANCH   9  10
ENDBRANCH   6   9
ENDBRANCH   2   5
BRANCH   1  18
HETATM   18  C   UNL     1      42.173  -9.590   7.893  1.00  0.00     0.077 A 
HETATM   19  C   UNL     1      40.966  -9.287   8.559  1.00  0.00     0.158 A 
HETATM   20  N   UNL     1      41.153  -8.625   9.697  1.00  0.00    -0.183 NA
HETATM   21  N   UNL     1      42.491  -8.477   9.771  1.00  0.00    -0.268 N 
HETATM   22  C   UNL     1      43.161  -9.064   8.713  1.00  0.00     0.052 A 
BRANCH  21  23
HETATM   23  C   UNL     1      43.071  -7.730  10.888  1.00  0.00     0.106 C 
HETATM   24  C   UNL     1      43.133  -8.533  12.195  1.00  0.00     0.034 C 
BRANCH  23  25
HETATM   25  C   UNL     1      42.390  -6.360  11.076  1.00  0.00     0.022 C 
HETATM   26  C   UNL     1      42.601  -5.372   9.935  1.00  0.00     0.007 C 
ENDBRANCH  23  25
ENDBRANCH  21  23
BRANCH  22  27
HETATM   27  C   UNL     1      44.682  -9.098   8.566  1.00  0.00     0.038 A 
HETATM   28  C   UNL     1      45.516  -9.882   9.556  1.00  0.00     0.011 A 
HETATM   29  C   UNL     1      45.390 -10.366   8.152  1.00  0.00     0.011 A 
ENDBRANCH  22  27
ENDBRANCH   1  18
TORSDOF 8
ENDMDL
MODEL 7
REMARK VINA RESULT:      -7.7      1.458      1.876
REMARK  8 active torsions:
REMARK  status: ('A' for Active; 'I' for Inactive)
REMARK    1  A    between atoms: C_2  and  C_3 
REMARK    2  A    between atoms: C_3  and  N_4 
REMARK    3  A    between atoms: C_7  and  C_8 
REMARK       I    between atoms: C_8  and  N_9 
REMARK    4  A    between atoms: N_9  and  N_10 
REMARK       I    between atoms: N_10  and  C_11 
REMARK    5  A    between atoms: C_11  and  C_12 
REMARK    6  A    between atoms: C_12  and  O_13 
REMARK    7  A    between atoms: O_13  and  C_14 
REMARK    8  A    between atoms: C_23  and  C_24 
ROOT
HETATM    1  C   UNL     1      42.943 -12.205   5.496  1.00  0.00     0.273 C 
HETATM    2  N   UNL     1      44.025 -12.336   6.345  1.00  0.00    -0.263 N 
HETATM    3  O   UNL     1      42.152 -11.268   5.558  1.00  0.00    -0.266 OA
HETATM    4  H   UNL     1      44.491 -13.238   6.439  1.00  0.00     0.190 HD
ENDROOT
BRANCH   2   5
HETATM    5  N   UNL     1      44.107 -11.481   7.456  1.00  0.00    -0.265 N 
HETATM    6  C   UNL     1      45.327 -10.890   7.721  1.00  0.00     0.260 C 
HETATM    7  O   UNL     1      46.275 -10.944   6.938  1.00  0.00    -0.269 OA
HETATM    8  H   UNL     1      43.468 -11.667   8.230  1.00  0.00     0.190 HD
BRANCH   6   9
HETATM    9  C   UNL     1      45.401 -10.142   9.049  1.00  0.00     0.280 C 
BRANCH   9  10
HETATM   10  O   UNL     1      44.975 -10.957  10.137  1.00  0.00    -0.342 OA
BRANCH  10  11
HETATM   11  C   UNL     1      44.182 -10.355  11.077  1.00  0.00     0.069 A 
HETATM   12  C   UNL     1      44.220  -8.960  11.070  1.00  0.00     0.037 A 
HETATM   13  C   UNL     1      43.467  -8.222  11.988  1.00  0.00     0.009 A 
HETATM   14  C   UNL     1      42.661  -8.874  12.925  1.00  0.00    -0.062 A 
HETATM   15  C   UNL     1      41.846  -8.100  13.919  1.00  0.00     0.048 C 
HETATM   16  C   UNL     1      42.610 -10.273  12.917  1.00  0.00     0.009 A 
HETATM   17  C   UNL     1      43.364 -11.010  11.997  1.00  0.00     0.037 A 
ENDBRANCH  10  11
ENDBRANCH   9  10
ENDBRANCH   6   9
ENDBRANCH   2   5
BRANCH   1  18
HETATM   18  C   UNL     1      42.869 -13.260   4.512  1.00  0.00     0.077 A 
HETATM   19  C   UNL     1      43.381 -13.177   3.198  1.00  0.00     0.158 A 
HETATM   20  N   UNL     1      43.191 -14.290   2.496  1.00  0.00    -0.183 NA
HETATM   21  N   UNL     1      42.535 -15.105   3.348  1.00  0.00    -0.268 N 
HETATM   22  C   UNL     1      42.334 -14.537   4.593  1.00  0.00     0.052 A 
BRANCH  21  23
HETATM   23  C   UNL     1      42.102 -16.425   2.890  1.00  0.00     0.106 C 
HETATM   24  C   UNL     1      43.261 -17.335   2.460  1.00  0.00     0.034 C 
BRANCH  23  25
HETATM   25  C   UNL     1      41.005 -16.326   1.811  1.00  0.00     0.022 C 
HETATM   26  C   UNL     1      39.738 -15.599   2.243  1.00  0.00     0.007 C 
ENDBRANCH  23  25
ENDBRANCH  21  23
BRANCH  22  27
HETATM   27  C   UNL     1      41.667 -15.251   5.770  1.00  0.00     0.038 A 
HETATM   28  C   UNL     1      42.257 -16.539   6.300  1.00  0.00     0.011 A 
HETATM   29  C   UNL     1      42.336 -15.298   7.123  1.00  0.00     0.011 A 
ENDBRANCH  22  27
ENDBRANCH   1  18
TORSDOF 8
ENDMDL
MODEL 8
REMARK VINA RESULT:      -7.4      2.370     10.031
REMARK  8 active torsions:
REMARK  status: ('A' for Active; 'I' for Inactive)
REMARK    1  A    between atoms: C_2  and  C_3 
REMARK    2  A    between atoms: C_3  and  N_4 
REMARK    3  A    between atoms: C_7  and  C_8 
REMARK       I    between atoms: C_8  and  N_9 
REMARK    4  A    between atoms: N_9  and  N_10 
REMARK       I    between atoms: N_10  and  C_11 
REMARK    5  A    between atoms: C_11  and  C_12 
REMARK    6  A    between atoms: C_12  and  O_13 
REMARK    7  A    between atoms: O_13  and  C_14 
REMARK    8  A    between atoms: C_23  and  C_24 
ROOT
HETATM    1  C   UNL     1      44.320 -10.709   8.980  1.00  0.00     0.273 C 
HETATM    2  N   UNL     1      43.410 -11.079   8.009  1.00  0.00    -0.263 N 
HETATM    3  O   UNL     1      45.533 -10.697   8.791  1.00  0.00    -0.266 OA
HETATM    4  H   UNL     1      42.458 -11.331   8.274  1.00  0.00     0.190 HD
ENDROOT
BRANCH   2   5
HETATM    5  N   UNL     1      43.896 -11.665   6.829  1.00  0.00    -0.265 N 
HETATM    6  C   UNL     1      43.403 -11.193   5.629  1.00  0.00     0.260 C 
HETATM    7  O   UNL     1      42.703 -10.184   5.549  1.00  0.00    -0.269 OA
HETATM    8  H   UNL     1      44.206 -12.637   6.890  1.00  0.00     0.190 HD
BRANCH   6   9
HETATM    9  C   UNL     1      43.814 -12.005   4.403  1.00  0.00     0.280 C 
BRANCH   9  10
HETATM   10  O   UNL     1      42.691 -12.618   3.778  1.00  0.00    -0.342 OA
BRANCH  10  11
HETATM   11  C   UNL     1      42.854 -13.913   3.365  1.00  0.00     0.069 A 
HETATM   12  C   UNL     1      42.712 -14.873   4.368  1.00  0.00     0.037 A 
HETATM   13  C   UNL     1      42.868 -16.232   4.083  1.00  0.00     0.009 A 
HETATM   14  C   UNL     1      43.165 -16.650   2.782  1.00  0.00    -0.062 A 
HETATM   15  C   UNL     1      43.337 -18.104   2.456  1.00  0.00     0.048 C 
HETATM   16  C   UNL     1      43.289 -15.687   1.774  1.00  0.00     0.009 A 
HETATM   17  C   UNL     1      43.132 -14.327   2.062  1.00  0.00     0.037 A 
ENDBRANCH  10  11
ENDBRANCH   9  10
ENDBRANCH   6   9
ENDBRANCH   2   5
BRANCH   1  18
HETATM   18  C   UNL     1      43.691 -10.303  10.215  1.00  0.00     0.077 A 
HETATM   19  C   UNL     1      43.753 -11.022  11.429  1.00  0.00     0.158 A 
HETATM   20  N   UNL     1      43.095 -10.427  12.419  1.00  0.00    -0.183 NA
HETATM   21  N   UNL     1      42.584  -9.317  11.849  1.00  0.00    -0.268 N 
HETATM   22  C   UNL     1      42.934  -9.181  10.519  1.00  0.00     0.052 A 
BRANCH  21  23
HETATM   23  C   UNL     1      41.735  -8.427  12.643  1.00  0.00     0.106 C 
HETATM   24  C   UNL     1      42.304  -8.118  14.035  1.00  0.00     0.034 C 
BRANCH  23  25
HETATM   25  C   UNL     1      40.279  -8.929  12.705  1.00  0.00     0.022 C 
HETATM   26  C   UNL     1      39.381  -8.445  11.573  1.00  0.00     0.007 C 
ENDBRANCH  23  25
ENDBRANCH  21  23
BRANCH  22  27
HETATM   27  C   UNL     1      42.541  -7.993   9.639  1.00  0.00     0.038 A 
HETATM   28  C   UNL     1      43.141  -6.630   9.904  1.00  0.00     0.011 A 
HETATM   29  C   UNL     1      43.533  -7.383   8.678  1.00  0.00     0.011 A 
ENDBRANCH  22  27
ENDBRANCH   1  18
TORSDOF 8
ENDMDL
MODEL 9
REMARK VINA RESULT:      -7.4      2.469      9.548
REMARK  8 active torsions:
REMARK  status: ('A' for Active; 'I' for Inactive)
REMARK    1  A    between atoms: C_2  and  C_3 
REMARK    2  A    between atoms: C_3  and  N_4 
REMARK    3  A    between atoms: C_7  and  C_8 
REMARK       I    between atoms: C_8  and  N_9 
REMARK    4  A    between atoms: N_9  and  N_10 
REMARK       I    between atoms: N_10  and  C_11 
REMARK    5  A    between atoms: C_11  and  C_12 
REMARK    6  A    between atoms: C_12  and  O_13 
REMARK    7  A    between atoms: O_13  and  C_14 
REMARK    8  A    between atoms: C_23  and  C_24 
ROOT
HETATM    1  C   UNL     1      43.155 -11.472   6.321  1.00  0.00     0.273 C 
HETATM    2  N   UNL     1      42.861 -12.721   6.833  1.00  0.00    -0.263 N 
HETATM    3  O   UNL     1      43.513 -11.290   5.161  1.00  0.00    -0.266 OA
HETATM    4  H   UNL     1      42.830 -12.862   7.842  1.00  0.00     0.190 HD
ENDROOT
BRANCH   2   5
HETATM    5  N   UNL     1      43.183 -13.849   6.061  1.00  0.00    -0.265 N 
HETATM    6  C   UNL     1      43.307 -15.059   6.715  1.00  0.00     0.260 C 
HETATM    7  O   UNL     1      42.979 -15.214   7.891  1.00  0.00    -0.269 OA
HETATM    8  H   UNL     1      43.728 -13.687   5.212  1.00  0.00     0.190 HD
BRANCH   6   9
HETATM    9  C   UNL     1      43.857 -16.196   5.859  1.00  0.00     0.280 C 
BRANCH   9  10
HETATM   10  O   UNL     1      42.812 -16.975   5.286  1.00  0.00    -0.342 OA
BRANCH  10  11
HETATM   11  C   UNL     1      42.295 -16.525   4.101  1.00  0.00     0.069 A 
HETATM   12  C   UNL     1      40.935 -16.214   4.134  1.00  0.00     0.037 A 
HETATM   13  C   UNL     1      40.279 -15.756   2.988  1.00  0.00     0.009 A 
HETATM   14  C   UNL     1      40.981 -15.599   1.789  1.00  0.00    -0.062 A 
HETATM   15  C   UNL     1      40.295 -15.110   0.548  1.00  0.00     0.048 C 
HETATM   16  C   UNL     1      42.349 -15.893   1.763  1.00  0.00     0.009 A 
HETATM   17  C   UNL     1      43.004 -16.351   2.912  1.00  0.00     0.037 A 
ENDBRANCH  10  11
ENDBRANCH   9  10
ENDBRANCH   6   9
ENDBRANCH   2   5
BRANCH   1  18
HETATM   18  C   UNL     1      42.958 -10.410   7.281  1.00  0.00     0.077 A 
HETATM   19  C   UNL     1      41.750  -9.705   7.470  1.00  0.00     0.158 A 
HETATM   20  N   UNL     1      41.831  -8.781   8.423  1.00  0.00    -0.183 NA
HETATM   21  N   UNL     1      43.106  -8.868   8.852  1.00  0.00    -0.268 N 
HETATM   22  C   UNL     1      43.828  -9.856   8.209  1.00  0.00     0.052 A 
BRANCH  21  23
HETATM   23  C   UNL     1      43.582  -7.944   9.882  1.00  0.00     0.106 C 
HETATM   24  C   UNL     1      43.408  -8.476  11.311  1.00  0.00     0.034 C 
BRANCH  23  25
HETATM   25  C   UNL     1      42.985  -6.534   9.706  1.00  0.00     0.022 C 
HETATM   26  C   UNL     1      42.369  -5.932  10.963  1.00  0.00     0.007 C 
ENDBRANCH  23  25
ENDBRANCH  21  23
BRANCH  22  27
HETATM   27  C   UNL     1      45.280 -10.214   8.531  1.00  0.00     0.038 A 
HETATM   28  C   UNL     1      46.207 -10.664   7.424  1.00  0.00     0.011 A 
HETATM   29  C   UNL     1      46.414  -9.334   8.065  1.00  0.00     0.011 A 
ENDBRANCH  22  27
ENDBRANCH   1  18
TORSDOF 8
ENDMDL
MODEL 10
REMARK VINA RESULT:      -7.3      2.410      9.557
REMARK  8 active torsions:
REMARK  status: ('A' for Active; 'I' for Inactive)
REMARK    1  A    between atoms: C_2  and  C_3 
REMARK    2  A    between atoms: C_3  and  N_4 
REMARK    3  A    between atoms: C_7  and  C_8 
REMARK       I    between atoms: C_8  and  N_9 
REMARK    4  A    between atoms: N_9  and  N_10 
REMARK       I    between atoms: N_10  and  C_11 
REMARK    5  A    between atoms: C_11  and  C_12 
REMARK    6  A    between atoms: C_12  and  O_13 
REMARK    7  A    between atoms: O_13  and  C_14 
REMARK    8  A    between atoms: C_23  and  C_24 
ROOT
HETATM    1  C   UNL     1      44.390 -11.766   7.075  1.00  0.00     0.273 C 
HETATM    2  N   UNL     1      43.644 -12.901   7.330  1.00  0.00    -0.263 N 
HETATM    3  O   UNL     1      45.011 -11.593   6.030  1.00  0.00    -0.266 OA
HETATM    4  H   UNL     1      43.371 -13.125   8.286  1.00  0.00     0.190 HD
ENDROOT
BRANCH   2   5
HETATM    5  N   UNL     1      43.770 -13.990   6.452  1.00  0.00    -0.265 N 
HETATM    6  C   UNL     1      43.498 -15.249   6.951  1.00  0.00     0.260 C 
HETATM    7  O   UNL     1      42.991 -15.430   8.058  1.00  0.00    -0.269 OA
HETATM    8  H   UNL     1      44.443 -13.894   5.690  1.00  0.00     0.190 HD
BRANCH   6   9
HETATM    9  C   UNL     1      43.850 -16.400   6.012  1.00  0.00     0.280 C 
BRANCH   9  10
HETATM   10  O   UNL     1      42.688 -17.109   5.591  1.00  0.00    -0.342 OA
BRANCH  10  11
HETATM   11  C   UNL     1      42.059 -16.639   4.470  1.00  0.00     0.069 A 
HETATM   12  C   UNL     1      42.809 -16.726   3.295  1.00  0.00     0.037 A 
HETATM   13  C   UNL     1      42.289 -16.268   2.082  1.00  0.00     0.009 A 
HETATM   14  C   UNL     1      41.004 -15.719   2.027  1.00  0.00    -0.062 A 
HETATM   15  C   UNL     1      40.429 -15.222   0.734  1.00  0.00     0.048 C 
HETATM   16  C   UNL     1      40.248 -15.651   3.202  1.00  0.00     0.009 A 
HETATM   17  C   UNL     1      40.770 -16.109   4.416  1.00  0.00     0.037 A 
ENDBRANCH  10  11
ENDBRANCH   9  10
ENDBRANCH   6   9
ENDBRANCH   2   5
BRANCH   1  18
HETATM   18  C   UNL     1      44.324 -10.798   8.145  1.00  0.00     0.077 A 
HETATM   19  C   UNL     1      45.372 -10.520   9.050  1.00  0.00     0.158 A 
HETATM   20  N   UNL     1      45.057  -9.579   9.935  1.00  0.00    -0.183 NA
HETATM   21  N   UNL     1      43.789  -9.247   9.621  1.00  0.00    -0.268 N 
HETATM   22  C   UNL     1      43.303  -9.940   8.528  1.00  0.00     0.052 A 
BRANCH  21  23
HETATM   23  C   UNL     1      43.081  -8.260  10.437  1.00  0.00     0.106 C 
HETATM   24  C   UNL     1      43.159  -6.833   9.876  1.00  0.00     0.034 C 
BRANCH  23  25
HETATM   25  C   UNL     1      43.505  -8.331  11.917  1.00  0.00     0.022 C 
HETATM   26  C   UNL     1      42.368  -8.568  12.904  1.00  0.00     0.007 C 
ENDBRANCH  23  25
ENDBRANCH  21  23
BRANCH  22  27
HETATM   27  C   UNL     1      41.917  -9.728   7.917  1.00  0.00     0.038 A 
HETATM   28  C   UNL     1      41.676  -8.560   6.986  1.00  0.00     0.011 A 
HETATM   29  C   UNL     1      41.681  -9.948   6.442  1.00  0.00     0.011 A 
ENDBRANCH  22  27
ENDBRANCH   1  18
TORSDOF 8
ENDMDL
