MODEL 1
REMARK VINA RESULT:      -7.7      0.000      0.000
REMARK  7 active torsions:
REMARK  status: ('A' for Active; 'I' for Inactive)
REMARK    1  A    between atoms: O_2  and  C_3 
REMARK    2  A    between atoms: C_4  and  C_5 
REMARK    3  A    between atoms: C_6  and  C_7 
REMARK       I    between atoms: C_7  and  N_8 
REMARK    4  A    between atoms: N_8  and  C_9 
REMARK    5  A    between atoms: C_9  and  C_10 
REMARK    6  A    between atoms: C_10  and  N_11 
REMARK    7  A    between atoms: C_10  and  C_18 
ROOT
HETATM    1  C   UNL     1      42.086 -14.937   6.885  1.00  0.00     0.241 C 
HETATM    2  N   UNL     1      42.575 -13.679   6.619  1.00  0.00    -0.355 N 
HETATM    3  O   UNL     1      42.715 -15.772   7.516  1.00  0.00    -0.269 OA
HETATM    4  H   UNL     1      42.032 -13.081   6.004  1.00  0.00     0.162 HD
ENDROOT
BRANCH   2   5
HETATM    5  C   UNL     1      43.990 -13.384   6.808  1.00  0.00     0.163 C 
BRANCH   5   6
HETATM    6  C   UNL     1      44.511 -12.069   6.174  1.00  0.00     0.262 C 
BRANCH   6   7
HETATM    7  N   UNL     1      44.761 -10.935   7.174  1.00  0.00    -0.059 N 
HETATM    8  H   UNL     1      44.353 -10.130   6.677  1.00  0.00     0.280 HD
HETATM    9  C   UNL     1      44.006 -11.002   8.478  1.00  0.00     0.236 C 
HETATM   10  C   UNL     1      44.075  -9.634   9.148  1.00  0.00     0.028 C 
HETATM   11  C   UNL     1      45.521  -9.194   9.366  1.00  0.00     0.003 C 
HETATM   12  C   UNL     1      46.333  -9.265   8.076  1.00  0.00     0.028 C 
HETATM   13  C   UNL     1      46.219 -10.628   7.402  1.00  0.00     0.236 C 
ENDBRANCH   6   7
BRANCH   6  14
HETATM   14  C   UNL     1      43.688 -11.607   5.007  1.00  0.00     0.085 A 
HETATM   15  O   UNL     1      42.612 -10.817   5.315  1.00  0.00    -0.325 OA
HETATM   16  C   UNL     1      42.010 -10.487   4.144  1.00  0.00     0.142 A 
HETATM   17  C   UNL     1      42.687 -11.040   3.084  1.00  0.00     0.027 A 
HETATM   18  C   UNL     1      43.777 -11.753   3.636  1.00  0.00     0.037 A 
ENDBRANCH   6  14
ENDBRANCH   5   6
ENDBRANCH   2   5
BRANCH   1  19
HETATM   19  C   UNL     1      40.711 -15.136   6.372  1.00  0.00     0.075 C 
HETATM   20  C   UNL     1      40.431 -15.545   5.126  1.00  0.00     0.020 C 
BRANCH  20  21
HETATM   21  C   UNL     1      41.414 -15.793   4.065  1.00  0.00    -0.001 A 
HETATM   22  C   UNL     1      41.627 -14.862   3.038  1.00  0.00     0.078 A 
HETATM   23  C   UNL     1      42.536 -15.130   2.011  1.00  0.00     0.039 A 
HETATM   24  C   UNL     1      43.280 -16.310   2.030  1.00  0.00     0.022 A 
HETATM   25  C   UNL     1      43.098 -17.222   3.069  1.00  0.00     0.012 A 
HETATM   26  C   UNL     1      42.174 -16.972   4.084  1.00  0.00     0.033 A 
HETATM   27 BR   UNL     1      44.103 -18.824   3.098  1.00  0.00    -0.051 Br
BRANCH  22  28
HETATM   28  O   UNL     1      40.872 -13.717   2.987  1.00  0.00    -0.355 OA
HETATM   29  C   UNL     1      40.176 -13.631   1.743  1.00  0.00     0.210 C 
ENDBRANCH  22  28
ENDBRANCH  20  21
ENDBRANCH   1  19
TORSDOF 7
ENDMDL
MODEL 2
REMARK VINA RESULT:      -7.4      4.139      7.037
REMARK  7 active torsions:
REMARK  status: ('A' for Active; 'I' for Inactive)
REMARK    1  A    between atoms: O_2  and  C_3 
REMARK    2  A    between atoms: C_4  and  C_5 
REMARK    3  A    between atoms: C_6  and  C_7 
REMARK       I    between atoms: C_7  and  N_8 
REMARK    4  A    between atoms: N_8  and  C_9 
REMARK    5  A    between atoms: C_9  and  C_10 
REMARK    6  A    between atoms: C_10  and  N_11 
REMARK    7  A    between atoms: C_10  and  C_18 
ROOT
HETATM    1  C   UNL     1      40.520 -14.930   2.432  1.00  0.00     0.241 C 
HETATM    2  N   UNL     1      41.745 -14.861   3.053  1.00  0.00    -0.355 N 
HETATM    3  O   UNL     1      40.178 -15.881   1.747  1.00  0.00    -0.269 OA
HETATM    4  H   UNL     1      41.990 -13.994   3.521  1.00  0.00     0.162 HD
ENDROOT
BRANCH   2   5
HETATM    5  C   UNL     1      42.816 -15.774   2.673  1.00  0.00     0.163 C 
BRANCH   5   6
HETATM    6  C   UNL     1      43.496 -16.556   3.825  1.00  0.00     0.262 C 
BRANCH   6   7
HETATM    7  N   UNL     1      43.446 -18.081   3.677  1.00  0.00    -0.059 N 
HETATM    8  H   UNL     1      42.481 -18.284   3.976  1.00  0.00     0.280 HD
HETATM    9  C   UNL     1      43.535 -18.629   2.274  1.00  0.00     0.236 C 
HETATM   10  C   UNL     1      43.081 -20.084   2.294  1.00  0.00     0.028 C 
HETATM   11  C   UNL     1      43.914 -20.914   3.269  1.00  0.00     0.003 C 
HETATM   12  C   UNL     1      43.950 -20.284   4.658  1.00  0.00     0.028 C 
HETATM   13  C   UNL     1      44.368 -18.819   4.612  1.00  0.00     0.236 C 
ENDBRANCH   6   7
BRANCH   6  14
HETATM   14  C   UNL     1      43.045 -16.117   5.188  1.00  0.00     0.085 A 
HETATM   15  O   UNL     1      41.750 -16.425   5.512  1.00  0.00    -0.325 OA
HETATM   16  C   UNL     1      41.535 -15.971   6.774  1.00  0.00     0.142 A 
HETATM   17  C   UNL     1      42.674 -15.386   7.273  1.00  0.00     0.027 A 
HETATM   18  C   UNL     1      43.653 -15.489   6.257  1.00  0.00     0.037 A 
ENDBRANCH   6  14
ENDBRANCH   5   6
ENDBRANCH   2   5
BRANCH   1  19
HETATM   19  C   UNL     1      39.660 -13.763   2.732  1.00  0.00     0.075 C 
HETATM   20  C   UNL     1      39.301 -12.846   1.821  1.00  0.00     0.020 C 
BRANCH  20  21
HETATM   21  C   UNL     1      39.744 -12.810   0.422  1.00  0.00    -0.001 A 
HETATM   22  C   UNL     1      40.823 -12.008   0.022  1.00  0.00     0.078 A 
HETATM   23  C   UNL     1      41.208 -11.952  -1.321  1.00  0.00     0.039 A 
HETATM   24  C   UNL     1      40.549 -12.737  -2.267  1.00  0.00     0.022 A 
HETATM   25  C   UNL     1      39.500 -13.562  -1.868  1.00  0.00     0.012 A 
HETATM   26  C   UNL     1      39.095 -13.605  -0.533  1.00  0.00     0.033 A 
HETATM   27 BR   UNL     1      38.604 -14.628  -3.148  1.00  0.00    -0.051 Br
BRANCH  22  28
HETATM   28  O   UNL     1      41.452 -11.202   0.937  1.00  0.00    -0.355 OA
HETATM   29  C   UNL     1      41.537  -9.862   0.448  1.00  0.00     0.210 C 
ENDBRANCH  22  28
ENDBRANCH  20  21
ENDBRANCH   1  19
TORSDOF 7
ENDMDL
MODEL 3
REMARK VINA RESULT:      -7.4      2.021      4.086
REMARK  7 active torsions:
REMARK  status: ('A' for Active; 'I' for Inactive)
REMARK    1  A    between atoms: O_2  and  C_3 
REMARK    2  A    between atoms: C_4  and  C_5 
REMARK    3  A    between atoms: C_6  and  C_7 
REMARK       I    between atoms: C_7  and  N_8 
REMARK    4  A    between atoms: N_8  and  C_9 
REMARK    5  A    between atoms: C_9  and  C_10 
REMARK    6  A    between atoms: C_10  and  N_11 
REMARK    7  A    between atoms: C_10  and  C_18 
ROOT
HETATM    1  C   UNL     1      43.059 -15.162   6.861  1.00  0.00     0.241 C 
HETATM    2  N   UNL     1      42.875 -13.836   7.173  1.00  0.00    -0.355 N 
HETATM    3  O   UNL     1      44.163 -15.650   6.670  1.00  0.00    -0.269 OA
HETATM    4  H   UNL     1      41.922 -13.488   7.218  1.00  0.00     0.162 HD
ENDROOT
BRANCH   2   5
HETATM    5  C   UNL     1      43.958 -12.877   6.986  1.00  0.00     0.163 C 
BRANCH   5   6
HETATM    6  C   UNL     1      43.550 -11.385   6.888  1.00  0.00     0.262 C 
BRANCH   6   7
HETATM    7  N   UNL     1      43.054 -10.950   5.504  1.00  0.00    -0.059 N 
HETATM    8  H   UNL     1      43.763 -10.247   5.245  1.00  0.00     0.280 HD
HETATM    9  C   UNL     1      43.119 -11.982   4.406  1.00  0.00     0.236 C 
HETATM   10  C   UNL     1      42.968 -11.271   3.066  1.00  0.00     0.028 C 
HETATM   11  C   UNL     1      41.667 -10.473   3.003  1.00  0.00     0.003 C 
HETATM   12  C   UNL     1      41.525  -9.530   4.194  1.00  0.00     0.028 C 
HETATM   13  C   UNL     1      41.719 -10.253   5.522  1.00  0.00     0.236 C 
ENDBRANCH   6   7
BRANCH   6  14
HETATM   14  C   UNL     1      44.594 -10.448   7.423  1.00  0.00     0.085 A 
HETATM   15  O   UNL     1      44.119  -9.340   8.074  1.00  0.00    -0.325 OA
HETATM   16  C   UNL     1      45.197  -8.632   8.497  1.00  0.00     0.142 A 
HETATM   17  C   UNL     1      46.360  -9.271   8.141  1.00  0.00     0.027 A 
HETATM   18  C   UNL     1      45.974 -10.449   7.458  1.00  0.00     0.037 A 
ENDBRANCH   6  14
ENDBRANCH   5   6
ENDBRANCH   2   5
BRANCH   1  19
HETATM   19  C   UNL     1      41.792 -15.926   6.839  1.00  0.00     0.075 C 
HETATM   20  C   UNL     1      41.267 -16.470   5.730  1.00  0.00     0.020 C 
BRANCH  20  21
HETATM   21  C   UNL     1      41.814 -16.345   4.374  1.00  0.00    -0.001 A 
HETATM   22  C   UNL     1      42.808 -17.218   3.908  1.00  0.00     0.078 A 
HETATM   23  C   UNL     1      43.349 -17.062   2.629  1.00  0.00     0.039 A 
HETATM   24  C   UNL     1      42.865 -16.061   1.786  1.00  0.00     0.022 A 
HETATM   25  C   UNL     1      41.852 -15.214   2.232  1.00  0.00     0.012 A 
HETATM   26  C   UNL     1      41.324 -15.350   3.516  1.00  0.00     0.033 A 
HETATM   27 BR   UNL     1      41.194 -13.857   1.092  1.00  0.00    -0.051 Br
BRANCH  22  28
HETATM   28  O   UNL     1      43.320 -18.179   4.743  1.00  0.00    -0.355 OA
HETATM   29  C   UNL     1      44.567 -18.663   4.243  1.00  0.00     0.210 C 
ENDBRANCH  22  28
ENDBRANCH  20  21
ENDBRANCH   1  19
TORSDOF 7
ENDMDL
MODEL 4
REMARK VINA RESULT:      -7.2      4.409      7.295
REMARK  7 active torsions:
REMARK  status: ('A' for Active; 'I' for Inactive)
REMARK    1  A    between atoms: O_2  and  C_3 
REMARK    2  A    between atoms: C_4  and  C_5 
REMARK    3  A    between atoms: C_6  and  C_7 
REMARK       I    between atoms: C_7  and  N_8 
REMARK    4  A    between atoms: N_8  and  C_9 
REMARK    5  A    between atoms: C_9  and  C_10 
REMARK    6  A    between atoms: C_10  and  N_11 
REMARK    7  A    between atoms: C_10  and  C_18 
ROOT
HETATM    1  C   UNL     1      41.614 -13.952   2.181  1.00  0.00     0.241 C 
HETATM    2  N   UNL     1      41.816 -15.300   1.999  1.00  0.00    -0.355 N 
HETATM    3  O   UNL     1      42.532 -13.148   2.244  1.00  0.00    -0.269 OA
HETATM    4  H   UNL     1      41.008 -15.912   2.057  1.00  0.00     0.162 HD
ENDROOT
BRANCH   2   5
HETATM    5  C   UNL     1      43.142 -15.878   2.184  1.00  0.00     0.163 C 
BRANCH   5   6
HETATM    6  C   UNL     1      43.410 -16.569   3.545  1.00  0.00     0.262 C 
BRANCH   6   7
HETATM    7  N   UNL     1      43.414 -18.101   3.492  1.00  0.00    -0.059 N 
HETATM    8  H   UNL     1      42.482 -18.321   3.873  1.00  0.00     0.280 HD
HETATM    9  C   UNL     1      43.426 -18.732   2.122  1.00  0.00     0.236 C 
HETATM   10  C   UNL     1      43.037 -20.199   2.263  1.00  0.00     0.028 C 
HETATM   11  C   UNL     1      43.972 -20.934   3.220  1.00  0.00     0.003 C 
HETATM   12  C   UNL     1      44.080 -20.217   4.563  1.00  0.00     0.028 C 
HETATM   13  C   UNL     1      44.431 -18.743   4.399  1.00  0.00     0.236 C 
ENDBRANCH   6   7
BRANCH   6  14
HETATM   14  C   UNL     1      42.536 -16.056   4.653  1.00  0.00     0.085 A 
HETATM   15  O   UNL     1      41.259 -16.550   4.679  1.00  0.00    -0.325 OA
HETATM   16  C   UNL     1      40.636 -15.992   5.749  1.00  0.00     0.142 A 
HETATM   17  C   UNL     1      41.494 -15.155   6.420  1.00  0.00     0.027 A 
HETATM   18  C   UNL     1      42.724 -15.203   5.723  1.00  0.00     0.037 A 
ENDBRANCH   6  14
ENDBRANCH   5   6
ENDBRANCH   2   5
BRANCH   1  19
HETATM   19  C   UNL     1      40.180 -13.590   2.235  1.00  0.00     0.075 C 
HETATM   20  C   UNL     1      39.521 -12.996   1.229  1.00  0.00     0.020 C 
BRANCH  20  21
HETATM   21  C   UNL     1      40.113 -12.555  -0.039  1.00  0.00    -0.001 A 
HETATM   22  C   UNL     1      40.084 -13.373  -1.179  1.00  0.00     0.078 A 
HETATM   23  C   UNL     1      40.688 -12.958  -2.369  1.00  0.00     0.039 A 
HETATM   24  C   UNL     1      41.284 -11.699  -2.444  1.00  0.00     0.022 A 
HETATM   25  C   UNL     1      41.285 -10.869  -1.325  1.00  0.00     0.012 A 
HETATM   26  C   UNL     1      40.704 -11.286  -0.126  1.00  0.00     0.033 A 
HETATM   27 BR   UNL     1      42.093  -9.162  -1.422  1.00  0.00    -0.051 Br
BRANCH  22  28
HETATM   28  O   UNL     1      39.536 -14.629  -1.105  1.00  0.00    -0.355 OA
HETATM   29  C   UNL     1      38.876 -14.960  -2.327  1.00  0.00     0.210 C 
ENDBRANCH  22  28
ENDBRANCH  20  21
ENDBRANCH   1  19
TORSDOF 7
ENDMDL
MODEL 5
REMARK VINA RESULT:      -7.2      1.730      2.540
REMARK  7 active torsions:
REMARK  status: ('A' for Active; 'I' for Inactive)
REMARK    1  A    between atoms: O_2  and  C_3 
REMARK    2  A    between atoms: C_4  and  C_5 
REMARK    3  A    between atoms: C_6  and  C_7 
REMARK       I    between atoms: C_7  and  N_8 
REMARK    4  A    between atoms: N_8  and  C_9 
REMARK    5  A    between atoms: C_9  and  C_10 
REMARK    6  A    between atoms: C_10  and  N_11 
REMARK    7  A    between atoms: C_10  and  C_18 
ROOT
HETATM    1  C   UNL     1      42.543 -15.302   7.064  1.00  0.00     0.241 C 
HETATM    2  N   UNL     1      42.558 -13.941   6.871  1.00  0.00    -0.355 N 
HETATM    3  O   UNL     1      43.516 -15.925   7.460  1.00  0.00    -0.269 OA
HETATM    4  H   UNL     1      41.740 -13.514   6.446  1.00  0.00     0.162 HD
ENDROOT
BRANCH   2   5
HETATM    5  C   UNL     1      43.822 -13.216   6.831  1.00  0.00     0.163 C 
BRANCH   5   6
HETATM    6  C   UNL     1      43.756 -11.740   6.365  1.00  0.00     0.262 C 
BRANCH   6   7
HETATM    7  N   UNL     1      44.330 -10.729   7.365  1.00  0.00    -0.059 N 
HETATM    8  H   UNL     1      43.911  -9.849   7.029  1.00  0.00     0.280 HD
HETATM    9  C   UNL     1      43.865 -10.853   8.795  1.00  0.00     0.236 C 
HETATM   10  C   UNL     1      44.217  -9.565   9.530  1.00  0.00     0.028 C 
HETATM   11  C   UNL     1      45.713  -9.273   9.456  1.00  0.00     0.003 C 
HETATM   12  C   UNL     1      46.221  -9.292   8.017  1.00  0.00     0.028 C 
HETATM   13  C   UNL     1      45.826 -10.571   7.288  1.00  0.00     0.236 C 
ENDBRANCH   6   7
BRANCH   6  14
HETATM   14  C   UNL     1      42.395 -11.330   5.882  1.00  0.00     0.085 A 
HETATM   15  O   UNL     1      41.971 -11.927   4.724  1.00  0.00    -0.325 OA
HETATM   16  C   UNL     1      40.726 -11.451   4.462  1.00  0.00     0.142 A 
HETATM   17  C   UNL     1      40.336 -10.566   5.437  1.00  0.00     0.027 A 
HETATM   18  C   UNL     1      41.405 -10.494   6.362  1.00  0.00     0.037 A 
ENDBRANCH   6  14
ENDBRANCH   5   6
ENDBRANCH   2   5
BRANCH   1  19
HETATM   19  C   UNL     1      41.218 -15.904   6.793  1.00  0.00     0.075 C 
HETATM   20  C   UNL     1      40.800 -16.272   5.573  1.00  0.00     0.020 C 
BRANCH  20  21
HETATM   21  C   UNL     1      41.542 -16.084   4.321  1.00  0.00    -0.001 A 
HETATM   22  C   UNL     1      42.608 -16.927   3.974  1.00  0.00     0.078 A 
HETATM   23  C   UNL     1      43.333 -16.712   2.799  1.00  0.00     0.039 A 
HETATM   24  C   UNL     1      42.966 -15.679   1.934  1.00  0.00     0.022 A 
HETATM   25  C   UNL     1      41.885 -14.861   2.258  1.00  0.00     0.012 A 
HETATM   26  C   UNL     1      41.172 -15.056   3.442  1.00  0.00     0.033 A 
HETATM   27 BR   UNL     1      41.385 -13.460   1.090  1.00  0.00    -0.051 Br
BRANCH  22  28
HETATM   28  O   UNL     1      43.003 -17.920   4.835  1.00  0.00    -0.355 OA
HETATM   29  C   UNL     1      44.321 -18.366   4.515  1.00  0.00     0.210 C 
ENDBRANCH  22  28
ENDBRANCH  20  21
ENDBRANCH   1  19
TORSDOF 7
ENDMDL
MODEL 6
REMARK VINA RESULT:      -6.8      2.983      6.925
REMARK  7 active torsions:
REMARK  status: ('A' for Active; 'I' for Inactive)
REMARK    1  A    between atoms: O_2  and  C_3 
REMARK    2  A    between atoms: C_4  and  C_5 
REMARK    3  A    between atoms: C_6  and  C_7 
REMARK       I    between atoms: C_7  and  N_8 
REMARK    4  A    between atoms: N_8  and  C_9 
REMARK    5  A    between atoms: C_9  and  C_10 
REMARK    6  A    between atoms: C_10  and  N_11 
REMARK    7  A    between atoms: C_10  and  C_18 
ROOT
HETATM    1  C   UNL     1      43.618 -13.407   6.767  1.00  0.00     0.241 C 
HETATM    2  N   UNL     1      42.726 -13.600   5.739  1.00  0.00    -0.355 N 
HETATM    3  O   UNL     1      43.529 -13.987   7.838  1.00  0.00    -0.269 OA
HETATM    4  H   UNL     1      42.813 -13.006   4.919  1.00  0.00     0.162 HD
ENDROOT
BRANCH   2   5
HETATM    5  C   UNL     1      41.454 -14.269   5.983  1.00  0.00     0.163 C 
BRANCH   5   6
HETATM    6  C   UNL     1      41.054 -15.378   4.977  1.00  0.00     0.262 C 
BRANCH   6   7
HETATM    7  N   UNL     1      42.049 -16.540   4.881  1.00  0.00    -0.059 N 
HETATM    8  H   UNL     1      41.435 -17.310   4.578  1.00  0.00     0.280 HD
HETATM    9  C   UNL     1      43.101 -16.443   3.803  1.00  0.00     0.236 C 
HETATM   10  C   UNL     1      43.722 -17.822   3.610  1.00  0.00     0.028 C 
HETATM   11  C   UNL     1      44.310 -18.355   4.914  1.00  0.00     0.003 C 
HETATM   12  C   UNL     1      43.291 -18.318   6.049  1.00  0.00     0.028 C 
HETATM   13  C   UNL     1      42.654 -16.942   6.201  1.00  0.00     0.236 C 
ENDBRANCH   6   7
BRANCH   6  14
HETATM   14  C   UNL     1      40.690 -14.846   3.621  1.00  0.00     0.085 A 
HETATM   15  O   UNL     1      41.126 -13.578   3.344  1.00  0.00    -0.325 OA
HETATM   16  C   UNL     1      40.723 -13.283   2.082  1.00  0.00     0.142 A 
HETATM   17  C   UNL     1      40.044 -14.345   1.535  1.00  0.00     0.027 A 
HETATM   18  C   UNL     1      40.031 -15.360   2.521  1.00  0.00     0.037 A 
ENDBRANCH   6  14
ENDBRANCH   5   6
ENDBRANCH   2   5
BRANCH   1  19
HETATM   19  C   UNL     1      44.710 -12.473   6.410  1.00  0.00     0.075 C 
HETATM   20  C   UNL     1      44.774 -11.202   6.834  1.00  0.00     0.020 C 
BRANCH  20  21
HETATM   21  C   UNL     1      43.763 -10.520   7.649  1.00  0.00    -0.001 A 
HETATM   22  C   UNL     1      42.542 -10.104   7.097  1.00  0.00     0.078 A 
HETATM   23  C   UNL     1      41.605  -9.419   7.875  1.00  0.00     0.039 A 
HETATM   24  C   UNL     1      41.860  -9.187   9.227  1.00  0.00     0.022 A 
HETATM   25  C   UNL     1      43.056  -9.629   9.789  1.00  0.00     0.012 A 
HETATM   26  C   UNL     1      44.006 -10.293   9.012  1.00  0.00     0.033 A 
HETATM   27 BR   UNL     1      43.405  -9.316  11.621  1.00  0.00    -0.051 Br
BRANCH  22  28
HETATM   28  O   UNL     1      42.298 -10.291   5.759  1.00  0.00    -0.355 OA
HETATM   29  C   UNL     1      40.904 -10.491   5.528  1.00  0.00     0.210 C 
ENDBRANCH  22  28
ENDBRANCH  20  21
ENDBRANCH   1  19
TORSDOF 7
ENDMDL
MODEL 7
REMARK VINA RESULT:      -6.8      1.990      3.274
REMARK  7 active torsions:
REMARK  status: ('A' for Active; 'I' for Inactive)
REMARK    1  A    between atoms: O_2  and  C_3 
REMARK    2  A    between atoms: C_4  and  C_5 
REMARK    3  A    between atoms: C_6  and  C_7 
REMARK       I    between atoms: C_7  and  N_8 
REMARK    4  A    between atoms: N_8  and  C_9 
REMARK    5  A    between atoms: C_9  and  C_10 
REMARK    6  A    between atoms: C_10  and  N_11 
REMARK    7  A    between atoms: C_10  and  C_18 
ROOT
HETATM    1  C   UNL     1      42.175 -13.255   5.202  1.00  0.00     0.241 C 
HETATM    2  N   UNL     1      42.282 -12.765   6.483  1.00  0.00    -0.355 N 
HETATM    3  O   UNL     1      43.073 -13.160   4.380  1.00  0.00    -0.269 OA
HETATM    4  H   UNL     1      41.456 -12.797   7.072  1.00  0.00     0.162 HD
ENDROOT
BRANCH   2   5
HETATM    5  C   UNL     1      43.350 -11.835   6.829  1.00  0.00     0.163 C 
BRANCH   5   6
HETATM    6  C   UNL     1      42.920 -10.381   7.151  1.00  0.00     0.262 C 
BRANCH   6   7
HETATM    7  N   UNL     1      43.114  -9.969   8.615  1.00  0.00    -0.059 N 
HETATM    8  H   UNL     1      42.197 -10.210   9.018  1.00  0.00     0.280 HD
HETATM    9  C   UNL     1      44.108 -10.771   9.418  1.00  0.00     0.236 C 
HETATM   10  C   UNL     1      43.877 -10.483  10.898  1.00  0.00     0.028 C 
HETATM   11  C   UNL     1      43.994  -8.991  11.199  1.00  0.00     0.003 C 
HETATM   12  C   UNL     1      43.098  -8.159  10.286  1.00  0.00     0.028 C 
HETATM   13  C   UNL     1      43.317  -8.490   8.814  1.00  0.00     0.236 C 
ENDBRANCH   6   7
BRANCH   6  14
HETATM   14  C   UNL     1      41.541 -10.047   6.660  1.00  0.00     0.085 A 
HETATM   15  O   UNL     1      41.420  -9.869   5.307  1.00  0.00    -0.325 OA
HETATM   16  C   UNL     1      40.113  -9.597   5.056  1.00  0.00     0.142 A 
HETATM   17  C   UNL     1      39.388  -9.609   6.222  1.00  0.00     0.027 A 
HETATM   18  C   UNL     1      40.304  -9.910   7.258  1.00  0.00     0.037 A 
ENDBRANCH   6  14
ENDBRANCH   5   6
ENDBRANCH   2   5
BRANCH   1  19
HETATM   19  C   UNL     1      40.889 -13.947   4.960  1.00  0.00     0.075 C 
HETATM   20  C   UNL     1      40.754 -15.281   4.919  1.00  0.00     0.020 C 
BRANCH  20  21
HETATM   21  C   UNL     1      41.845 -16.255   5.038  1.00  0.00    -0.001 A 
HETATM   22  C   UNL     1      42.426 -16.547   6.281  1.00  0.00     0.078 A 
HETATM   23  C   UNL     1      43.492 -17.446   6.375  1.00  0.00     0.039 A 
HETATM   24  C   UNL     1      43.954 -18.100   5.232  1.00  0.00     0.022 A 
HETATM   25  C   UNL     1      43.356 -17.839   4.001  1.00  0.00     0.012 A 
HETATM   26  C   UNL     1      42.306 -16.925   3.896  1.00  0.00     0.033 A 
HETATM   27 BR   UNL     1      43.979 -18.723   2.449  1.00  0.00    -0.051 Br
BRANCH  22  28
HETATM   28  O   UNL     1      42.007 -15.880   7.405  1.00  0.00    -0.355 OA
HETATM   29  C   UNL     1      43.117 -15.580   8.252  1.00  0.00     0.210 C 
ENDBRANCH  22  28
ENDBRANCH  20  21
ENDBRANCH   1  19
TORSDOF 7
ENDMDL
MODEL 8
REMARK VINA RESULT:      -6.7      1.861      3.290
REMARK  7 active torsions:
REMARK  status: ('A' for Active; 'I' for Inactive)
REMARK    1  A    between atoms: O_2  and  C_3 
REMARK    2  A    between atoms: C_4  and  C_5 
REMARK    3  A    between atoms: C_6  and  C_7 
REMARK       I    between atoms: C_7  and  N_8 
REMARK    4  A    between atoms: N_8  and  C_9 
REMARK    5  A    between atoms: C_9  and  C_10 
REMARK    6  A    between atoms: C_10  and  N_11 
REMARK    7  A    between atoms: C_10  and  C_18 
ROOT
HETATM    1  C   UNL     1      41.623 -13.585   2.306  1.00  0.00     0.241 C 
HETATM    2  N   UNL     1      41.635 -12.780   3.421  1.00  0.00    -0.355 N 
HETATM    3  O   UNL     1      42.550 -13.629   1.512  1.00  0.00    -0.269 OA
HETATM    4  H   UNL     1      40.786 -12.727   3.976  1.00  0.00     0.162 HD
ENDROOT
BRANCH   2   5
HETATM    5  C   UNL     1      42.617 -11.710   3.547  1.00  0.00     0.163 C 
BRANCH   5   6
HETATM    6  C   UNL     1      42.345 -10.650   4.645  1.00  0.00     0.262 C 
BRANCH   6   7
HETATM    7  N   UNL     1      43.407 -10.589   5.749  1.00  0.00    -0.059 N 
HETATM    8  H   UNL     1      44.053  -9.879   5.372  1.00  0.00     0.280 HD
HETATM    9  C   UNL     1      42.967 -10.037   7.082  1.00  0.00     0.236 C 
HETATM   10  C   UNL     1      44.209  -9.694   7.896  1.00  0.00     0.028 C 
HETATM   11  C   UNL     1      45.114 -10.911   8.070  1.00  0.00     0.003 C 
HETATM   12  C   UNL     1      45.444 -11.565   6.731  1.00  0.00     0.028 C 
HETATM   13  C   UNL     1      44.191 -11.864   5.917  1.00  0.00     0.236 C 
ENDBRANCH   6   7
BRANCH   6  14
HETATM   14  C   UNL     1      40.958 -10.728   5.214  1.00  0.00     0.085 A 
HETATM   15  O   UNL     1      40.658 -11.881   5.891  1.00  0.00    -0.325 OA
HETATM   16  C   UNL     1      39.384 -11.758   6.343  1.00  0.00     0.142 A 
HETATM   17  C   UNL     1      38.861 -10.541   5.980  1.00  0.00     0.027 A 
HETATM   18  C   UNL     1      39.878  -9.868   5.262  1.00  0.00     0.037 A 
ENDBRANCH   6  14
ENDBRANCH   5   6
ENDBRANCH   2   5
BRANCH   1  19
HETATM   19  C   UNL     1      40.402 -14.416   2.213  1.00  0.00     0.075 C 
HETATM   20  C   UNL     1      40.302 -15.656   2.716  1.00  0.00     0.020 C 
BRANCH  20  21
HETATM   21  C   UNL     1      41.383 -16.404   3.368  1.00  0.00    -0.001 A 
HETATM   22  C   UNL     1      41.735 -16.157   4.703  1.00  0.00     0.078 A 
HETATM   23  C   UNL     1      42.793 -16.848   5.300  1.00  0.00     0.039 A 
HETATM   24  C   UNL     1      43.477 -17.829   4.582  1.00  0.00     0.022 A 
HETATM   25  C   UNL     1      43.107 -18.103   3.266  1.00  0.00     0.012 A 
HETATM   26  C   UNL     1      42.067 -17.400   2.657  1.00  0.00     0.033 A 
HETATM   27 BR   UNL     1      44.032 -19.431   2.288  1.00  0.00    -0.051 Br
BRANCH  22  28
HETATM   28  O   UNL     1      41.096 -15.167   5.407  1.00  0.00    -0.355 OA
HETATM   29  C   UNL     1      40.318 -15.727   6.465  1.00  0.00     0.210 C 
ENDBRANCH  22  28
ENDBRANCH  20  21
ENDBRANCH   1  19
TORSDOF 7
ENDMDL
MODEL 9
REMARK VINA RESULT:      -6.7      3.956      7.004
REMARK  7 active torsions:
REMARK  status: ('A' for Active; 'I' for Inactive)
REMARK    1  A    between atoms: O_2  and  C_3 
REMARK    2  A    between atoms: C_4  and  C_5 
REMARK    3  A    between atoms: C_6  and  C_7 
REMARK       I    between atoms: C_7  and  N_8 
REMARK    4  A    between atoms: N_8  and  C_9 
REMARK    5  A    between atoms: C_9  and  C_10 
REMARK    6  A    between atoms: C_10  and  N_11 
REMARK    7  A    between atoms: C_10  and  C_18 
ROOT
HETATM    1  C   UNL     1      41.085 -15.314   1.926  1.00  0.00     0.241 C 
HETATM    2  N   UNL     1      41.791 -15.773   3.013  1.00  0.00    -0.355 N 
HETATM    3  O   UNL     1      41.559 -15.266   0.802  1.00  0.00    -0.269 OA
HETATM    4  H   UNL     1      41.359 -15.688   3.928  1.00  0.00     0.162 HD
ENDROOT
BRANCH   2   5
HETATM    5  C   UNL     1      43.238 -15.932   2.938  1.00  0.00     0.163 C 
BRANCH   5   6
HETATM    6  C   UNL     1      43.918 -16.638   4.139  1.00  0.00     0.262 C 
BRANCH   6   7
HETATM    7  N   UNL     1      44.064 -18.156   3.987  1.00  0.00    -0.059 N 
HETATM    8  H   UNL     1      45.067 -18.243   3.764  1.00  0.00     0.280 HD
HETATM    9  C   UNL     1      43.876 -18.983   5.234  1.00  0.00     0.236 C 
HETATM   10  C   UNL     1      44.435 -20.378   4.978  1.00  0.00     0.028 C 
HETATM   11  C   UNL     1      43.765 -21.032   3.771  1.00  0.00     0.003 C 
HETATM   12  C   UNL     1      43.822 -20.134   2.539  1.00  0.00     0.028 C 
HETATM   13  C   UNL     1      43.295 -18.733   2.827  1.00  0.00     0.236 C 
ENDBRANCH   6   7
BRANCH   6  14
HETATM   14  C   UNL     1      43.314 -16.269   5.463  1.00  0.00     0.085 A 
HETATM   15  O   UNL     1      41.999 -16.614   5.631  1.00  0.00    -0.325 OA
HETATM   16  C   UNL     1      41.640 -16.222   6.881  1.00  0.00     0.142 A 
HETATM   17  C   UNL     1      42.705 -15.642   7.526  1.00  0.00     0.027 A 
HETATM   18  C   UNL     1      43.790 -15.681   6.618  1.00  0.00     0.037 A 
ENDBRANCH   6  14
ENDBRANCH   5   6
ENDBRANCH   2   5
BRANCH   1  19
HETATM   19  C   UNL     1      39.691 -14.945   2.263  1.00  0.00     0.075 C 
HETATM   20  C   UNL     1      39.307 -13.705   2.599  1.00  0.00     0.020 C 
BRANCH  20  21
HETATM   21  C   UNL     1      40.195 -12.546   2.749  1.00  0.00    -0.001 A 
HETATM   22  C   UNL     1      41.015 -12.399   3.877  1.00  0.00     0.078 A 
HETATM   23  C   UNL     1      41.824 -11.270   4.028  1.00  0.00     0.039 A 
HETATM   24  C   UNL     1      41.859 -10.300   3.025  1.00  0.00     0.022 A 
HETATM   25  C   UNL     1      41.072 -10.459   1.886  1.00  0.00     0.012 A 
HETATM   26  C   UNL     1      40.244 -11.573   1.740  1.00  0.00     0.033 A 
HETATM   27 BR   UNL     1      41.115  -9.147   0.525  1.00  0.00    -0.051 Br
BRANCH  22  28
HETATM   28  O   UNL     1      40.959 -13.326   4.888  1.00  0.00    -0.355 OA
HETATM   29  C   UNL     1      40.287 -12.786   6.026  1.00  0.00     0.210 C 
ENDBRANCH  22  28
ENDBRANCH  20  21
ENDBRANCH   1  19
TORSDOF 7
ENDMDL
MODEL 10
REMARK VINA RESULT:      -6.6      2.966      6.778
REMARK  7 active torsions:
REMARK  status: ('A' for Active; 'I' for Inactive)
REMARK    1  A    between atoms: O_2  and  C_3 
REMARK    2  A    between atoms: C_4  and  C_5 
REMARK    3  A    between atoms: C_6  and  C_7 
REMARK       I    between atoms: C_7  and  N_8 
REMARK    4  A    between atoms: N_8  and  C_9 
REMARK    5  A    between atoms: C_9  and  C_10 
REMARK    6  A    between atoms: C_10  and  N_11 
REMARK    7  A    between atoms: C_10  and  C_18 
ROOT
HETATM    1  C   UNL     1      40.041 -10.845   3.308  1.00  0.00     0.241 C 
HETATM    2  N   UNL     1      39.552 -11.796   2.444  1.00  0.00    -0.355 N 
HETATM    3  O   UNL     1      40.987 -10.123   3.031  1.00  0.00    -0.269 OA
HETATM    4  H   UNL     1      38.829 -12.421   2.788  1.00  0.00     0.162 HD
ENDROOT
BRANCH   2   5
HETATM    5  C   UNL     1      40.330 -12.206   1.281  1.00  0.00     0.163 C 
BRANCH   5   6
HETATM    6  C   UNL     1      40.139 -13.668   0.803  1.00  0.00     0.262 C 
BRANCH   6   7
HETATM    7  N   UNL     1      41.217 -14.643   1.289  1.00  0.00    -0.059 N 
HETATM    8  H   UNL     1      41.518 -15.073   0.402  1.00  0.00     0.280 HD
HETATM    9  C   UNL     1      42.472 -14.034   1.864  1.00  0.00     0.236 C 
HETATM   10  C   UNL     1      43.550 -15.111   1.918  1.00  0.00     0.028 C 
HETATM   11  C   UNL     1      43.092 -16.316   2.736  1.00  0.00     0.003 C 
HETATM   12  C   UNL     1      41.746 -16.848   2.251  1.00  0.00     0.028 C 
HETATM   13  C   UNL     1      40.694 -15.749   2.167  1.00  0.00     0.236 C 
ENDBRANCH   6   7
BRANCH   6  14
HETATM   14  C   UNL     1      39.913 -13.783  -0.677  1.00  0.00     0.085 A 
HETATM   15  O   UNL     1      40.593 -12.882  -1.453  1.00  0.00    -0.325 OA
HETATM   16  C   UNL     1      40.281 -13.153  -2.746  1.00  0.00     0.142 A 
HETATM   17  C   UNL     1      39.421 -14.222  -2.818  1.00  0.00     0.027 A 
HETATM   18  C   UNL     1      39.191 -14.639  -1.485  1.00  0.00     0.037 A 
ENDBRANCH   6  14
ENDBRANCH   5   6
ENDBRANCH   2   5
BRANCH   1  19
HETATM   19  C   UNL     1      39.266 -10.761   4.567  1.00  0.00     0.075 C 
HETATM   20  C   UNL     1      39.627 -11.367   5.707  1.00  0.00     0.020 C 
BRANCH  20  21
HETATM   21  C   UNL     1      40.789 -12.247   5.878  1.00  0.00    -0.001 A 
HETATM   22  C   UNL     1      42.078 -11.724   6.058  1.00  0.00     0.078 A 
HETATM   23  C   UNL     1      43.181 -12.574   6.179  1.00  0.00     0.039 A 
HETATM   24  C   UNL     1      42.998 -13.957   6.170  1.00  0.00     0.022 A 
HETATM   25  C   UNL     1      41.714 -14.482   6.026  1.00  0.00     0.012 A 
HETATM   26  C   UNL     1      40.611 -13.639   5.883  1.00  0.00     0.033 A 
HETATM   27 BR   UNL     1      41.462 -16.356   6.014  1.00  0.00    -0.051 Br
BRANCH  22  28
HETATM   28  O   UNL     1      42.274 -10.367   6.028  1.00  0.00    -0.355 OA
HETATM   29  C   UNL     1      42.904  -9.925   7.232  1.00  0.00     0.210 C 
ENDBRANCH  22  28
ENDBRANCH  20  21
ENDBRANCH   1  19
TORSDOF 7
ENDMDL
