MODEL 1
REMARK VINA RESULT:      -8.0      0.000      0.000
REMARK  7 active torsions:
REMARK  status: ('A' for Active; 'I' for Inactive)
REMARK    1  A    between atoms: C_10  and  C_11 
REMARK       I    between atoms: C_11  and  N_12 
REMARK    2  A    between atoms: N_12  and  C_13 
REMARK    3  A    between atoms: C_13  and  C_14 
REMARK    4  A    between atoms: C_14  and  O_15 
REMARK    5  A    between atoms: C_14  and  C_16 
REMARK    6  A    between atoms: C_16  and  O_17 
REMARK    7  A    between atoms: O_17  and  C_18 
ROOT
HETATM    1  C   UNL     1      40.438 -13.606   5.660  1.00  0.00     0.257 C 
HETATM    2  N   UNL     1      41.605 -14.302   5.875  1.00  0.00    -0.354 N 
HETATM    3  O   UNL     1      39.558 -13.490   6.506  1.00  0.00    -0.267 OA
HETATM    4  H   UNL     1      42.191 -14.418   5.048  1.00  0.00     0.162 HD
ENDROOT
BRANCH   2   5
HETATM    5  C   UNL     1      41.829 -15.232   6.977  1.00  0.00     0.156 C 
BRANCH   5   6
HETATM    6  C   UNL     1      43.266 -15.306   7.528  1.00  0.00     0.160 C 
BRANCH   6   7
HETATM    7  O   UNL     1      43.230 -15.704   8.907  1.00  0.00    -0.392 OA
HETATM    8  H   UNL     1      42.278 -15.763   9.146  1.00  0.00     0.210 HD
ENDBRANCH   6   7
BRANCH   6   9
HETATM    9  C   UNL     1      44.086 -16.361   6.766  1.00  0.00     0.209 C 
BRANCH   9  10
HETATM   10  O   UNL     1      43.960 -16.109   5.360  1.00  0.00    -0.349 OA
BRANCH  10  11
HETATM   11  C   UNL     1      43.869 -17.194   4.534  1.00  0.00     0.069 A 
HETATM   12  C   UNL     1      43.287 -16.930   3.290  1.00  0.00     0.038 A 
HETATM   13  C   UNL     1      43.128 -17.947   2.346  1.00  0.00     0.026 A 
HETATM   14  C   UNL     1      43.551 -19.237   2.652  1.00  0.00     0.034 A 
HETATM   15 CL   UNL     1      43.360 -20.498   1.496  1.00  0.00    -0.084 Cl
HETATM   16  C   UNL     1      44.128 -19.513   3.890  1.00  0.00     0.026 A 
HETATM   17  C   UNL     1      44.285 -18.492   4.834  1.00  0.00     0.038 A 
ENDBRANCH  10  11
ENDBRANCH   9  10
ENDBRANCH   6   9
ENDBRANCH   5   6
ENDBRANCH   2   5
BRANCH   1  18
HETATM   18  C   UNL     1      40.302 -13.011   4.346  1.00  0.00     0.098 A 
HETATM   19  C   UNL     1      40.226 -13.636   3.114  1.00  0.00     0.167 A 
HETATM   20  N   UNL     1      40.037 -12.616   2.172  1.00  0.00    -0.226 N 
HETATM   21  N   UNL     1      40.271 -14.959   2.752  1.00  0.00    -0.240 NA
HETATM   22  C   UNL     1      39.859 -12.918   0.827  1.00  0.00     0.128 A 
HETATM   23  N   UNL     1      40.035 -11.391   2.747  1.00  0.00    -0.178 NA
HETATM   24  C   UNL     1      39.866 -14.192   0.406  1.00  0.00    -0.027 A 
HETATM   25  C   UNL     1      39.662 -14.659  -0.991  1.00  0.00     0.051 C 
HETATM   26  C   UNL     1      40.099 -15.203   1.483  1.00  0.00     0.127 A 
HETATM   27  C   UNL     1      40.178 -11.639   4.050  1.00  0.00     0.160 A 
ENDBRANCH   1  18
TORSDOF 7
ENDMDL
MODEL 2
REMARK VINA RESULT:      -7.8      4.211      6.545
REMARK  7 active torsions:
REMARK  status: ('A' for Active; 'I' for Inactive)
REMARK    1  A    between atoms: C_10  and  C_11 
REMARK       I    between atoms: C_11  and  N_12 
REMARK    2  A    between atoms: N_12  and  C_13 
REMARK    3  A    between atoms: C_13  and  C_14 
REMARK    4  A    between atoms: C_14  and  O_15 
REMARK    5  A    between atoms: C_14  and  C_16 
REMARK    6  A    between atoms: C_16  and  O_17 
REMARK    7  A    between atoms: O_17  and  C_18 
ROOT
HETATM    1  C   UNL     1      43.243 -11.363   6.206  1.00  0.00     0.257 C 
HETATM    2  N   UNL     1      41.986 -11.804   6.549  1.00  0.00    -0.354 N 
HETATM    3  O   UNL     1      43.655 -11.333   5.051  1.00  0.00    -0.267 OA
HETATM    4  H   UNL     1      41.822 -11.887   7.551  1.00  0.00     0.162 HD
ENDROOT
BRANCH   2   5
HETATM    5  C   UNL     1      41.104 -12.566   5.671  1.00  0.00     0.156 C 
BRANCH   5   6
HETATM    6  C   UNL     1      40.974 -14.072   5.973  1.00  0.00     0.160 C 
BRANCH   6   7
HETATM    7  O   UNL     1      39.604 -14.381   6.278  1.00  0.00    -0.392 OA
HETATM    8  H   UNL     1      39.407 -13.927   7.126  1.00  0.00     0.210 HD
ENDBRANCH   6   7
BRANCH   6   9
HETATM    9  C   UNL     1      41.373 -14.909   4.747  1.00  0.00     0.209 C 
BRANCH   9  10
HETATM   10  O   UNL     1      42.704 -15.404   4.945  1.00  0.00    -0.349 OA
BRANCH  10  11
HETATM   11  C   UNL     1      43.046 -16.560   4.302  1.00  0.00     0.069 A 
HETATM   12  C   UNL     1      42.345 -16.795   3.116  1.00  0.00     0.038 A 
HETATM   13  C   UNL     1      42.591 -17.941   2.356  1.00  0.00     0.026 A 
HETATM   14  C   UNL     1      43.543 -18.859   2.790  1.00  0.00     0.034 A 
HETATM   15 CL   UNL     1      43.854 -20.274   1.862  1.00  0.00    -0.084 Cl
HETATM   16  C   UNL     1      44.244 -18.638   3.973  1.00  0.00     0.026 A 
HETATM   17  C   UNL     1      43.995 -17.489   4.733  1.00  0.00     0.038 A 
ENDBRANCH  10  11
ENDBRANCH   9  10
ENDBRANCH   6   9
ENDBRANCH   5   6
ENDBRANCH   2   5
BRANCH   1  18
HETATM   18  C   UNL     1      44.073 -10.933   7.312  1.00  0.00     0.098 A 
HETATM   19  C   UNL     1      43.711 -10.231   8.449  1.00  0.00     0.167 A 
HETATM   20  N   UNL     1      44.870 -10.128   9.228  1.00  0.00    -0.226 N 
HETATM   21  N   UNL     1      42.507  -9.721   8.867  1.00  0.00    -0.240 NA
HETATM   22  C   UNL     1      44.831  -9.523  10.479  1.00  0.00     0.128 A 
HETATM   23  N   UNL     1      45.941 -10.689   8.619  1.00  0.00    -0.178 NA
HETATM   24  C   UNL     1      43.682  -9.025  10.962  1.00  0.00    -0.027 A 
HETATM   25  C   UNL     1      43.490  -8.379  12.287  1.00  0.00     0.051 C 
HETATM   26  C   UNL     1      42.510  -9.163  10.044  1.00  0.00     0.127 A 
HETATM   27  C   UNL     1      45.451 -11.182   7.481  1.00  0.00     0.160 A 
ENDBRANCH   1  18
TORSDOF 7
ENDMDL
MODEL 3
REMARK VINA RESULT:      -7.8      4.402      6.994
REMARK  7 active torsions:
REMARK  status: ('A' for Active; 'I' for Inactive)
REMARK    1  A    between atoms: C_10  and  C_11 
REMARK       I    between atoms: C_11  and  N_12 
REMARK    2  A    between atoms: N_12  and  C_13 
REMARK    3  A    between atoms: C_13  and  C_14 
REMARK    4  A    between atoms: C_14  and  O_15 
REMARK    5  A    between atoms: C_14  and  C_16 
REMARK    6  A    between atoms: C_16  and  O_17 
REMARK    7  A    between atoms: O_17  and  C_18 
ROOT
HETATM    1  C   UNL     1      42.182 -14.467   4.700  1.00  0.00     0.257 C 
HETATM    2  N   UNL     1      42.068 -13.978   3.419  1.00  0.00    -0.354 N 
HETATM    3  O   UNL     1      41.708 -13.903   5.681  1.00  0.00    -0.267 OA
HETATM    4  H   UNL     1      42.610 -14.484   2.720  1.00  0.00     0.162 HD
ENDROOT
BRANCH   2   5
HETATM    5  C   UNL     1      41.662 -12.618   3.081  1.00  0.00     0.156 C 
BRANCH   5   6
HETATM    6  C   UNL     1      42.799 -11.596   2.878  1.00  0.00     0.160 C 
BRANCH   6   7
HETATM    7  O   UNL     1      42.368 -10.579   1.960  1.00  0.00    -0.392 OA
HETATM    8  H   UNL     1      42.367  -9.739   2.470  1.00  0.00     0.210 HD
ENDBRANCH   6   7
BRANCH   6   9
HETATM    9  C   UNL     1      43.148 -10.902   4.205  1.00  0.00     0.209 C 
BRANCH   9  10
HETATM   10  O   UNL     1      44.068 -11.731   4.927  1.00  0.00    -0.349 OA
BRANCH  10  11
HETATM   11  C   UNL     1      44.483 -11.291   6.152  1.00  0.00     0.069 A 
HETATM   12  C   UNL     1      43.448 -10.947   7.027  1.00  0.00     0.038 A 
HETATM   13  C   UNL     1      43.726 -10.479   8.313  1.00  0.00     0.026 A 
HETATM   14  C   UNL     1      45.050 -10.350   8.723  1.00  0.00     0.034 A 
HETATM   15 CL   UNL     1      45.404  -9.774  10.306  1.00  0.00    -0.084 Cl
HETATM   16  C   UNL     1      46.090 -10.685   7.859  1.00  0.00     0.026 A 
HETATM   17  C   UNL     1      45.807 -11.154   6.570  1.00  0.00     0.038 A 
ENDBRANCH  10  11
ENDBRANCH   9  10
ENDBRANCH   6   9
ENDBRANCH   5   6
ENDBRANCH   2   5
BRANCH   1  18
HETATM   18  C   UNL     1      42.914 -15.710   4.827  1.00  0.00     0.098 A 
HETATM   19  C   UNL     1      42.937 -16.797   3.972  1.00  0.00     0.167 A 
HETATM   20  N   UNL     1      43.850 -17.706   4.520  1.00  0.00    -0.226 N 
HETATM   21  N   UNL     1      42.286 -17.046   2.788  1.00  0.00    -0.240 NA
HETATM   22  C   UNL     1      44.151 -18.892   3.862  1.00  0.00     0.128 A 
HETATM   23  N   UNL     1      44.363 -17.263   5.691  1.00  0.00    -0.178 NA
HETATM   24  C   UNL     1      43.572 -19.189   2.688  1.00  0.00    -0.027 A 
HETATM   25  C   UNL     1      43.820 -20.403   1.866  1.00  0.00     0.051 C 
HETATM   26  C   UNL     1      42.596 -18.167   2.200  1.00  0.00     0.127 A 
HETATM   27  C   UNL     1      43.810 -16.060   5.859  1.00  0.00     0.160 A 
ENDBRANCH   1  18
TORSDOF 7
ENDMDL
MODEL 4
REMARK VINA RESULT:      -7.6      1.902      2.690
REMARK  7 active torsions:
REMARK  status: ('A' for Active; 'I' for Inactive)
REMARK    1  A    between atoms: C_10  and  C_11 
REMARK       I    between atoms: C_11  and  N_12 
REMARK    2  A    between atoms: N_12  and  C_13 
REMARK    3  A    between atoms: C_13  and  C_14 
REMARK    4  A    between atoms: C_14  and  O_15 
REMARK    5  A    between atoms: C_14  and  C_16 
REMARK    6  A    between atoms: C_16  and  O_17 
REMARK    7  A    between atoms: O_17  and  C_18 
ROOT
HETATM    1  C   UNL     1      42.286 -12.215   2.951  1.00  0.00     0.257 C 
HETATM    2  N   UNL     1      41.541 -13.000   3.800  1.00  0.00    -0.354 N 
HETATM    3  O   UNL     1      43.370 -11.732   3.258  1.00  0.00    -0.267 OA
HETATM    4  H   UNL     1      40.609 -13.234   3.458  1.00  0.00     0.162 HD
ENDROOT
BRANCH   2   5
HETATM    5  C   UNL     1      41.762 -13.112   5.239  1.00  0.00     0.156 C 
BRANCH   5   6
HETATM    6  C   UNL     1      41.198 -14.374   5.920  1.00  0.00     0.160 C 
BRANCH   6   7
HETATM    7  O   UNL     1      40.174 -14.947   5.092  1.00  0.00    -0.392 OA
HETATM    8  H   UNL     1      40.614 -15.194   4.249  1.00  0.00     0.210 HD
ENDBRANCH   6   7
BRANCH   6   9
HETATM    9  C   UNL     1      42.298 -15.435   6.093  1.00  0.00     0.209 C 
BRANCH   9  10
HETATM   10  O   UNL     1      43.172 -15.376   4.958  1.00  0.00    -0.349 OA
BRANCH  10  11
HETATM   11  C   UNL     1      43.266 -16.495   4.179  1.00  0.00     0.069 A 
HETATM   12  C   UNL     1      44.047 -17.519   4.725  1.00  0.00     0.038 A 
HETATM   13  C   UNL     1      44.232 -18.719   4.036  1.00  0.00     0.026 A 
HETATM   14  C   UNL     1      43.634 -18.893   2.790  1.00  0.00     0.034 A 
HETATM   15 CL   UNL     1      43.856 -20.368   1.932  1.00  0.00    -0.084 Cl
HETATM   16  C   UNL     1      42.859 -17.878   2.234  1.00  0.00     0.026 A 
HETATM   17  C   UNL     1      42.676 -16.676   2.928  1.00  0.00     0.038 A 
ENDBRANCH  10  11
ENDBRANCH   9  10
ENDBRANCH   6   9
ENDBRANCH   5   6
ENDBRANCH   2   5
BRANCH   1  18
HETATM   18  C   UNL     1      41.700 -11.983   1.646  1.00  0.00     0.098 A 
HETATM   19  C   UNL     1      41.088 -12.886   0.796  1.00  0.00     0.167 A 
HETATM   20  N   UNL     1      40.639 -12.143  -0.303  1.00  0.00    -0.226 N 
HETATM   21  N   UNL     1      40.863 -14.237   0.899  1.00  0.00    -0.240 NA
HETATM   22  C   UNL     1      39.919 -12.752  -1.324  1.00  0.00     0.128 A 
HETATM   23  N   UNL     1      40.978 -10.836  -0.202  1.00  0.00    -0.178 NA
HETATM   24  C   UNL     1      39.642 -14.064  -1.276  1.00  0.00    -0.027 A 
HETATM   25  C   UNL     1      38.863 -14.837  -2.280  1.00  0.00     0.051 C 
HETATM   26  C   UNL     1      40.184 -14.771  -0.076  1.00  0.00     0.127 A 
HETATM   27  C   UNL     1      41.598 -10.747   0.975  1.00  0.00     0.160 A 
ENDBRANCH   1  18
TORSDOF 7
ENDMDL
MODEL 5
REMARK VINA RESULT:      -7.4      3.248      6.421
REMARK  7 active torsions:
REMARK  status: ('A' for Active; 'I' for Inactive)
REMARK    1  A    between atoms: C_10  and  C_11 
REMARK       I    between atoms: C_11  and  N_12 
REMARK    2  A    between atoms: N_12  and  C_13 
REMARK    3  A    between atoms: C_13  and  C_14 
REMARK    4  A    between atoms: C_14  and  O_15 
REMARK    5  A    between atoms: C_14  and  C_16 
REMARK    6  A    between atoms: C_16  and  O_17 
REMARK    7  A    between atoms: O_17  and  C_18 
ROOT
HETATM    1  C   UNL     1      42.936 -13.530   4.784  1.00  0.00     0.257 C 
HETATM    2  N   UNL     1      43.195 -13.066   3.515  1.00  0.00    -0.354 N 
HETATM    3  O   UNL     1      42.472 -12.828   5.675  1.00  0.00    -0.267 OA
HETATM    4  H   UNL     1      43.690 -13.723   2.913  1.00  0.00     0.162 HD
ENDROOT
BRANCH   2   5
HETATM    5  C   UNL     1      43.253 -11.657   3.139  1.00  0.00     0.156 C 
BRANCH   5   6
HETATM    6  C   UNL     1      41.941 -11.033   2.625  1.00  0.00     0.160 C 
BRANCH   6   7
HETATM    7  O   UNL     1      42.226 -10.178   1.506  1.00  0.00    -0.392 OA
HETATM    8  H   UNL     1      43.195 -10.242   1.356  1.00  0.00     0.210 HD
ENDBRANCH   6   7
BRANCH   6   9
HETATM    9  C   UNL     1      40.975 -12.125   2.137  1.00  0.00     0.209 C 
BRANCH   9  10
HETATM   10  O   UNL     1      41.625 -12.884   1.108  1.00  0.00    -0.349 OA
BRANCH  10  11
HETATM   11  C   UNL     1      40.890 -13.196  -0.000  1.00  0.00     0.069 A 
HETATM   12  C   UNL     1      40.285 -14.456   0.040  1.00  0.00     0.038 A 
HETATM   13  C   UNL     1      39.506 -14.908  -1.028  1.00  0.00     0.026 A 
HETATM   14  C   UNL     1      39.335 -14.094  -2.144  1.00  0.00     0.034 A 
HETATM   15 CL   UNL     1      38.377 -14.640  -3.465  1.00  0.00    -0.084 Cl
HETATM   16  C   UNL     1      39.936 -12.838  -2.197  1.00  0.00     0.026 A 
HETATM   17  C   UNL     1      40.717 -12.389  -1.126  1.00  0.00     0.038 A 
ENDBRANCH  10  11
ENDBRANCH   9  10
ENDBRANCH   6   9
ENDBRANCH   5   6
ENDBRANCH   2   5
BRANCH   1  18
HETATM   18  C   UNL     1      43.258 -14.923   5.013  1.00  0.00     0.098 A 
HETATM   19  C   UNL     1      43.189 -15.987   4.131  1.00  0.00     0.167 A 
HETATM   20  N   UNL     1      43.669 -17.103   4.828  1.00  0.00    -0.226 N 
HETATM   21  N   UNL     1      42.793 -16.067   2.818  1.00  0.00    -0.240 NA
HETATM   22  C   UNL     1      43.788 -18.336   4.198  1.00  0.00     0.128 A 
HETATM   23  N   UNL     1      43.991 -16.799   6.107  1.00  0.00    -0.178 NA
HETATM   24  C   UNL     1      43.443 -18.480   2.908  1.00  0.00    -0.027 A 
HETATM   25  C   UNL     1      43.543 -19.726   2.104  1.00  0.00     0.051 C 
HETATM   26  C   UNL     1      42.921 -17.237   2.261  1.00  0.00     0.127 A 
HETATM   27  C   UNL     1      43.757 -15.490   6.203  1.00  0.00     0.160 A 
ENDBRANCH   1  18
TORSDOF 7
ENDMDL
MODEL 6
REMARK VINA RESULT:      -7.2      4.668      6.919
REMARK  7 active torsions:
REMARK  status: ('A' for Active; 'I' for Inactive)
REMARK    1  A    between atoms: C_10  and  C_11 
REMARK       I    between atoms: C_11  and  N_12 
REMARK    2  A    between atoms: N_12  and  C_13 
REMARK    3  A    between atoms: C_13  and  C_14 
REMARK    4  A    between atoms: C_14  and  O_15 
REMARK    5  A    between atoms: C_14  and  C_16 
REMARK    6  A    between atoms: C_16  and  O_17 
REMARK    7  A    between atoms: O_17  and  C_18 
ROOT
HETATM    1  C   UNL     1      44.496 -11.140   7.854  1.00  0.00     0.257 C 
HETATM    2  N   UNL     1      43.818 -11.933   6.957  1.00  0.00    -0.354 N 
HETATM    3  O   UNL     1      45.706 -11.215   8.037  1.00  0.00    -0.267 OA
HETATM    4  H   UNL     1      42.803 -11.847   6.995  1.00  0.00     0.162 HD
ENDROOT
BRANCH   2   5
HETATM    5  C   UNL     1      44.355 -13.145   6.346  1.00  0.00     0.156 C 
BRANCH   5   6
HETATM    6  C   UNL     1      43.733 -14.477   6.809  1.00  0.00     0.160 C 
BRANCH   6   7
HETATM    7  O   UNL     1      43.127 -14.298   8.099  1.00  0.00    -0.392 OA
HETATM    8  H   UNL     1      43.868 -14.276   8.744  1.00  0.00     0.210 HD
ENDBRANCH   6   7
BRANCH   6   9
HETATM    9  C   UNL     1      42.627 -14.926   5.839  1.00  0.00     0.209 C 
BRANCH   9  10
HETATM   10  O   UNL     1      43.192 -15.049   4.527  1.00  0.00    -0.349 OA
BRANCH  10  11
HETATM   11  C   UNL     1      43.372 -16.312   4.037  1.00  0.00     0.069 A 
HETATM   12  C   UNL     1      42.780 -16.541   2.791  1.00  0.00     0.038 A 
HETATM   13  C   UNL     1      42.882 -17.789   2.172  1.00  0.00     0.026 A 
HETATM   14  C   UNL     1      43.577 -18.814   2.806  1.00  0.00     0.034 A 
HETATM   15 CL   UNL     1      43.709 -20.356   2.053  1.00  0.00    -0.084 Cl
HETATM   16  C   UNL     1      44.167 -18.599   4.050  1.00  0.00     0.026 A 
HETATM   17  C   UNL     1      44.062 -17.347   4.669  1.00  0.00     0.038 A 
ENDBRANCH  10  11
ENDBRANCH   9  10
ENDBRANCH   6   9
ENDBRANCH   5   6
ENDBRANCH   2   5
BRANCH   1  18
HETATM   18  C   UNL     1      43.680 -10.196   8.589  1.00  0.00     0.098 A 
HETATM   19  C   UNL     1      43.386 -10.170   9.941  1.00  0.00     0.167 A 
HETATM   20  N   UNL     1      42.614  -9.020  10.149  1.00  0.00    -0.226 N 
HETATM   21  N   UNL     1      43.741 -11.003  10.973  1.00  0.00    -0.240 NA
HETATM   22  C   UNL     1      42.201  -8.666  11.428  1.00  0.00     0.128 A 
HETATM   23  N   UNL     1      42.376  -8.355   8.995  1.00  0.00    -0.178 NA
HETATM   24  C   UNL     1      42.533  -9.421  12.487  1.00  0.00    -0.027 A 
HETATM   25  C   UNL     1      42.184  -9.149  13.906  1.00  0.00     0.051 C 
HETATM   26  C   UNL     1      43.337 -10.637  12.156  1.00  0.00     0.127 A 
HETATM   27  C   UNL     1      43.032  -9.057   8.069  1.00  0.00     0.160 A 
ENDBRANCH   1  18
TORSDOF 7
ENDMDL
MODEL 7
REMARK VINA RESULT:      -7.2      2.840      4.345
REMARK  7 active torsions:
REMARK  status: ('A' for Active; 'I' for Inactive)
REMARK    1  A    between atoms: C_10  and  C_11 
REMARK       I    between atoms: C_11  and  N_12 
REMARK    2  A    between atoms: N_12  and  C_13 
REMARK    3  A    between atoms: C_13  and  C_14 
REMARK    4  A    between atoms: C_14  and  O_15 
REMARK    5  A    between atoms: C_14  and  C_16 
REMARK    6  A    between atoms: C_16  and  O_17 
REMARK    7  A    between atoms: O_17  and  C_18 
ROOT
HETATM    1  C   UNL     1      39.821 -14.605   0.488  1.00  0.00     0.257 C 
HETATM    2  N   UNL     1      39.790 -13.756   1.571  1.00  0.00    -0.354 N 
HETATM    3  O   UNL     1      39.828 -15.826   0.591  1.00  0.00    -0.267 OA
HETATM    4  H   UNL     1      39.909 -12.770   1.343  1.00  0.00     0.162 HD
ENDROOT
BRANCH   2   5
HETATM    5  C   UNL     1      40.067 -14.153   2.947  1.00  0.00     0.156 C 
BRANCH   5   6
HETATM    6  C   UNL     1      41.264 -13.462   3.629  1.00  0.00     0.160 C 
BRANCH   6   7
HETATM    7  O   UNL     1      41.082 -13.487   5.054  1.00  0.00    -0.392 OA
HETATM    8  H   UNL     1      40.173 -13.830   5.204  1.00  0.00     0.210 HD
ENDBRANCH   6   7
BRANCH   6   9
HETATM    9  C   UNL     1      42.572 -14.209   3.319  1.00  0.00     0.209 C 
BRANCH   9  10
HETATM   10  O   UNL     1      42.763 -15.227   4.311  1.00  0.00    -0.349 OA
BRANCH  10  11
HETATM   11  C   UNL     1      43.109 -16.474   3.872  1.00  0.00     0.069 A 
HETATM   12  C   UNL     1      42.522 -16.847   2.660  1.00  0.00     0.038 A 
HETATM   13  C   UNL     1      42.785 -18.097   2.094  1.00  0.00     0.026 A 
HETATM   14  C   UNL     1      43.639 -18.979   2.750  1.00  0.00     0.034 A 
HETATM   15 CL   UNL     1      43.969 -20.522   2.063  1.00  0.00    -0.084 Cl
HETATM   16  C   UNL     1      44.226 -18.620   3.961  1.00  0.00     0.026 A 
HETATM   17  C   UNL     1      43.960 -17.367   4.525  1.00  0.00     0.038 A 
ENDBRANCH  10  11
ENDBRANCH   9  10
ENDBRANCH   6   9
ENDBRANCH   5   6
ENDBRANCH   2   5
BRANCH   1  18
HETATM   18  C   UNL     1      39.853 -13.957  -0.807  1.00  0.00     0.098 A 
HETATM   19  C   UNL     1      40.179 -12.649  -1.117  1.00  0.00     0.167 A 
HETATM   20  N   UNL     1      40.117 -12.552  -2.513  1.00  0.00    -0.226 N 
HETATM   21  N   UNL     1      40.542 -11.583  -0.331  1.00  0.00    -0.240 NA
HETATM   22  C   UNL     1      40.452 -11.367  -3.156  1.00  0.00     0.128 A 
HETATM   23  N   UNL     1      39.728 -13.716  -3.083  1.00  0.00    -0.178 NA
HETATM   24  C   UNL     1      40.841 -10.293  -2.452  1.00  0.00    -0.027 A 
HETATM   25  C   UNL     1      41.252  -8.976  -3.008  1.00  0.00     0.051 C 
HETATM   26  C   UNL     1      40.851 -10.491  -0.970  1.00  0.00     0.127 A 
HETATM   27  C   UNL     1      39.589 -14.556  -2.056  1.00  0.00     0.160 A 
ENDBRANCH   1  18
TORSDOF 7
ENDMDL
MODEL 8
REMARK VINA RESULT:      -7.1      3.120      5.340
REMARK  7 active torsions:
REMARK  status: ('A' for Active; 'I' for Inactive)
REMARK    1  A    between atoms: C_10  and  C_11 
REMARK       I    between atoms: C_11  and  N_12 
REMARK    2  A    between atoms: N_12  and  C_13 
REMARK    3  A    between atoms: C_13  and  C_14 
REMARK    4  A    between atoms: C_14  and  O_15 
REMARK    5  A    between atoms: C_14  and  C_16 
REMARK    6  A    between atoms: C_16  and  O_17 
REMARK    7  A    between atoms: O_17  and  C_18 
ROOT
HETATM    1  C   UNL     1      40.967 -12.530   4.360  1.00  0.00     0.257 C 
HETATM    2  N   UNL     1      41.692 -12.418   3.196  1.00  0.00    -0.354 N 
HETATM    3  O   UNL     1      40.010 -13.286   4.488  1.00  0.00    -0.267 OA
HETATM    4  H   UNL     1      42.381 -11.668   3.193  1.00  0.00     0.162 HD
ENDROOT
BRANCH   2   5
HETATM    5  C   UNL     1      41.260 -12.923   1.896  1.00  0.00     0.156 C 
BRANCH   5   6
HETATM    6  C   UNL     1      41.554 -14.408   1.607  1.00  0.00     0.160 C 
BRANCH   6   7
HETATM    7  O   UNL     1      41.344 -14.674   0.212  1.00  0.00    -0.392 OA
HETATM    8  H   UNL     1      41.764 -13.928  -0.272  1.00  0.00     0.210 HD
ENDBRANCH   6   7
BRANCH   6   9
HETATM    9  C   UNL     1      43.021 -14.742   1.925  1.00  0.00     0.209 C 
BRANCH   9  10
HETATM   10  O   UNL     1      43.116 -15.118   3.305  1.00  0.00    -0.349 OA
BRANCH  10  11
HETATM   11  C   UNL     1      43.404 -16.425   3.582  1.00  0.00     0.069 A 
HETATM   12  C   UNL     1      43.702 -16.683   4.923  1.00  0.00     0.038 A 
HETATM   13  C   UNL     1      44.018 -17.975   5.349  1.00  0.00     0.026 A 
HETATM   14  C   UNL     1      44.038 -19.015   4.423  1.00  0.00     0.034 A 
HETATM   15 CL   UNL     1      44.426 -20.611   4.936  1.00  0.00    -0.084 Cl
HETATM   16  C   UNL     1      43.747 -18.769   3.083  1.00  0.00     0.026 A 
HETATM   17  C   UNL     1      43.432 -17.472   2.660  1.00  0.00     0.038 A 
ENDBRANCH  10  11
ENDBRANCH   9  10
ENDBRANCH   6   9
ENDBRANCH   5   6
ENDBRANCH   2   5
BRANCH   1  18
HETATM   18  C   UNL     1      41.406 -11.679   5.448  1.00  0.00     0.098 A 
HETATM   19  C   UNL     1      42.671 -11.546   5.991  1.00  0.00     0.167 A 
HETATM   20  N   UNL     1      42.571 -10.550   6.971  1.00  0.00    -0.226 N 
HETATM   21  N   UNL     1      43.863 -12.163   5.701  1.00  0.00    -0.240 NA
HETATM   22  C   UNL     1      43.696 -10.130   7.671  1.00  0.00     0.128 A 
HETATM   23  N   UNL     1      41.305 -10.089   7.096  1.00  0.00    -0.178 NA
HETATM   24  C   UNL     1      44.898 -10.672   7.421  1.00  0.00    -0.027 A 
HETATM   25  C   UNL     1      46.183 -10.302   8.072  1.00  0.00     0.051 C 
HETATM   26  C   UNL     1      44.895 -11.741   6.376  1.00  0.00     0.127 A 
HETATM   27  C   UNL     1      40.618 -10.759   6.169  1.00  0.00     0.160 A 
ENDBRANCH   1  18
TORSDOF 7
ENDMDL
MODEL 9
REMARK VINA RESULT:      -7.1      5.391      7.763
REMARK  7 active torsions:
REMARK  status: ('A' for Active; 'I' for Inactive)
REMARK    1  A    between atoms: C_10  and  C_11 
REMARK       I    between atoms: C_11  and  N_12 
REMARK    2  A    between atoms: N_12  and  C_13 
REMARK    3  A    between atoms: C_13  and  C_14 
REMARK    4  A    between atoms: C_14  and  O_15 
REMARK    5  A    between atoms: C_14  and  C_16 
REMARK    6  A    between atoms: C_16  and  O_17 
REMARK    7  A    between atoms: O_17  and  C_18 
ROOT
HETATM    1  C   UNL     1      42.006 -13.771   5.411  1.00  0.00     0.257 C 
HETATM    2  N   UNL     1      43.296 -13.354   5.648  1.00  0.00    -0.354 N 
HETATM    3  O   UNL     1      41.048 -13.418   6.090  1.00  0.00    -0.267 OA
HETATM    4  H   UNL     1      44.005 -13.818   5.083  1.00  0.00     0.162 HD
ENDROOT
BRANCH   2   5
HETATM    5  C   UNL     1      43.749 -12.711   6.878  1.00  0.00     0.156 C 
BRANCH   5   6
HETATM    6  C   UNL     1      43.603 -11.178   6.941  1.00  0.00     0.160 C 
BRANCH   6   7
HETATM    7  O   UNL     1      42.259 -10.841   7.320  1.00  0.00    -0.392 OA
HETATM    8  H   UNL     1      42.339 -10.154   8.017  1.00  0.00     0.210 HD
ENDBRANCH   6   7
BRANCH   6   9
HETATM    9  C   UNL     1      44.543 -10.586   8.004  1.00  0.00     0.209 C 
BRANCH   9  10
HETATM   10  O   UNL     1      44.307 -11.259   9.249  1.00  0.00    -0.349 OA
BRANCH  10  11
HETATM   11  C   UNL     1      43.911 -10.495  10.310  1.00  0.00     0.069 A 
HETATM   12  C   UNL     1      43.993  -9.116  10.096  1.00  0.00     0.038 A 
HETATM   13  C   UNL     1      43.622  -8.215  11.097  1.00  0.00     0.026 A 
HETATM   14  C   UNL     1      43.170  -8.699  12.321  1.00  0.00     0.034 A 
HETATM   15 CL   UNL     1      42.712  -7.599  13.562  1.00  0.00    -0.084 Cl
HETATM   16  C   UNL     1      43.089 -10.072  12.548  1.00  0.00     0.026 A 
HETATM   17  C   UNL     1      43.462 -10.972  11.542  1.00  0.00     0.038 A 
ENDBRANCH  10  11
ENDBRANCH   9  10
ENDBRANCH   6   9
ENDBRANCH   5   6
ENDBRANCH   2   5
BRANCH   1  18
HETATM   18  C   UNL     1      41.843 -14.676   4.291  1.00  0.00     0.098 A 
HETATM   19  C   UNL     1      42.519 -15.853   4.020  1.00  0.00     0.167 A 
HETATM   20  N   UNL     1      41.939 -16.374   2.857  1.00  0.00    -0.226 N 
HETATM   21  N   UNL     1      43.529 -16.504   4.683  1.00  0.00    -0.240 NA
HETATM   22  C   UNL     1      42.356 -17.598   2.345  1.00  0.00     0.128 A 
HETATM   23  N   UNL     1      40.972 -15.565   2.367  1.00  0.00    -0.178 NA
HETATM   24  C   UNL     1      43.322 -18.301   2.957  1.00  0.00    -0.027 A 
HETATM   25  C   UNL     1      43.844 -19.629   2.538  1.00  0.00     0.051 C 
HETATM   26  C   UNL     1      43.891 -17.648   4.175  1.00  0.00     0.127 A 
HETATM   27  C   UNL     1      40.910 -14.560   3.241  1.00  0.00     0.160 A 
ENDBRANCH   1  18
TORSDOF 7
ENDMDL
MODEL 10
REMARK VINA RESULT:      -6.8      3.188      5.664
REMARK  7 active torsions:
REMARK  status: ('A' for Active; 'I' for Inactive)
REMARK    1  A    between atoms: C_10  and  C_11 
REMARK       I    between atoms: C_11  and  N_12 
REMARK    2  A    between atoms: N_12  and  C_13 
REMARK    3  A    between atoms: C_13  and  C_14 
REMARK    4  A    between atoms: C_14  and  O_15 
REMARK    5  A    between atoms: C_14  and  C_16 
REMARK    6  A    between atoms: C_16  and  O_17 
REMARK    7  A    between atoms: O_17  and  C_18 
ROOT
HETATM    1  C   UNL     1      41.213 -12.787   4.847  1.00  0.00     0.257 C 
HETATM    2  N   UNL     1      41.516 -13.402   3.654  1.00  0.00    -0.354 N 
HETATM    3  O   UNL     1      40.089 -12.389   5.132  1.00  0.00    -0.267 OA
HETATM    4  H   UNL     1      42.510 -13.572   3.502  1.00  0.00     0.162 HD
ENDROOT
BRANCH   2   5
HETATM    5  C   UNL     1      40.661 -13.391   2.471  1.00  0.00     0.156 C 
BRANCH   5   6
HETATM    6  C   UNL     1      40.655 -14.676   1.621  1.00  0.00     0.160 C 
BRANCH   6   7
HETATM    7  O   UNL     1      41.647 -14.569   0.587  1.00  0.00    -0.392 OA
HETATM    8  H   UNL     1      41.732 -13.610   0.393  1.00  0.00     0.210 HD
ENDBRANCH   6   7
BRANCH   6   9
HETATM    9  C   UNL     1      41.017 -15.899   2.481  1.00  0.00     0.209 C 
BRANCH   9  10
HETATM   10  O   UNL     1      42.395 -16.225   2.254  1.00  0.00    -0.349 OA
BRANCH  10  11
HETATM   11  C   UNL     1      42.937 -17.223   3.014  1.00  0.00     0.069 A 
HETATM   12  C   UNL     1      43.170 -18.416   2.326  1.00  0.00     0.038 A 
HETATM   13  C   UNL     1      43.720 -19.522   2.979  1.00  0.00     0.026 A 
HETATM   14  C   UNL     1      44.033 -19.432   4.332  1.00  0.00     0.034 A 
HETATM   15 CL   UNL     1      44.709 -20.788   5.148  1.00  0.00    -0.084 Cl
HETATM   16  C   UNL     1      43.800 -18.249   5.031  1.00  0.00     0.026 A 
HETATM   17  C   UNL     1      43.249 -17.143   4.373  1.00  0.00     0.038 A 
ENDBRANCH  10  11
ENDBRANCH   9  10
ENDBRANCH   6   9
ENDBRANCH   5   6
ENDBRANCH   2   5
BRANCH   1  18
HETATM   18  C   UNL     1      42.324 -12.628   5.763  1.00  0.00     0.098 A 
HETATM   19  C   UNL     1      42.733 -11.496   6.445  1.00  0.00     0.167 A 
HETATM   20  N   UNL     1      43.812 -11.892   7.245  1.00  0.00    -0.226 N 
HETATM   21  N   UNL     1      42.251 -10.210   6.459  1.00  0.00    -0.240 NA
HETATM   22  C   UNL     1      44.420 -10.990   8.110  1.00  0.00     0.128 A 
HETATM   23  N   UNL     1      44.123 -13.196   7.065  1.00  0.00    -0.178 NA
HETATM   24  C   UNL     1      43.985  -9.723   8.194  1.00  0.00    -0.027 A 
HETATM   25  C   UNL     1      44.521  -8.665   9.091  1.00  0.00     0.051 C 
HETATM   26  C   UNL     1      42.845  -9.395   7.283  1.00  0.00     0.127 A 
HETATM   27  C   UNL     1      43.217 -13.632   6.189  1.00  0.00     0.160 A 
ENDBRANCH   1  18
TORSDOF 7
ENDMDL
