MODEL 1
REMARK VINA RESULT:      -9.1      0.000      0.000
REMARK  5 active torsions:
REMARK  status: ('A' for Active; 'I' for Inactive)
REMARK    1  A    between atoms: C_3  and  O_4 
REMARK    2  A    between atoms: C_6  and  N_7 
REMARK       I    between atoms: N_7  and  C_8 
REMARK    3  A    between atoms: C_8  and  C_9 
REMARK    4  A    between atoms: C_14  and  C_15 
REMARK    5  A    between atoms: C_23  and  C_24 
ROOT
HETATM    1  C   UNL     1      40.388 -13.259  -0.701  1.00  0.00     0.148 A 
HETATM    2  N   UNL     1      40.842 -12.606   0.395  1.00  0.00    -0.165 NA
HETATM    3  N   UNL     1      40.790 -13.546   1.359  1.00  0.00    -0.240 N 
HETATM    4  C   UNL     1      40.241 -14.728   0.954  1.00  0.00     0.123 A 
HETATM    5  N   UNL     1      40.041 -15.754   1.808  1.00  0.00    -0.366 N 
HETATM    6  C   UNL     1      40.498 -15.722   3.191  1.00  0.00     0.118 C 
HETATM    7  C   UNL     1      40.605 -14.273   3.702  1.00  0.00     0.066 C 
HETATM    8  C   UNL     1      41.245 -13.282   2.711  1.00  0.00     0.221 C 
HETATM    9  C   UNL     1      39.991 -14.586  -0.384  1.00  0.00     0.089 A 
HETATM   10  H   UNL     1      39.733 -16.664   1.469  1.00  0.00     0.161 HD
ENDROOT
BRANCH   1  11
HETATM   11  C   UNL     1      40.331 -12.622  -2.031  1.00  0.00     0.276 C 
HETATM   12  N   UNL     1      40.003 -11.283  -1.947  1.00  0.00    -0.322 N 
HETATM   13  H   UNL     1      39.827 -10.970  -0.996  1.00  0.00     0.169 HD
HETATM   14  O   UNL     1      40.554 -13.262  -3.051  1.00  0.00    -0.266 OA
BRANCH  12  15
HETATM   15  C   UNL     1      39.890 -10.346  -2.987  1.00  0.00     0.037 A 
HETATM   16  C   UNL     1      40.964  -9.611  -3.494  1.00  0.00     0.066 A 
HETATM   17  C   UNL     1      40.755  -8.690  -4.520  1.00  0.00     0.067 A 
HETATM   18  C   UNL     1      39.489  -8.491  -5.062  1.00  0.00     0.036 A 
HETATM   19  C   UNL     1      38.415  -9.223  -4.564  1.00  0.00     0.005 A 
HETATM   20  C   UNL     1      38.613 -10.143  -3.530  1.00  0.00     0.029 A 
BRANCH  17  21
HETATM   21  O   UNL     1      41.834  -7.986  -4.970  1.00  0.00    -0.361 OA
HETATM   22  H   UNL     1      42.633  -8.325  -4.535  1.00  0.00     0.217 HD
ENDBRANCH  17  21
ENDBRANCH  12  15
ENDBRANCH   1  11
BRANCH   8  23
HETATM   23  C   UNL     1      42.756 -13.259   2.758  1.00  0.00     0.409 C 
HETATM   24  F   UNL     1      43.344 -14.075   1.865  1.00  0.00    -0.169 F 
HETATM   25  F   UNL     1      43.247 -12.013   2.552  1.00  0.00    -0.169 F 
HETATM   26  F   UNL     1      43.189 -13.634   3.990  1.00  0.00    -0.169 F 
ENDBRANCH   8  23
BRANCH   6  27
HETATM   27  C   UNL     1      41.727 -16.586   3.422  1.00  0.00    -0.035 A 
HETATM   28  C   UNL     1      42.339 -17.334   2.400  1.00  0.00     0.012 A 
HETATM   29  C   UNL     1      43.451 -18.137   2.664  1.00  0.00     0.043 A 
HETATM   30  C   UNL     1      43.956 -18.205   3.955  1.00  0.00     0.116 A 
HETATM   31  F   UNL     1      45.018 -18.980   4.210  1.00  0.00    -0.206 F 
HETATM   32  C   UNL     1      43.372 -17.484   4.986  1.00  0.00     0.043 A 
HETATM   33  C   UNL     1      42.263 -16.676   4.722  1.00  0.00     0.012 A 
ENDBRANCH   6  27
TORSDOF 5
ENDMDL
MODEL 2
REMARK VINA RESULT:      -9.0      5.760      8.550
REMARK  5 active torsions:
REMARK  status: ('A' for Active; 'I' for Inactive)
REMARK    1  A    between atoms: C_3  and  O_4 
REMARK    2  A    between atoms: C_6  and  N_7 
REMARK       I    between atoms: N_7  and  C_8 
REMARK    3  A    between atoms: C_8  and  C_9 
REMARK    4  A    between atoms: C_14  and  C_15 
REMARK    5  A    between atoms: C_23  and  C_24 
ROOT
HETATM    1  C   UNL     1      42.437 -11.865   5.692  1.00  0.00     0.148 A 
HETATM    2  N   UNL     1      41.303 -12.605   5.707  1.00  0.00    -0.165 NA
HETATM    3  N   UNL     1      41.546 -13.564   4.792  1.00  0.00    -0.240 N 
HETATM    4  C   UNL     1      42.733 -13.415   4.133  1.00  0.00     0.123 A 
HETATM    5  N   UNL     1      43.103 -14.240   3.132  1.00  0.00    -0.366 N 
HETATM    6  C   UNL     1      42.325 -15.414   2.756  1.00  0.00     0.118 C 
HETATM    7  C   UNL     1      40.842 -15.234   3.129  1.00  0.00     0.066 C 
HETATM    8  C   UNL     1      40.593 -14.623   4.522  1.00  0.00     0.221 C 
HETATM    9  C   UNL     1      43.349 -12.337   4.709  1.00  0.00     0.089 A 
HETATM   10  H   UNL     1      44.035 -14.184   2.726  1.00  0.00     0.161 HD
ENDROOT
BRANCH   1  11
HETATM   11  C   UNL     1      42.645 -10.721   6.601  1.00  0.00     0.276 C 
HETATM   12  N   UNL     1      43.106 -11.124   7.838  1.00  0.00    -0.322 N 
HETATM   13  H   UNL     1      43.196 -12.133   7.927  1.00  0.00     0.169 HD
HETATM   14  O   UNL     1      42.411  -9.574   6.241  1.00  0.00    -0.266 OA
BRANCH  12  15
HETATM   15  C   UNL     1      43.451 -10.326   8.943  1.00  0.00     0.037 A 
HETATM   16  C   UNL     1      42.538  -9.547   9.657  1.00  0.00     0.066 A 
HETATM   17  C   UNL     1      42.974  -8.774  10.732  1.00  0.00     0.067 A 
HETATM   18  C   UNL     1      44.310  -8.768  11.120  1.00  0.00     0.036 A 
HETATM   19  C   UNL     1      45.225  -9.546  10.415  1.00  0.00     0.005 A 
HETATM   20  C   UNL     1      44.798 -10.318   9.329  1.00  0.00     0.029 A 
BRANCH  17  21
HETATM   21  O   UNL     1      42.046  -8.020  11.389  1.00  0.00    -0.361 OA
HETATM   22  H   UNL     1      41.324  -8.598  11.683  1.00  0.00     0.217 HD
ENDBRANCH  17  21
ENDBRANCH  12  15
ENDBRANCH   1  11
BRANCH   8  23
HETATM   23  C   UNL     1      40.605 -15.635   5.645  1.00  0.00     0.409 C 
HETATM   24  F   UNL     1      41.787 -15.736   6.279  1.00  0.00    -0.169 F 
HETATM   25  F   UNL     1      39.666 -15.358   6.582  1.00  0.00    -0.169 F 
HETATM   26  F   UNL     1      40.302 -16.869   5.164  1.00  0.00    -0.169 F 
ENDBRANCH   8  23
BRANCH   6  27
HETATM   27  C   UNL     1      42.961 -16.713   3.225  1.00  0.00    -0.035 A 
HETATM   28  C   UNL     1      43.731 -16.807   4.399  1.00  0.00     0.012 A 
HETATM   29  C   UNL     1      44.319 -18.016   4.777  1.00  0.00     0.043 A 
HETATM   30  C   UNL     1      44.151 -19.139   3.980  1.00  0.00     0.116 A 
HETATM   31  F   UNL     1      44.722 -20.297   4.339  1.00  0.00    -0.206 F 
HETATM   32  C   UNL     1      43.403 -19.077   2.813  1.00  0.00     0.043 A 
HETATM   33  C   UNL     1      42.809 -17.871   2.437  1.00  0.00     0.012 A 
ENDBRANCH   6  27
TORSDOF 5
ENDMDL
MODEL 3
REMARK VINA RESULT:      -8.9      4.963      8.485
REMARK  5 active torsions:
REMARK  status: ('A' for Active; 'I' for Inactive)
REMARK    1  A    between atoms: C_3  and  O_4 
REMARK    2  A    between atoms: C_6  and  N_7 
REMARK       I    between atoms: N_7  and  C_8 
REMARK    3  A    between atoms: C_8  and  C_9 
REMARK    4  A    between atoms: C_14  and  C_15 
REMARK    5  A    between atoms: C_23  and  C_24 
ROOT
HETATM    1  C   UNL     1      42.484 -13.694   5.549  1.00  0.00     0.148 A 
HETATM    2  N   UNL     1      42.778 -14.841   4.893  1.00  0.00    -0.165 NA
HETATM    3  N   UNL     1      41.848 -14.890   3.919  1.00  0.00    -0.240 N 
HETATM    4  C   UNL     1      40.925 -13.885   3.982  1.00  0.00     0.123 A 
HETATM    5  N   UNL     1      39.879 -13.822   3.132  1.00  0.00    -0.366 N 
HETATM    6  C   UNL     1      39.717 -14.747   2.018  1.00  0.00     0.118 C 
HETATM    7  C   UNL     1      40.427 -16.084   2.305  1.00  0.00     0.066 C 
HETATM    8  C   UNL     1      41.828 -15.953   2.932  1.00  0.00     0.221 C 
HETATM    9  C   UNL     1      41.321 -13.076   5.012  1.00  0.00     0.089 A 
HETATM   10  H   UNL     1      39.263 -13.011   3.120  1.00  0.00     0.161 HD
ENDROOT
BRANCH   1  11
HETATM   11  C   UNL     1      43.298 -13.197   6.675  1.00  0.00     0.276 C 
HETATM   12  N   UNL     1      43.697 -11.889   6.482  1.00  0.00    -0.322 N 
HETATM   13  H   UNL     1      43.393 -11.500   5.593  1.00  0.00     0.169 HD
HETATM   14  O   UNL     1      43.558 -13.912   7.634  1.00  0.00    -0.266 OA
BRANCH  12  15
HETATM   15  C   UNL     1      44.446 -11.070   7.344  1.00  0.00     0.037 A 
HETATM   16  C   UNL     1      45.749 -10.643   7.077  1.00  0.00     0.066 A 
HETATM   17  C   UNL     1      46.423  -9.843   7.999  1.00  0.00     0.067 A 
HETATM   18  C   UNL     1      45.816  -9.448   9.187  1.00  0.00     0.036 A 
HETATM   19  C   UNL     1      44.516  -9.866   9.458  1.00  0.00     0.005 A 
HETATM   20  C   UNL     1      43.837 -10.677   8.543  1.00  0.00     0.029 A 
BRANCH  17  21
HETATM   21  O   UNL     1      47.698  -9.463   7.698  1.00  0.00    -0.361 OA
HETATM   22  H   UNL     1      47.674  -8.855   6.942  1.00  0.00     0.217 HD
ENDBRANCH  17  21
ENDBRANCH  12  15
ENDBRANCH   1  11
BRANCH   8  23
HETATM   23  C   UNL     1      42.934 -15.747   1.922  1.00  0.00     0.409 C 
HETATM   24  F   UNL     1      42.583 -16.044   0.658  1.00  0.00    -0.169 F 
HETATM   25  F   UNL     1      43.388 -14.471   1.926  1.00  0.00    -0.169 F 
HETATM   26  F   UNL     1      44.002 -16.526   2.235  1.00  0.00    -0.169 F 
ENDBRANCH   8  23
BRANCH   6  27
HETATM   27  C   UNL     1      40.045 -14.112   0.676  1.00  0.00    -0.035 A 
HETATM   28  C   UNL     1      40.663 -12.854   0.556  1.00  0.00     0.012 A 
HETATM   29  C   UNL     1      40.920 -12.296  -0.698  1.00  0.00     0.043 A 
HETATM   30  C   UNL     1      40.554 -12.988  -1.844  1.00  0.00     0.116 A 
HETATM   31  F   UNL     1      40.794 -12.450  -3.047  1.00  0.00    -0.206 F 
HETATM   32  C   UNL     1      39.938 -14.228  -1.759  1.00  0.00     0.043 A 
HETATM   33  C   UNL     1      39.685 -14.790  -0.506  1.00  0.00     0.012 A 
ENDBRANCH   6  27
TORSDOF 5
ENDMDL
MODEL 4
REMARK VINA RESULT:      -8.6      3.638      9.205
REMARK  5 active torsions:
REMARK  status: ('A' for Active; 'I' for Inactive)
REMARK    1  A    between atoms: C_3  and  O_4 
REMARK    2  A    between atoms: C_6  and  N_7 
REMARK       I    between atoms: N_7  and  C_8 
REMARK    3  A    between atoms: C_8  and  C_9 
REMARK    4  A    between atoms: C_14  and  C_15 
REMARK    5  A    between atoms: C_23  and  C_24 
ROOT
HETATM    1  C   UNL     1      41.570 -14.259   1.027  1.00  0.00     0.148 A 
HETATM    2  N   UNL     1      40.653 -14.759   0.166  1.00  0.00    -0.165 NA
HETATM    3  N   UNL     1      39.970 -13.667  -0.231  1.00  0.00    -0.240 N 
HETATM    4  C   UNL     1      40.344 -12.518   0.404  1.00  0.00     0.123 A 
HETATM    5  N   UNL     1      39.716 -11.344   0.187  1.00  0.00    -0.366 N 
HETATM    6  C   UNL     1      38.673 -11.188  -0.819  1.00  0.00     0.118 C 
HETATM    7  C   UNL     1      37.967 -12.529  -1.092  1.00  0.00     0.066 C 
HETATM    8  C   UNL     1      38.907 -13.744  -1.214  1.00  0.00     0.221 C 
HETATM    9  C   UNL     1      41.398 -12.860   1.209  1.00  0.00     0.089 A 
HETATM   10  H   UNL     1      40.075 -10.477   0.583  1.00  0.00     0.161 HD
ENDROOT
BRANCH   1  11
HETATM   11  C   UNL     1      42.594 -15.105   1.669  1.00  0.00     0.276 C 
HETATM   12  N   UNL     1      42.072 -16.310   2.095  1.00  0.00    -0.322 N 
HETATM   13  H   UNL     1      41.073 -16.400   1.925  1.00  0.00     0.169 HD
HETATM   14  O   UNL     1      43.752 -14.723   1.784  1.00  0.00    -0.266 OA
BRANCH  12  15
HETATM   15  C   UNL     1      42.740 -17.381   2.713  1.00  0.00     0.037 A 
HETATM   16  C   UNL     1      42.959 -18.619   2.103  1.00  0.00     0.066 A 
HETATM   17  C   UNL     1      43.620 -19.630   2.798  1.00  0.00     0.067 A 
HETATM   18  C   UNL     1      44.080 -19.430   4.096  1.00  0.00     0.036 A 
HETATM   19  C   UNL     1      43.869 -18.197   4.708  1.00  0.00     0.005 A 
HETATM   20  C   UNL     1      43.199 -17.179   4.022  1.00  0.00     0.029 A 
BRANCH  17  21
HETATM   21  O   UNL     1      43.796 -20.825   2.164  1.00  0.00    -0.361 OA
HETATM   22  H   UNL     1      44.562 -20.756   1.572  1.00  0.00     0.217 HD
ENDBRANCH  17  21
ENDBRANCH  12  15
ENDBRANCH   1  11
BRANCH   8  23
HETATM   23  C   UNL     1      39.488 -13.932  -2.597  1.00  0.00     0.409 C 
HETATM   24  F   UNL     1      40.714 -13.399  -2.753  1.00  0.00    -0.169 F 
HETATM   25  F   UNL     1      39.571 -15.241  -2.935  1.00  0.00    -0.169 F 
HETATM   26  F   UNL     1      38.680 -13.355  -3.525  1.00  0.00    -0.169 F 
ENDBRANCH   8  23
BRANCH   6  27
HETATM   27  C   UNL     1      39.156 -10.444  -2.054  1.00  0.00    -0.035 A 
HETATM   28  C   UNL     1      38.302 -10.080  -3.111  1.00  0.00     0.012 A 
HETATM   29  C   UNL     1      38.795  -9.422  -4.239  1.00  0.00     0.043 A 
HETATM   30  C   UNL     1      40.149  -9.129  -4.325  1.00  0.00     0.116 A 
HETATM   31  F   UNL     1      40.624  -8.505  -5.411  1.00  0.00    -0.206 F 
HETATM   32  C   UNL     1      41.019  -9.480  -3.303  1.00  0.00     0.043 A 
HETATM   33  C   UNL     1      40.526 -10.134  -2.171  1.00  0.00     0.012 A 
ENDBRANCH   6  27
TORSDOF 5
ENDMDL
MODEL 5
REMARK VINA RESULT:      -8.6      1.021      1.873
REMARK  5 active torsions:
REMARK  status: ('A' for Active; 'I' for Inactive)
REMARK    1  A    between atoms: C_3  and  O_4 
REMARK    2  A    between atoms: C_6  and  N_7 
REMARK       I    between atoms: N_7  and  C_8 
REMARK    3  A    between atoms: C_8  and  C_9 
REMARK    4  A    between atoms: C_14  and  C_15 
REMARK    5  A    between atoms: C_23  and  C_24 
ROOT
HETATM    1  C   UNL     1      40.870 -12.708  -0.244  1.00  0.00     0.148 A 
HETATM    2  N   UNL     1      41.253 -12.201   0.952  1.00  0.00    -0.165 NA
HETATM    3  N   UNL     1      41.081 -13.236   1.797  1.00  0.00    -0.240 N 
HETATM    4  C   UNL     1      40.522 -14.339   1.218  1.00  0.00     0.123 A 
HETATM    5  N   UNL     1      40.209 -15.440   1.933  1.00  0.00    -0.366 N 
HETATM    6  C   UNL     1      40.546 -15.581   3.344  1.00  0.00     0.118 C 
HETATM    7  C   UNL     1      40.666 -14.203   4.021  1.00  0.00     0.066 C 
HETATM    8  C   UNL     1      41.428 -13.143   3.202  1.00  0.00     0.221 C 
HETATM    9  C   UNL     1      40.395 -14.041  -0.111  1.00  0.00     0.089 A 
HETATM   10  H   UNL     1      39.895 -16.292   1.471  1.00  0.00     0.161 HD
ENDROOT
BRANCH   1  11
HETATM   11  C   UNL     1      40.953 -11.929  -1.495  1.00  0.00     0.276 C 
HETATM   12  N   UNL     1      41.296 -10.613  -1.259  1.00  0.00    -0.322 N 
HETATM   13  H   UNL     1      41.403 -10.394  -0.271  1.00  0.00     0.169 HD
HETATM   14  O   UNL     1      40.727 -12.448  -2.581  1.00  0.00    -0.266 OA
BRANCH  12  15
HETATM   15  C   UNL     1      41.505  -9.585  -2.194  1.00  0.00     0.037 A 
HETATM   16  C   UNL     1      40.949  -9.572  -3.475  1.00  0.00     0.066 A 
HETATM   17  C   UNL     1      41.223  -8.516  -4.343  1.00  0.00     0.067 A 
HETATM   18  C   UNL     1      42.040  -7.459  -3.954  1.00  0.00     0.036 A 
HETATM   19  C   UNL     1      42.594  -7.463  -2.677  1.00  0.00     0.005 A 
HETATM   20  C   UNL     1      42.332  -8.523  -1.803  1.00  0.00     0.029 A 
BRANCH  17  21
HETATM   21  O   UNL     1      40.667  -8.557  -5.588  1.00  0.00    -0.361 OA
HETATM   22  H   UNL     1      41.352  -8.350  -6.244  1.00  0.00     0.217 HD
ENDBRANCH  17  21
ENDBRANCH  12  15
ENDBRANCH   1  11
BRANCH   8  23
HETATM   23  C   UNL     1      42.929 -13.199   3.374  1.00  0.00     0.409 C 
HETATM   24  F   UNL     1      43.326 -13.631   4.585  1.00  0.00    -0.169 F 
HETATM   25  F   UNL     1      43.512 -13.998   2.449  1.00  0.00    -0.169 F 
HETATM   26  F   UNL     1      43.465 -11.964   3.194  1.00  0.00    -0.169 F 
ENDBRANCH   8  23
BRANCH   6  27
HETATM   27  C   UNL     1      41.715 -16.524   3.576  1.00  0.00    -0.035 A 
HETATM   28  C   UNL     1      42.307 -16.713   4.838  1.00  0.00     0.012 A 
HETATM   29  C   UNL     1      43.398 -17.569   5.000  1.00  0.00     0.043 A 
HETATM   30  C   UNL     1      43.915 -18.236   3.899  1.00  0.00     0.116 A 
HETATM   31  F   UNL     1      44.967 -19.051   4.052  1.00  0.00    -0.206 F 
HETATM   32  C   UNL     1      43.358 -18.067   2.639  1.00  0.00     0.043 A 
HETATM   33  C   UNL     1      42.263 -17.216   2.477  1.00  0.00     0.012 A 
ENDBRANCH   6  27
TORSDOF 5
ENDMDL
MODEL 6
REMARK VINA RESULT:      -8.6      7.157      9.826
REMARK  5 active torsions:
REMARK  status: ('A' for Active; 'I' for Inactive)
REMARK    1  A    between atoms: C_3  and  O_4 
REMARK    2  A    between atoms: C_6  and  N_7 
REMARK       I    between atoms: N_7  and  C_8 
REMARK    3  A    between atoms: C_8  and  C_9 
REMARK    4  A    between atoms: C_14  and  C_15 
REMARK    5  A    between atoms: C_23  and  C_24 
ROOT
HETATM    1  C   UNL     1      42.058 -11.299   6.042  1.00  0.00     0.148 A 
HETATM    2  N   UNL     1      43.315 -10.917   6.369  1.00  0.00    -0.165 NA
HETATM    3  N   UNL     1      43.118  -9.969   7.306  1.00  0.00    -0.240 N 
HETATM    4  C   UNL     1      41.804  -9.665   7.521  1.00  0.00     0.123 A 
HETATM    5  N   UNL     1      41.426  -8.686   8.369  1.00  0.00    -0.366 N 
HETATM    6  C   UNL     1      42.376  -7.961   9.202  1.00  0.00     0.118 C 
HETATM    7  C   UNL     1      43.779  -7.962   8.565  1.00  0.00     0.066 C 
HETATM    8  C   UNL     1      44.224  -9.316   7.979  1.00  0.00     0.221 C 
HETATM    9  C   UNL     1      41.087 -10.527   6.736  1.00  0.00     0.089 A 
HETATM   10  H   UNL     1      40.444  -8.545   8.601  1.00  0.00     0.161 HD
ENDROOT
BRANCH   1  11
HETATM   11  C   UNL     1      41.788 -12.383   5.078  1.00  0.00     0.276 C 
HETATM   12  N   UNL     1      42.912 -13.146   4.834  1.00  0.00    -0.322 N 
HETATM   13  H   UNL     1      43.737 -12.819   5.330  1.00  0.00     0.169 HD
HETATM   14  O   UNL     1      40.677 -12.531   4.584  1.00  0.00    -0.266 OA
BRANCH  12  15
HETATM   15  C   UNL     1      43.037 -14.278   4.010  1.00  0.00     0.037 A 
HETATM   16  C   UNL     1      43.105 -15.588   4.490  1.00  0.00     0.066 A 
HETATM   17  C   UNL     1      43.243 -16.650   3.598  1.00  0.00     0.067 A 
HETATM   18  C   UNL     1      43.306 -16.434   2.225  1.00  0.00     0.036 A 
HETATM   19  C   UNL     1      43.234 -15.130   1.739  1.00  0.00     0.005 A 
HETATM   20  C   UNL     1      43.105 -14.058   2.627  1.00  0.00     0.029 A 
BRANCH  17  21
HETATM   21  O   UNL     1      43.320 -17.909   4.117  1.00  0.00    -0.361 OA
HETATM   22  H   UNL     1      43.039 -18.546   3.440  1.00  0.00     0.217 HD
ENDBRANCH  17  21
ENDBRANCH  12  15
ENDBRANCH   1  11
BRANCH   8  23
HETATM   23  C   UNL     1      44.841 -10.249   8.995  1.00  0.00     0.409 C 
HETATM   24  F   UNL     1      43.957 -11.065   9.597  1.00  0.00    -0.169 F 
HETATM   25  F   UNL     1      45.801 -11.030   8.443  1.00  0.00    -0.169 F 
HETATM   26  F   UNL     1      45.456  -9.533   9.973  1.00  0.00    -0.169 F 
ENDBRANCH   8  23
BRANCH   6  27
HETATM   27  C   UNL     1      42.324  -8.389  10.659  1.00  0.00    -0.035 A 
HETATM   28  C   UNL     1      41.446  -9.380  11.135  1.00  0.00     0.012 A 
HETATM   29  C   UNL     1      41.413  -9.722  12.488  1.00  0.00     0.043 A 
HETATM   30  C   UNL     1      42.251  -9.069  13.381  1.00  0.00     0.116 A 
HETATM   31  F   UNL     1      42.213  -9.391  14.680  1.00  0.00    -0.206 F 
HETATM   32  C   UNL     1      43.124  -8.082  12.945  1.00  0.00     0.043 A 
HETATM   33  C   UNL     1      43.162  -7.744  11.590  1.00  0.00     0.012 A 
ENDBRANCH   6  27
TORSDOF 5
ENDMDL
MODEL 7
REMARK VINA RESULT:      -8.4      6.911      9.867
REMARK  5 active torsions:
REMARK  status: ('A' for Active; 'I' for Inactive)
REMARK    1  A    between atoms: C_3  and  O_4 
REMARK    2  A    between atoms: C_6  and  N_7 
REMARK       I    between atoms: N_7  and  C_8 
REMARK    3  A    between atoms: C_8  and  C_9 
REMARK    4  A    between atoms: C_14  and  C_15 
REMARK    5  A    between atoms: C_23  and  C_24 
ROOT
HETATM    1  C   UNL     1      43.442 -10.885   7.355  1.00  0.00     0.148 A 
HETATM    2  N   UNL     1      42.209 -10.710   6.822  1.00  0.00    -0.165 NA
HETATM    3  N   UNL     1      42.348 -11.166   5.562  1.00  0.00    -0.240 N 
HETATM    4  C   UNL     1      43.624 -11.532   5.241  1.00  0.00     0.123 A 
HETATM    5  N   UNL     1      43.960 -11.939   3.999  1.00  0.00    -0.366 N 
HETATM    6  C   UNL     1      42.974 -12.130   2.943  1.00  0.00     0.118 C 
HETATM    7  C   UNL     1      41.735 -11.246   3.181  1.00  0.00     0.066 C 
HETATM    8  C   UNL     1      41.232 -11.212   4.637  1.00  0.00     0.221 C 
HETATM    9  C   UNL     1      44.355 -11.386   6.388  1.00  0.00     0.089 A 
HETATM   10  H   UNL     1      44.888 -12.312   3.804  1.00  0.00     0.161 HD
ENDROOT
BRANCH   1  11
HETATM   11  C   UNL     1      43.743 -10.573   8.765  1.00  0.00     0.276 C 
HETATM   12  N   UNL     1      42.688  -9.936   9.388  1.00  0.00    -0.322 N 
HETATM   13  H   UNL     1      41.900  -9.762   8.770  1.00  0.00     0.169 HD
HETATM   14  O   UNL     1      44.822 -10.868   9.263  1.00  0.00    -0.266 OA
BRANCH  12  15
HETATM   15  C   UNL     1      42.588  -9.519  10.726  1.00  0.00     0.037 A 
HETATM   16  C   UNL     1      41.554  -9.897  11.585  1.00  0.00     0.066 A 
HETATM   17  C   UNL     1      41.528  -9.422  12.896  1.00  0.00     0.067 A 
HETATM   18  C   UNL     1      42.525  -8.579  13.376  1.00  0.00     0.036 A 
HETATM   19  C   UNL     1      43.562  -8.202  12.526  1.00  0.00     0.005 A 
HETATM   20  C   UNL     1      43.591  -8.666  11.207  1.00  0.00     0.029 A 
BRANCH  17  21
HETATM   21  O   UNL     1      40.488  -9.808  13.691  1.00  0.00    -0.361 OA
HETATM   22  H   UNL     1      40.307 -10.749  13.534  1.00  0.00     0.217 HD
ENDBRANCH  17  21
ENDBRANCH  12  15
ENDBRANCH   1  11
BRANCH   8  23
HETATM   23  C   UNL     1      40.307 -12.354   4.991  1.00  0.00     0.409 C 
HETATM   24  F   UNL     1      39.731 -12.943   3.927  1.00  0.00    -0.169 F 
HETATM   25  F   UNL     1      40.947 -13.321   5.691  1.00  0.00    -0.169 F 
HETATM   26  F   UNL     1      39.305 -11.911   5.794  1.00  0.00    -0.169 F 
ENDBRANCH   8  23
BRANCH   6  27
HETATM   27  C   UNL     1      42.683 -13.597   2.672  1.00  0.00    -0.035 A 
HETATM   28  C   UNL     1      41.979 -14.040   1.537  1.00  0.00     0.012 A 
HETATM   29  C   UNL     1      41.709 -15.396   1.342  1.00  0.00     0.043 A 
HETATM   30  C   UNL     1      42.134 -16.322   2.284  1.00  0.00     0.116 A 
HETATM   31  F   UNL     1      41.869 -17.622   2.102  1.00  0.00    -0.206 F 
HETATM   32  C   UNL     1      42.825 -15.917   3.417  1.00  0.00     0.043 A 
HETATM   33  C   UNL     1      43.100 -14.561   3.611  1.00  0.00     0.012 A 
ENDBRANCH   6  27
TORSDOF 5
ENDMDL
MODEL 8
REMARK VINA RESULT:      -8.1      8.813     11.817
REMARK  5 active torsions:
REMARK  status: ('A' for Active; 'I' for Inactive)
REMARK    1  A    between atoms: C_3  and  O_4 
REMARK    2  A    between atoms: C_6  and  N_7 
REMARK       I    between atoms: N_7  and  C_8 
REMARK    3  A    between atoms: C_8  and  C_9 
REMARK    4  A    between atoms: C_14  and  C_15 
REMARK    5  A    between atoms: C_23  and  C_24 
ROOT
HETATM    1  C   UNL     1      43.988 -10.702   8.376  1.00  0.00     0.148 A 
HETATM    2  N   UNL     1      44.273 -10.791   9.697  1.00  0.00    -0.165 NA
HETATM    3  N   UNL     1      43.726  -9.672  10.210  1.00  0.00    -0.240 N 
HETATM    4  C   UNL     1      43.194  -8.834   9.272  1.00  0.00     0.123 A 
HETATM    5  N   UNL     1      42.673  -7.634   9.599  1.00  0.00    -0.366 N 
HETATM    6  C   UNL     1      42.533  -7.190  10.981  1.00  0.00     0.118 C 
HETATM    7  C   UNL     1      43.570  -7.880  11.887  1.00  0.00     0.066 C 
HETATM    8  C   UNL     1      43.754  -9.388  11.632  1.00  0.00     0.221 C 
HETATM    9  C   UNL     1      43.324  -9.482   8.073  1.00  0.00     0.089 A 
HETATM   10  H   UNL     1      42.182  -7.069   8.907  1.00  0.00     0.161 HD
ENDROOT
BRANCH   1  11
HETATM   11  C   UNL     1      44.350 -11.763   7.417  1.00  0.00     0.276 C 
HETATM   12  N   UNL     1      43.335 -12.687   7.266  1.00  0.00    -0.322 N 
HETATM   13  H   UNL     1      42.529 -12.502   7.858  1.00  0.00     0.169 HD
HETATM   14  O   UNL     1      45.439 -11.769   6.858  1.00  0.00    -0.266 OA
BRANCH  12  15
HETATM   15  C   UNL     1      43.295 -13.809   6.421  1.00  0.00     0.037 A 
HETATM   16  C   UNL     1      43.636 -15.102   6.825  1.00  0.00     0.066 A 
HETATM   17  C   UNL     1      43.581 -16.154   5.911  1.00  0.00     0.067 A 
HETATM   18  C   UNL     1      43.181 -15.945   4.595  1.00  0.00     0.036 A 
HETATM   19  C   UNL     1      42.836 -14.659   4.187  1.00  0.00     0.005 A 
HETATM   20  C   UNL     1      42.897 -13.596   5.094  1.00  0.00     0.029 A 
BRANCH  17  21
HETATM   21  O   UNL     1      43.937 -17.395   6.351  1.00  0.00    -0.361 OA
HETATM   22  H   UNL     1      43.918 -18.011   5.601  1.00  0.00     0.217 HD
ENDBRANCH  17  21
ENDBRANCH  12  15
ENDBRANCH   1  11
BRANCH   8  23
HETATM   23  C   UNL     1      42.753 -10.258  12.357  1.00  0.00     0.409 C 
HETATM   24  F   UNL     1      41.585 -10.408  11.707  1.00  0.00    -0.169 F 
HETATM   25  F   UNL     1      43.245 -11.497  12.598  1.00  0.00    -0.169 F 
HETATM   26  F   UNL     1      42.468  -9.724  13.574  1.00  0.00    -0.169 F 
ENDBRANCH   8  23
BRANCH   6  27
HETATM   27  C   UNL     1      41.097  -7.250  11.474  1.00  0.00    -0.035 A 
HETATM   28  C   UNL     1      40.006  -7.502  10.622  1.00  0.00     0.012 A 
HETATM   29  C   UNL     1      38.699  -7.521  11.114  1.00  0.00     0.043 A 
HETATM   30  C   UNL     1      38.470  -7.280  12.461  1.00  0.00     0.116 A 
HETATM   31  F   UNL     1      37.216  -7.290  12.931  1.00  0.00    -0.206 F 
HETATM   32  C   UNL     1      39.524  -7.023  13.326  1.00  0.00     0.043 A 
HETATM   33  C   UNL     1      40.832  -7.009  12.836  1.00  0.00     0.012 A 
ENDBRANCH   6  27
TORSDOF 5
ENDMDL
MODEL 9
REMARK VINA RESULT:      -8.1     15.991     19.431
REMARK  5 active torsions:
REMARK  status: ('A' for Active; 'I' for Inactive)
REMARK    1  A    between atoms: C_3  and  O_4 
REMARK    2  A    between atoms: C_6  and  N_7 
REMARK       I    between atoms: N_7  and  C_8 
REMARK    3  A    between atoms: C_8  and  C_9 
REMARK    4  A    between atoms: C_14  and  C_15 
REMARK    5  A    between atoms: C_23  and  C_24 
ROOT
HETATM    1  C   UNL     1      47.788 -28.940   1.221  1.00  0.00     0.148 A 
HETATM    2  N   UNL     1      46.536 -28.445   1.083  1.00  0.00    -0.165 NA
HETATM    3  N   UNL     1      46.332 -28.482  -0.248  1.00  0.00    -0.240 N 
HETATM    4  C   UNL     1      47.421 -28.886  -0.966  1.00  0.00     0.123 A 
HETATM    5  N   UNL     1      47.420 -28.909  -2.315  1.00  0.00    -0.366 N 
HETATM    6  C   UNL     1      46.228 -28.619  -3.103  1.00  0.00     0.118 C 
HETATM    7  C   UNL     1      45.263 -27.707  -2.323  1.00  0.00     0.066 C 
HETATM    8  C   UNL     1      45.070 -28.081  -0.841  1.00  0.00     0.221 C 
HETATM    9  C   UNL     1      48.377 -29.215  -0.043  1.00  0.00     0.089 A 
HETATM   10  H   UNL     1      48.198 -29.315  -2.832  1.00  0.00     0.161 HD
ENDROOT
BRANCH   1  11
HETATM   11  C   UNL     1      48.415 -29.144   2.541  1.00  0.00     0.276 C 
HETATM   12  N   UNL     1      48.761 -30.465   2.748  1.00  0.00    -0.322 N 
HETATM   13  H   UNL     1      48.501 -31.076   1.978  1.00  0.00     0.169 HD
HETATM   14  O   UNL     1      48.577 -28.211   3.318  1.00  0.00    -0.266 OA
BRANCH  12  15
HETATM   15  C   UNL     1      49.406 -31.034   3.859  1.00  0.00     0.037 A 
HETATM   16  C   UNL     1      50.708 -30.716   4.252  1.00  0.00     0.066 A 
HETATM   17  C   UNL     1      51.273 -31.343   5.362  1.00  0.00     0.067 A 
HETATM   18  C   UNL     1      50.559 -32.281   6.100  1.00  0.00     0.036 A 
HETATM   19  C   UNL     1      49.259 -32.600   5.716  1.00  0.00     0.005 A 
HETATM   20  C   UNL     1      48.687 -31.983   4.599  1.00  0.00     0.029 A 
BRANCH  17  21
HETATM   21  O   UNL     1      52.553 -31.008   5.697  1.00  0.00    -0.361 OA
HETATM   22  H   UNL     1      53.166 -31.564   5.189  1.00  0.00     0.217 HD
ENDBRANCH  17  21
ENDBRANCH  12  15
ENDBRANCH   1  11
BRANCH   8  23
HETATM   23  C   UNL     1      44.023 -29.147  -0.610  1.00  0.00     0.409 C 
HETATM   24  F   UNL     1      44.528 -30.379  -0.420  1.00  0.00    -0.169 F 
HETATM   25  F   UNL     1      43.242 -28.861   0.459  1.00  0.00    -0.169 F 
HETATM   26  F   UNL     1      43.186 -29.217  -1.678  1.00  0.00    -0.169 F 
ENDBRANCH   8  23
BRANCH   6  27
HETATM   27  C   UNL     1      45.602 -29.868  -3.701  1.00  0.00    -0.035 A 
HETATM   28  C   UNL     1      46.006 -31.169  -3.349  1.00  0.00     0.012 A 
HETATM   29  C   UNL     1      45.422 -32.289  -3.945  1.00  0.00     0.043 A 
HETATM   30  C   UNL     1      44.435 -32.118  -4.905  1.00  0.00     0.116 A 
HETATM   31  F   UNL     1      43.880 -33.191  -5.483  1.00  0.00    -0.206 F 
HETATM   32  C   UNL     1      44.019 -30.848  -5.279  1.00  0.00     0.043 A 
HETATM   33  C   UNL     1      44.599 -29.727  -4.679  1.00  0.00     0.012 A 
ENDBRANCH   6  27
TORSDOF 5
ENDMDL
MODEL 10
REMARK VINA RESULT:      -8.1      1.927      2.263
REMARK  5 active torsions:
REMARK  status: ('A' for Active; 'I' for Inactive)
REMARK    1  A    between atoms: C_3  and  O_4 
REMARK    2  A    between atoms: C_6  and  N_7 
REMARK       I    between atoms: N_7  and  C_8 
REMARK    3  A    between atoms: C_8  and  C_9 
REMARK    4  A    between atoms: C_14  and  C_15 
REMARK    5  A    between atoms: C_23  and  C_24 
ROOT
HETATM    1  C   UNL     1      40.397 -11.627   1.569  1.00  0.00     0.148 A 
HETATM    2  N   UNL     1      40.984 -11.514   2.784  1.00  0.00    -0.165 NA
HETATM    3  N   UNL     1      40.901 -12.762   3.286  1.00  0.00    -0.240 N 
HETATM    4  C   UNL     1      40.211 -13.635   2.494  1.00  0.00     0.123 A 
HETATM    5  N   UNL     1      39.965 -14.905   2.876  1.00  0.00    -0.366 N 
HETATM    6  C   UNL     1      40.512 -15.475   4.101  1.00  0.00     0.118 C 
HETATM    7  C   UNL     1      40.797 -14.375   5.140  1.00  0.00     0.066 C 
HETATM    8  C   UNL     1      41.467 -13.107   4.576  1.00  0.00     0.221 C 
HETATM    9  C   UNL     1      39.890 -12.939   1.360  1.00  0.00     0.089 A 
HETATM   10  H   UNL     1      39.547 -15.574   2.231  1.00  0.00     0.161 HD
ENDROOT
BRANCH   1  11
HETATM   11  C   UNL     1      40.317 -10.497   0.623  1.00  0.00     0.276 C 
HETATM   12  N   UNL     1      41.238 -10.617  -0.399  1.00  0.00    -0.322 N 
HETATM   13  H   UNL     1      41.831 -11.438  -0.314  1.00  0.00     0.169 HD
HETATM   14  O   UNL     1      39.511  -9.590   0.785  1.00  0.00    -0.266 OA
BRANCH  12  15
HETATM   15  C   UNL     1      41.436  -9.764  -1.498  1.00  0.00     0.037 A 
HETATM   16  C   UNL     1      42.270  -8.643  -1.475  1.00  0.00     0.066 A 
HETATM   17  C   UNL     1      42.395  -7.844  -2.610  1.00  0.00     0.067 A 
HETATM   18  C   UNL     1      41.707  -8.146  -3.782  1.00  0.00     0.036 A 
HETATM   19  C   UNL     1      40.877  -9.264  -3.814  1.00  0.00     0.005 A 
HETATM   20  C   UNL     1      40.739 -10.066  -2.676  1.00  0.00     0.029 A 
BRANCH  17  21
HETATM   21  O   UNL     1      43.210  -6.753  -2.532  1.00  0.00    -0.361 OA
HETATM   22  H   UNL     1      42.833  -6.125  -1.896  1.00  0.00     0.217 HD
ENDBRANCH  17  21
ENDBRANCH  12  15
ENDBRANCH   1  11
BRANCH   8  23
HETATM   23  C   UNL     1      42.973 -13.204   4.476  1.00  0.00     0.409 C 
HETATM   24  F   UNL     1      43.539 -13.954   5.439  1.00  0.00    -0.169 F 
HETATM   25  F   UNL     1      43.367 -13.711   3.284  1.00  0.00    -0.169 F 
HETATM   26  F   UNL     1      43.525 -11.965   4.558  1.00  0.00    -0.169 F 
ENDBRANCH   8  23
BRANCH   6  27
HETATM   27  C   UNL     1      41.661 -16.435   3.838  1.00  0.00    -0.035 A 
HETATM   28  C   UNL     1      41.955 -16.945   2.560  1.00  0.00     0.012 A 
HETATM   29  C   UNL     1      43.005 -17.847   2.370  1.00  0.00     0.043 A 
HETATM   30  C   UNL     1      43.763 -18.255   3.458  1.00  0.00     0.116 A 
HETATM   31  F   UNL     1      44.765 -19.126   3.277  1.00  0.00    -0.206 F 
HETATM   32  C   UNL     1      43.495 -17.775   4.732  1.00  0.00     0.043 A 
HETATM   33  C   UNL     1      42.450 -16.869   4.922  1.00  0.00     0.012 A 
ENDBRANCH   6  27
TORSDOF 5
ENDMDL
