MODEL 1
REMARK VINA RESULT:      -8.1      0.000      0.000
REMARK  6 active torsions:
REMARK  status: ('A' for Active; 'I' for Inactive)
REMARK    1  A    between atoms: C_3  and  C_4 
REMARK    2  A    between atoms: C_9  and  C_10 
REMARK    3  A    between atoms: C_10  and  N_11 
REMARK    4  A    between atoms: C_13  and  C_14 
REMARK    5  A    between atoms: C_15  and  O_16 
REMARK    6  A    between atoms: C_20  and  C_21 
ROOT
HETATM    1  N   UNL     1      42.303 -14.770   3.805  1.00  0.00    -0.394 N 
HETATM    2  H   UNL     1      42.778 -14.299   3.025  1.00  0.00     0.159 HD
HETATM    3  C   UNL     1      41.027 -14.657   3.908  1.00  0.00     0.101 C 
ENDROOT
BRANCH   1   4
HETATM    4  C   UNL     1      43.194 -15.574   4.668  1.00  0.00     0.157 C 
BRANCH   4   5
HETATM    5  C   UNL     1      43.393 -16.940   4.073  1.00  0.00    -0.040 A 
HETATM    6  C   UNL     1      43.629 -18.052   4.898  1.00  0.00     0.025 A 
HETATM    7  C   UNL     1      43.780 -19.341   4.356  1.00  0.00     0.048 A 
HETATM    8  C   UNL     1      43.693 -19.506   2.968  1.00  0.00     0.016 A 
HETATM    9  C   UNL     1      43.460 -18.409   2.140  1.00  0.00     0.001 A 
HETATM   10  C   UNL     1      43.310 -17.134   2.685  1.00  0.00     0.009 A 
BRANCH   7  11
HETATM   11  C   UNL     1      44.045 -20.517   5.271  1.00  0.00     0.417 C 
HETATM   12  F   UNL     1      45.331 -20.952   5.253  1.00  0.00    -0.166 F 
HETATM   13  F   UNL     1      43.749 -20.231   6.566  1.00  0.00    -0.166 F 
HETATM   14  F   UNL     1      43.273 -21.589   4.939  1.00  0.00    -0.166 F 
ENDBRANCH   7  11
ENDBRANCH   4   5
ENDBRANCH   1   4
BRANCH   3  15
HETATM   15  C   UNL     1      40.129 -13.892   3.070  1.00  0.00     0.066 A 
HETATM   16  C   UNL     1      39.442 -12.705   3.411  1.00  0.00     0.195 A 
HETATM   17  N   UNL     1      38.713 -12.214   2.426  1.00  0.00    -0.148 NA
HETATM   18  N   UNL     1      38.899 -13.071   1.421  1.00  0.00    -0.270 N 
HETATM   19  H   UNL     1      38.419 -12.888   0.541  1.00  0.00     0.189 HD
HETATM   20  C   UNL     1      39.744 -14.100   1.747  1.00  0.00     0.150 A 
BRANCH  16  21
HETATM   21  O   UNL     1      39.404 -12.003   4.544  1.00  0.00    -0.343 OA
HETATM   22  H   UNL     1      39.106 -11.091   4.432  1.00  0.00     0.219 HD
ENDBRANCH  16  21
BRANCH  20  23
HETATM   23  C   UNL     1      40.058 -15.097   0.712  1.00  0.00     0.435 C 
HETATM   24  F   UNL     1      41.407 -15.154   0.528  1.00  0.00    -0.165 F 
HETATM   25  F   UNL     1      39.641 -16.335   1.041  1.00  0.00    -0.165 F 
HETATM   26  F   UNL     1      39.518 -14.766  -0.478  1.00  0.00    -0.165 F 
ENDBRANCH  20  23
ENDBRANCH   3  15
TORSDOF 6
ENDMDL
MODEL 2
REMARK VINA RESULT:      -8.0      1.822      2.781
REMARK  6 active torsions:
REMARK  status: ('A' for Active; 'I' for Inactive)
REMARK    1  A    between atoms: C_3  and  C_4 
REMARK    2  A    between atoms: C_9  and  C_10 
REMARK    3  A    between atoms: C_10  and  N_11 
REMARK    4  A    between atoms: C_13  and  C_14 
REMARK    5  A    between atoms: C_15  and  O_16 
REMARK    6  A    between atoms: C_20  and  C_21 
ROOT
HETATM    1  N   UNL     1      40.196 -14.659   4.600  1.00  0.00    -0.394 N 
HETATM    2  H   UNL     1      39.546 -15.361   4.226  1.00  0.00     0.159 HD
HETATM    3  C   UNL     1      40.338 -13.551   3.963  1.00  0.00     0.101 C 
ENDROOT
BRANCH   1   4
HETATM    4  C   UNL     1      40.829 -15.032   5.882  1.00  0.00     0.157 C 
BRANCH   4   5
HETATM    5  C   UNL     1      41.850 -16.112   5.658  1.00  0.00    -0.040 A 
HETATM    6  C   UNL     1      42.176 -16.528   4.356  1.00  0.00     0.025 A 
HETATM    7  C   UNL     1      43.156 -17.511   4.131  1.00  0.00     0.048 A 
HETATM    8  C   UNL     1      43.811 -18.079   5.231  1.00  0.00     0.016 A 
HETATM    9  C   UNL     1      43.495 -17.673   6.527  1.00  0.00     0.001 A 
HETATM   10  C   UNL     1      42.522 -16.696   6.742  1.00  0.00     0.009 A 
BRANCH   7  11
HETATM   11  C   UNL     1      43.477 -17.947   2.717  1.00  0.00     0.417 C 
HETATM   12  F   UNL     1      44.583 -18.728   2.618  1.00  0.00    -0.166 F 
HETATM   13  F   UNL     1      42.455 -18.647   2.157  1.00  0.00    -0.166 F 
HETATM   14  F   UNL     1      43.688 -16.876   1.902  1.00  0.00    -0.166 F 
ENDBRANCH   7  11
ENDBRANCH   4   5
ENDBRANCH   1   4
BRANCH   3  15
HETATM   15  C   UNL     1      39.720 -13.154   2.716  1.00  0.00     0.066 A 
HETATM   16  C   UNL     1      39.015 -11.959   2.453  1.00  0.00     0.195 A 
HETATM   17  N   UNL     1      38.587 -11.860   1.207  1.00  0.00    -0.148 NA
HETATM   18  N   UNL     1      38.995 -12.991   0.630  1.00  0.00    -0.270 N 
HETATM   19  H   UNL     1      38.767 -13.136  -0.353  1.00  0.00     0.189 HD
HETATM   20  C   UNL     1      39.685 -13.809   1.487  1.00  0.00     0.150 A 
BRANCH  16  21
HETATM   21  O   UNL     1      38.711 -10.923   3.235  1.00  0.00    -0.343 OA
HETATM   22  H   UNL     1      37.808 -10.599   3.126  1.00  0.00     0.219 HD
ENDBRANCH  16  21
BRANCH  20  23
HETATM   23  C   UNL     1      40.218 -15.076   0.961  1.00  0.00     0.435 C 
HETATM   24  F   UNL     1      39.686 -15.319  -0.270  1.00  0.00    -0.165 F 
HETATM   25  F   UNL     1      41.558 -15.059   0.827  1.00  0.00    -0.165 F 
HETATM   26  F   UNL     1      39.879 -16.121   1.743  1.00  0.00    -0.165 F 
ENDBRANCH  20  23
ENDBRANCH   3  15
TORSDOF 6
ENDMDL
MODEL 3
REMARK VINA RESULT:      -7.9      3.780      4.748
REMARK  6 active torsions:
REMARK  status: ('A' for Active; 'I' for Inactive)
REMARK    1  A    between atoms: C_3  and  C_4 
REMARK    2  A    between atoms: C_9  and  C_10 
REMARK    3  A    between atoms: C_10  and  N_11 
REMARK    4  A    between atoms: C_13  and  C_14 
REMARK    5  A    between atoms: C_15  and  O_16 
REMARK    6  A    between atoms: C_20  and  C_21 
ROOT
HETATM    1  N   UNL     1      42.373 -14.378   3.975  1.00  0.00    -0.394 N 
HETATM    2  H   UNL     1      41.842 -14.798   4.747  1.00  0.00     0.159 HD
HETATM    3  C   UNL     1      42.712 -13.141   4.062  1.00  0.00     0.101 C 
ENDROOT
BRANCH   1   4
HETATM    4  C   UNL     1      42.720 -15.317   2.888  1.00  0.00     0.157 C 
BRANCH   4   5
HETATM    5  C   UNL     1      43.221 -16.611   3.465  1.00  0.00    -0.040 A 
HETATM    6  C   UNL     1      43.154 -17.800   2.720  1.00  0.00     0.025 A 
HETATM    7  C   UNL     1      43.653 -19.010   3.234  1.00  0.00     0.048 A 
HETATM    8  C   UNL     1      44.223 -19.019   4.513  1.00  0.00     0.016 A 
HETATM    9  C   UNL     1      44.295 -17.844   5.262  1.00  0.00     0.001 A 
HETATM   10  C   UNL     1      43.799 -16.647   4.744  1.00  0.00     0.009 A 
BRANCH   7  11
HETATM   11  C   UNL     1      43.555 -20.277   2.411  1.00  0.00     0.417 C 
HETATM   12  F   UNL     1      44.441 -20.338   1.384  1.00  0.00    -0.166 F 
HETATM   13  F   UNL     1      43.756 -21.390   3.165  1.00  0.00    -0.166 F 
HETATM   14  F   UNL     1      42.317 -20.417   1.859  1.00  0.00    -0.166 F 
ENDBRANCH   7  11
ENDBRANCH   4   5
ENDBRANCH   1   4
BRANCH   3  15
HETATM   15  C   UNL     1      42.400 -12.204   5.120  1.00  0.00     0.066 A 
HETATM   16  C   UNL     1      41.182 -11.518   5.325  1.00  0.00     0.195 A 
HETATM   17  N   UNL     1      41.183 -10.746   6.397  1.00  0.00    -0.148 NA
HETATM   18  N   UNL     1      42.403 -10.903   6.913  1.00  0.00    -0.270 N 
HETATM   19  H   UNL     1      42.634 -10.387   7.761  1.00  0.00     0.189 HD
HETATM   20  C   UNL     1      43.180 -11.771   6.190  1.00  0.00     0.150 A 
BRANCH  16  21
HETATM   21  O   UNL     1      40.044 -11.515   4.631  1.00  0.00    -0.343 OA
HETATM   22  H   UNL     1      39.249 -11.522   5.179  1.00  0.00     0.219 HD
ENDBRANCH  16  21
BRANCH  20  23
HETATM   23  C   UNL     1      44.540 -12.055   6.675  1.00  0.00     0.435 C 
HETATM   24  F   UNL     1      44.736 -13.403   6.717  1.00  0.00    -0.165 F 
HETATM   25  F   UNL     1      45.494 -11.532   5.881  1.00  0.00    -0.165 F 
HETATM   26  F   UNL     1      44.728 -11.597   7.929  1.00  0.00    -0.165 F 
ENDBRANCH  20  23
ENDBRANCH   3  15
TORSDOF 6
ENDMDL
MODEL 4
REMARK VINA RESULT:      -7.8      5.908      7.399
REMARK  6 active torsions:
REMARK  status: ('A' for Active; 'I' for Inactive)
REMARK    1  A    between atoms: C_3  and  C_4 
REMARK    2  A    between atoms: C_9  and  C_10 
REMARK    3  A    between atoms: C_10  and  N_11 
REMARK    4  A    between atoms: C_13  and  C_14 
REMARK    5  A    between atoms: C_15  and  O_16 
REMARK    6  A    between atoms: C_20  and  C_21 
ROOT
HETATM    1  N   UNL     1      43.591 -12.602   6.296  1.00  0.00    -0.394 N 
HETATM    2  H   UNL     1      44.356 -12.479   5.622  1.00  0.00     0.159 HD
HETATM    3  C   UNL     1      43.622 -11.930   7.392  1.00  0.00     0.101 C 
ENDROOT
BRANCH   1   4
HETATM    4  C   UNL     1      42.520 -13.515   5.847  1.00  0.00     0.157 C 
BRANCH   4   5
HETATM    5  C   UNL     1      43.095 -14.866   5.525  1.00  0.00    -0.040 A 
HETATM    6  C   UNL     1      42.880 -15.454   4.267  1.00  0.00     0.025 A 
HETATM    7  C   UNL     1      43.443 -16.700   3.941  1.00  0.00     0.048 A 
HETATM    8  C   UNL     1      44.230 -17.358   4.894  1.00  0.00     0.016 A 
HETATM    9  C   UNL     1      44.450 -16.784   6.146  1.00  0.00     0.001 A 
HETATM   10  C   UNL     1      43.888 -15.546   6.462  1.00  0.00     0.009 A 
BRANCH   7  11
HETATM   11  C   UNL     1      43.183 -17.313   2.581  1.00  0.00     0.417 C 
HETATM   12  F   UNL     1      41.875 -17.583   2.339  1.00  0.00    -0.166 F 
HETATM   13  F   UNL     1      43.608 -16.508   1.571  1.00  0.00    -0.166 F 
HETATM   14  F   UNL     1      43.852 -18.489   2.430  1.00  0.00    -0.166 F 
ENDBRANCH   7  11
ENDBRANCH   4   5
ENDBRANCH   1   4
BRANCH   3  15
HETATM   15  C   UNL     1      44.648 -11.019   7.850  1.00  0.00     0.066 A 
HETATM   16  C   UNL     1      45.849 -10.678   7.188  1.00  0.00     0.195 A 
HETATM   17  N   UNL     1      46.580  -9.792   7.840  1.00  0.00    -0.148 NA
HETATM   18  N   UNL     1      45.880  -9.539   8.946  1.00  0.00    -0.270 N 
HETATM   19  H   UNL     1      46.264  -8.870   9.613  1.00  0.00     0.189 HD
HETATM   20  C   UNL     1      44.706 -10.244   9.007  1.00  0.00     0.150 A 
BRANCH  16  21
HETATM   21  O   UNL     1      46.366 -11.092   6.031  1.00  0.00    -0.343 OA
HETATM   22  H   UNL     1      45.725 -11.504   5.438  1.00  0.00     0.219 HD
ENDBRANCH  16  21
BRANCH  20  23
HETATM   23  C   UNL     1      43.824 -10.028  10.165  1.00  0.00     0.435 C 
HETATM   24  F   UNL     1      42.614  -9.571   9.737  1.00  0.00    -0.165 F 
HETATM   25  F   UNL     1      43.606 -11.156  10.869  1.00  0.00    -0.165 F 
HETATM   26  F   UNL     1      44.319  -9.092  11.000  1.00  0.00    -0.165 F 
ENDBRANCH  20  23
ENDBRANCH   3  15
TORSDOF 6
ENDMDL
MODEL 5
REMARK VINA RESULT:      -7.7      2.767      7.627
REMARK  6 active torsions:
REMARK  status: ('A' for Active; 'I' for Inactive)
REMARK    1  A    between atoms: C_3  and  C_4 
REMARK    2  A    between atoms: C_9  and  C_10 
REMARK    3  A    between atoms: C_10  and  N_11 
REMARK    4  A    between atoms: C_13  and  C_14 
REMARK    5  A    between atoms: C_15  and  O_16 
REMARK    6  A    between atoms: C_20  and  C_21 
ROOT
HETATM    1  N   UNL     1      41.067 -16.138   2.737  1.00  0.00    -0.394 N 
HETATM    2  H   UNL     1      41.271 -15.548   3.553  1.00  0.00     0.159 HD
HETATM    3  C   UNL     1      41.800 -17.172   2.526  1.00  0.00     0.101 C 
ENDROOT
BRANCH   1   4
HETATM    4  C   UNL     1      39.887 -15.713   1.956  1.00  0.00     0.157 C 
BRANCH   4   5
HETATM    5  C   UNL     1      40.248 -14.559   1.063  1.00  0.00    -0.040 A 
HETATM    6  C   UNL     1      40.048 -14.639  -0.326  1.00  0.00     0.025 A 
HETATM    7  C   UNL     1      40.347 -13.553  -1.167  1.00  0.00     0.048 A 
HETATM    8  C   UNL     1      40.853 -12.377  -0.601  1.00  0.00     0.016 A 
HETATM    9  C   UNL     1      41.056 -12.287   0.775  1.00  0.00     0.001 A 
HETATM   10  C   UNL     1      40.756 -13.368   1.604  1.00  0.00     0.009 A 
BRANCH   7  11
HETATM   11  C   UNL     1      40.131 -13.675  -2.661  1.00  0.00     0.417 C 
HETATM   12  F   UNL     1      41.276 -13.633  -3.389  1.00  0.00    -0.166 F 
HETATM   13  F   UNL     1      39.502 -14.834  -2.991  1.00  0.00    -0.166 F 
HETATM   14  F   UNL     1      39.340 -12.671  -3.132  1.00  0.00    -0.166 F 
ENDBRANCH   7  11
ENDBRANCH   4   5
ENDBRANCH   1   4
BRANCH   3  15
HETATM   15  C   UNL     1      42.949 -17.620   3.282  1.00  0.00     0.066 A 
HETATM   16  C   UNL     1      43.647 -16.908   4.283  1.00  0.00     0.195 A 
HETATM   17  N   UNL     1      44.643 -17.588   4.820  1.00  0.00    -0.148 NA
HETATM   18  N   UNL     1      44.626 -18.757   4.178  1.00  0.00    -0.270 N 
HETATM   19  H   UNL     1      45.325 -19.453   4.433  1.00  0.00     0.189 HD
HETATM   20  C   UNL     1      43.627 -18.837   3.243  1.00  0.00     0.150 A 
BRANCH  16  21
HETATM   21  O   UNL     1      43.474 -15.680   4.774  1.00  0.00    -0.343 OA
HETATM   22  H   UNL     1      42.970 -15.093   4.198  1.00  0.00     0.219 HD
ENDBRANCH  16  21
BRANCH  20  23
HETATM   23  C   UNL     1      43.481 -20.091   2.487  1.00  0.00     0.435 C 
HETATM   24  F   UNL     1      42.246 -20.135   1.912  1.00  0.00    -0.165 F 
HETATM   25  F   UNL     1      44.391 -20.213   1.502  1.00  0.00    -0.165 F 
HETATM   26  F   UNL     1      43.572 -21.170   3.291  1.00  0.00    -0.165 F 
ENDBRANCH  20  23
ENDBRANCH   3  15
TORSDOF 6
ENDMDL
MODEL 6
REMARK VINA RESULT:      -7.7      1.434      2.080
REMARK  6 active torsions:
REMARK  status: ('A' for Active; 'I' for Inactive)
REMARK    1  A    between atoms: C_3  and  C_4 
REMARK    2  A    between atoms: C_9  and  C_10 
REMARK    3  A    between atoms: C_10  and  N_11 
REMARK    4  A    between atoms: C_13  and  C_14 
REMARK    5  A    between atoms: C_15  and  O_16 
REMARK    6  A    between atoms: C_20  and  C_21 
ROOT
HETATM    1  N   UNL     1      42.488 -15.426   1.676  1.00  0.00    -0.394 N 
HETATM    2  H   UNL     1      42.852 -14.567   2.107  1.00  0.00     0.159 HD
HETATM    3  C   UNL     1      41.317 -15.400   1.145  1.00  0.00     0.101 C 
ENDROOT
BRANCH   1   4
HETATM    4  C   UNL     1      43.430 -16.564   1.689  1.00  0.00     0.157 C 
BRANCH   4   5
HETATM    5  C   UNL     1      43.493 -17.166   3.065  1.00  0.00    -0.040 A 
HETATM    6  C   UNL     1      43.732 -18.540   3.234  1.00  0.00     0.025 A 
HETATM    7  C   UNL     1      43.831 -19.108   4.517  1.00  0.00     0.048 A 
HETATM    8  C   UNL     1      43.686 -18.281   5.637  1.00  0.00     0.016 A 
HETATM    9  C   UNL     1      43.448 -16.916   5.480  1.00  0.00     0.001 A 
HETATM   10  C   UNL     1      43.353 -16.359   4.204  1.00  0.00     0.009 A 
BRANCH   7  11
HETATM   11  C   UNL     1      44.076 -20.594   4.666  1.00  0.00     0.417 C 
HETATM   12  F   UNL     1      45.296 -20.904   5.177  1.00  0.00    -0.166 F 
HETATM   13  F   UNL     1      43.155 -21.184   5.473  1.00  0.00    -0.166 F 
HETATM   14  F   UNL     1      43.989 -21.236   3.467  1.00  0.00    -0.166 F 
ENDBRANCH   7  11
ENDBRANCH   4   5
ENDBRANCH   1   4
BRANCH   3  15
HETATM   15  C   UNL     1      40.381 -14.297   1.104  1.00  0.00     0.066 A 
HETATM   16  C   UNL     1      40.115 -13.361   2.128  1.00  0.00     0.195 A 
HETATM   17  N   UNL     1      39.226 -12.444   1.790  1.00  0.00    -0.148 NA
HETATM   18  N   UNL     1      38.885 -12.764   0.540  1.00  0.00    -0.270 N 
HETATM   19  H   UNL     1      38.194 -12.181   0.069  1.00  0.00     0.189 HD
HETATM   20  C   UNL     1      39.549 -13.868   0.072  1.00  0.00     0.150 A 
BRANCH  16  21
HETATM   21  O   UNL     1      40.601 -13.244   3.364  1.00  0.00    -0.343 OA
HETATM   22  H   UNL     1      40.338 -13.957   3.960  1.00  0.00     0.219 HD
ENDBRANCH  16  21
BRANCH  20  23
HETATM   23  C   UNL     1      39.285 -14.304  -1.309  1.00  0.00     0.435 C 
HETATM   24  F   UNL     1      40.371 -14.033  -2.088  1.00  0.00    -0.165 F 
HETATM   25  F   UNL     1      39.043 -15.626  -1.398  1.00  0.00    -0.165 F 
HETATM   26  F   UNL     1      38.244 -13.640  -1.850  1.00  0.00    -0.165 F 
ENDBRANCH  20  23
ENDBRANCH   3  15
TORSDOF 6
ENDMDL
MODEL 7
REMARK VINA RESULT:      -7.5      2.341      3.163
REMARK  6 active torsions:
REMARK  status: ('A' for Active; 'I' for Inactive)
REMARK    1  A    between atoms: C_3  and  C_4 
REMARK    2  A    between atoms: C_9  and  C_10 
REMARK    3  A    between atoms: C_10  and  N_11 
REMARK    4  A    between atoms: C_13  and  C_14 
REMARK    5  A    between atoms: C_15  and  O_16 
REMARK    6  A    between atoms: C_20  and  C_21 
ROOT
HETATM    1  N   UNL     1      41.792 -13.274   3.820  1.00  0.00    -0.394 N 
HETATM    2  H   UNL     1      40.839 -13.654   3.786  1.00  0.00     0.159 HD
HETATM    3  C   UNL     1      42.212 -12.575   2.826  1.00  0.00     0.101 C 
ENDROOT
BRANCH   1   4
HETATM    4  C   UNL     1      42.519 -13.554   5.076  1.00  0.00     0.157 C 
BRANCH   4   5
HETATM    5  C   UNL     1      43.073 -14.951   5.050  1.00  0.00    -0.040 A 
HETATM    6  C   UNL     1      42.974 -15.738   3.890  1.00  0.00     0.025 A 
HETATM    7  C   UNL     1      43.521 -17.033   3.841  1.00  0.00     0.048 A 
HETATM    8  C   UNL     1      44.173 -17.537   4.974  1.00  0.00     0.016 A 
HETATM    9  C   UNL     1      44.276 -16.764   6.130  1.00  0.00     0.001 A 
HETATM   10  C   UNL     1      43.732 -15.480   6.170  1.00  0.00     0.009 A 
BRANCH   7  11
HETATM   11  C   UNL     1      43.388 -17.861   2.580  1.00  0.00     0.417 C 
HETATM   12  F   UNL     1      42.152 -18.392   2.397  1.00  0.00    -0.166 F 
HETATM   13  F   UNL     1      43.670 -17.137   1.464  1.00  0.00    -0.166 F 
HETATM   14  F   UNL     1      44.260 -18.907   2.578  1.00  0.00    -0.166 F 
ENDBRANCH   7  11
ENDBRANCH   4   5
ENDBRANCH   1   4
BRANCH   3  15
HETATM   15  C   UNL     1      41.518 -12.272   1.593  1.00  0.00     0.066 A 
HETATM   16  C   UNL     1      41.479 -11.034   0.913  1.00  0.00     0.195 A 
HETATM   17  N   UNL     1      40.784 -11.068  -0.209  1.00  0.00    -0.148 NA
HETATM   18  N   UNL     1      40.345 -12.325  -0.286  1.00  0.00    -0.270 N 
HETATM   19  H   UNL     1      39.771 -12.584  -1.088  1.00  0.00     0.189 HD
HETATM   20  C   UNL     1      40.756 -13.099   0.769  1.00  0.00     0.150 A 
BRANCH  16  21
HETATM   21  O   UNL     1      42.019  -9.851   1.205  1.00  0.00    -0.343 OA
HETATM   22  H   UNL     1      42.407  -9.802   2.088  1.00  0.00     0.219 HD
ENDBRANCH  16  21
BRANCH  20  23
HETATM   23  C   UNL     1      40.365 -14.517   0.785  1.00  0.00     0.435 C 
HETATM   24  F   UNL     1      41.482 -15.298   0.810  1.00  0.00    -0.165 F 
HETATM   25  F   UNL     1      39.622 -14.838   1.862  1.00  0.00    -0.165 F 
HETATM   26  F   UNL     1      39.679 -14.857  -0.325  1.00  0.00    -0.165 F 
ENDBRANCH  20  23
ENDBRANCH   3  15
TORSDOF 6
ENDMDL
MODEL 8
REMARK VINA RESULT:      -7.5      5.993      7.990
REMARK  6 active torsions:
REMARK  status: ('A' for Active; 'I' for Inactive)
REMARK    1  A    between atoms: C_3  and  C_4 
REMARK    2  A    between atoms: C_9  and  C_10 
REMARK    3  A    between atoms: C_10  and  N_11 
REMARK    4  A    between atoms: C_13  and  C_14 
REMARK    5  A    between atoms: C_15  and  O_16 
REMARK    6  A    between atoms: C_20  and  C_21 
ROOT
HETATM    1  N   UNL     1      42.770 -13.779   6.599  1.00  0.00    -0.394 N 
HETATM    2  H   UNL     1      42.466 -14.127   7.516  1.00  0.00     0.159 HD
HETATM    3  C   UNL     1      43.163 -14.629   5.717  1.00  0.00     0.101 C 
ENDROOT
BRANCH   1   4
HETATM    4  C   UNL     1      42.642 -12.318   6.425  1.00  0.00     0.157 C 
BRANCH   4   5
HETATM    5  C   UNL     1      43.861 -11.625   6.967  1.00  0.00    -0.040 A 
HETATM    6  C   UNL     1      43.836 -11.025   8.238  1.00  0.00     0.025 A 
HETATM    7  C   UNL     1      44.981 -10.406   8.772  1.00  0.00     0.048 A 
HETATM    8  C   UNL     1      46.159 -10.393   8.015  1.00  0.00     0.016 A 
HETATM    9  C   UNL     1      46.194 -10.985   6.753  1.00  0.00     0.001 A 
HETATM   10  C   UNL     1      45.055 -11.598   6.231  1.00  0.00     0.009 A 
BRANCH   7  11
HETATM   11  C   UNL     1      44.919  -9.758  10.138  1.00  0.00     0.417 C 
HETATM   12  F   UNL     1      46.122  -9.330  10.601  1.00  0.00    -0.166 F 
HETATM   13  F   UNL     1      44.092  -8.680  10.153  1.00  0.00    -0.166 F 
HETATM   14  F   UNL     1      44.431 -10.618  11.075  1.00  0.00    -0.166 F 
ENDBRANCH   7  11
ENDBRANCH   4   5
ENDBRANCH   1   4
BRANCH   3  15
HETATM   15  C   UNL     1      43.284 -16.064   5.854  1.00  0.00     0.066 A 
HETATM   16  C   UNL     1      43.363 -16.807   7.053  1.00  0.00     0.195 A 
HETATM   17  N   UNL     1      43.438 -18.112   6.864  1.00  0.00    -0.148 NA
HETATM   18  N   UNL     1      43.418 -18.252   5.538  1.00  0.00    -0.270 N 
HETATM   19  H   UNL     1      43.470 -19.196   5.156  1.00  0.00     0.189 HD
HETATM   20  C   UNL     1      43.323 -17.056   4.876  1.00  0.00     0.150 A 
BRANCH  16  21
HETATM   21  O   UNL     1      43.374 -16.422   8.330  1.00  0.00    -0.343 OA
HETATM   22  H   UNL     1      44.224 -16.545   8.771  1.00  0.00     0.219 HD
ENDBRANCH  16  21
BRANCH  20  23
HETATM   23  C   UNL     1      43.258 -17.078   3.406  1.00  0.00     0.435 C 
HETATM   24  F   UNL     1      41.969 -17.276   3.010  1.00  0.00    -0.165 F 
HETATM   25  F   UNL     1      43.679 -15.925   2.851  1.00  0.00    -0.165 F 
HETATM   26  F   UNL     1      43.982 -18.091   2.891  1.00  0.00    -0.165 F 
ENDBRANCH  20  23
ENDBRANCH   3  15
TORSDOF 6
ENDMDL
MODEL 9
REMARK VINA RESULT:      -7.4      2.933      6.638
REMARK  6 active torsions:
REMARK  status: ('A' for Active; 'I' for Inactive)
REMARK    1  A    between atoms: C_3  and  C_4 
REMARK    2  A    between atoms: C_9  and  C_10 
REMARK    3  A    between atoms: C_10  and  N_11 
REMARK    4  A    between atoms: C_13  and  C_14 
REMARK    5  A    between atoms: C_15  and  O_16 
REMARK    6  A    between atoms: C_20  and  C_21 
ROOT
HETATM    1  N   UNL     1      41.129 -15.452   5.284  1.00  0.00    -0.394 N 
HETATM    2  H   UNL     1      40.437 -16.184   5.082  1.00  0.00     0.159 HD
HETATM    3  C   UNL     1      42.373 -15.775   5.325  1.00  0.00     0.101 C 
ENDROOT
BRANCH   1   4
HETATM    4  C   UNL     1      40.560 -14.097   5.438  1.00  0.00     0.157 C 
BRANCH   4   5
HETATM    5  C   UNL     1      40.133 -13.562   4.100  1.00  0.00    -0.040 A 
HETATM    6  C   UNL     1      40.270 -14.345   2.941  1.00  0.00     0.025 A 
HETATM    7  C   UNL     1      39.841 -13.870   1.688  1.00  0.00     0.048 A 
HETATM    8  C   UNL     1      39.269 -12.594   1.607  1.00  0.00     0.016 A 
HETATM    9  C   UNL     1      39.130 -11.809   2.751  1.00  0.00     0.001 A 
HETATM   10  C   UNL     1      39.557 -12.288   3.990  1.00  0.00     0.009 A 
BRANCH   7  11
HETATM   11  C   UNL     1      40.012 -14.732   0.456  1.00  0.00     0.417 C 
HETATM   12  F   UNL     1      39.506 -15.986   0.584  1.00  0.00    -0.166 F 
HETATM   13  F   UNL     1      39.418 -14.183  -0.636  1.00  0.00    -0.166 F 
HETATM   14  F   UNL     1      41.327 -14.880   0.132  1.00  0.00    -0.166 F 
ENDBRANCH   7  11
ENDBRANCH   4   5
ENDBRANCH   1   4
BRANCH   3  15
HETATM   15  C   UNL     1      42.958 -17.088   5.163  1.00  0.00     0.066 A 
HETATM   16  C   UNL     1      43.404 -17.960   6.182  1.00  0.00     0.195 A 
HETATM   17  N   UNL     1      43.868 -19.110   5.730  1.00  0.00    -0.148 NA
HETATM   18  N   UNL     1      43.744 -19.016   4.405  1.00  0.00    -0.270 N 
HETATM   19  H   UNL     1      44.051 -19.806   3.838  1.00  0.00     0.189 HD
HETATM   20  C   UNL     1      43.200 -17.823   4.004  1.00  0.00     0.150 A 
BRANCH  16  21
HETATM   21  O   UNL     1      43.436 -17.822   7.508  1.00  0.00    -0.343 OA
HETATM   22  H   UNL     1      43.388 -16.907   7.810  1.00  0.00     0.219 HD
ENDBRANCH  16  21
BRANCH  20  23
HETATM   23  C   UNL     1      42.980 -17.608   2.565  1.00  0.00     0.435 C 
HETATM   24  F   UNL     1      43.281 -18.749   1.882  1.00  0.00    -0.165 F 
HETATM   25  F   UNL     1      41.704 -17.289   2.277  1.00  0.00    -0.165 F 
HETATM   26  F   UNL     1      43.784 -16.642   2.078  1.00  0.00    -0.165 F 
ENDBRANCH  20  23
ENDBRANCH   3  15
TORSDOF 6
ENDMDL
MODEL 10
REMARK VINA RESULT:      -7.3      2.764      3.814
REMARK  6 active torsions:
REMARK  status: ('A' for Active; 'I' for Inactive)
REMARK    1  A    between atoms: C_3  and  C_4 
REMARK    2  A    between atoms: C_9  and  C_10 
REMARK    3  A    between atoms: C_10  and  N_11 
REMARK    4  A    between atoms: C_13  and  C_14 
REMARK    5  A    between atoms: C_15  and  O_16 
REMARK    6  A    between atoms: C_20  and  C_21 
ROOT
HETATM    1  N   UNL     1      39.905 -14.732   6.001  1.00  0.00    -0.394 N 
HETATM    2  H   UNL     1      39.196 -14.998   5.307  1.00  0.00     0.159 HD
HETATM    3  C   UNL     1      40.145 -13.483   6.189  1.00  0.00     0.101 C 
ENDROOT
BRANCH   1   4
HETATM    4  C   UNL     1      40.503 -15.869   6.732  1.00  0.00     0.157 C 
BRANCH   4   5
HETATM    5  C   UNL     1      41.673 -16.417   5.964  1.00  0.00    -0.040 A 
HETATM    6  C   UNL     1      41.642 -16.478   4.560  1.00  0.00     0.025 A 
HETATM    7  C   UNL     1      42.744 -16.955   3.829  1.00  0.00     0.048 A 
HETATM    8  C   UNL     1      43.887 -17.374   4.521  1.00  0.00     0.016 A 
HETATM    9  C   UNL     1      43.928 -17.318   5.914  1.00  0.00     0.001 A 
HETATM   10  C   UNL     1      42.831 -16.842   6.633  1.00  0.00     0.009 A 
BRANCH   7  11
HETATM   11  C   UNL     1      42.676 -17.019   2.318  1.00  0.00     0.417 C 
HETATM   12  F   UNL     1      43.546 -16.188   1.689  1.00  0.00    -0.166 F 
HETATM   13  F   UNL     1      42.927 -18.271   1.851  1.00  0.00    -0.166 F 
HETATM   14  F   UNL     1      41.434 -16.691   1.862  1.00  0.00    -0.166 F 
ENDBRANCH   7  11
ENDBRANCH   4   5
ENDBRANCH   1   4
BRANCH   3  15
HETATM   15  C   UNL     1      39.564 -12.351   5.500  1.00  0.00     0.066 A 
HETATM   16  C   UNL     1      38.907 -11.241   6.078  1.00  0.00     0.195 A 
HETATM   17  N   UNL     1      38.505 -10.345   5.195  1.00  0.00    -0.148 NA
HETATM   18  N   UNL     1      38.883 -10.850   4.020  1.00  0.00    -0.270 N 
HETATM   19  H   UNL     1      38.669 -10.316   3.179  1.00  0.00     0.189 HD
HETATM   20  C   UNL     1      39.528 -12.054   4.139  1.00  0.00     0.150 A 
BRANCH  16  21
HETATM   21  O   UNL     1      38.626 -10.946   7.347  1.00  0.00    -0.343 OA
HETATM   22  H   UNL     1      37.759 -10.542   7.475  1.00  0.00     0.219 HD
ENDBRANCH  16  21
BRANCH  20  23
HETATM   23  C   UNL     1      40.025 -12.701   2.915  1.00  0.00     0.435 C 
HETATM   24  F   UNL     1      39.244 -13.778   2.619  1.00  0.00    -0.165 F 
HETATM   25  F   UNL     1      40.003 -11.879   1.848  1.00  0.00    -0.165 F 
HETATM   26  F   UNL     1      41.281 -13.164   3.072  1.00  0.00    -0.165 F 
ENDBRANCH  20  23
ENDBRANCH   3  15
TORSDOF 6
ENDMDL
