MODEL 1
REMARK VINA RESULT:      -8.9      0.000      0.000
REMARK  3 active torsions:
REMARK  status: ('A' for Active; 'I' for Inactive)
REMARK    1  A    between atoms: N_7  and  N_8 
REMARK       I    between atoms: N_8  and  C_9 
REMARK    2  A    between atoms: C_9  and  C_10 
REMARK    3  A    between atoms: C_14  and  C_15 
ROOT
HETATM    1  N   UNL     1      43.337 -12.409   6.138  1.00  0.00    -0.241 N 
HETATM    2  C   UNL     1      44.376 -11.527   6.379  1.00  0.00     0.289 C 
HETATM    3  O   UNL     1      45.222 -11.209   5.547  1.00  0.00    -0.264 OA
HETATM    4  H   UNL     1      42.678 -12.642   6.879  1.00  0.00     0.192 HD
ENDROOT
BRANCH   2   5
HETATM    5  C   UNL     1      44.411 -10.996   7.719  1.00  0.00     0.121 A 
HETATM    6  N   UNL     1      45.589 -10.832   8.389  1.00  0.00    -0.272 N 
HETATM    7  H   UNL     1      46.520 -11.045   8.040  1.00  0.00     0.189 HD
HETATM    8  N   UNL     1      45.453 -10.352   9.634  1.00  0.00    -0.174 NA
HETATM    9  C   UNL     1      44.132 -10.167   9.786  1.00  0.00     0.089 A 
HETATM   10  C   UNL     1      43.442 -10.563   8.603  1.00  0.00     0.071 A 
BRANCH   9  11
HETATM   11  C   UNL     1      43.566  -9.643  11.032  1.00  0.00    -0.006 A 
HETATM   12  C   UNL     1      43.574  -8.267  11.310  1.00  0.00     0.015 A 
HETATM   13  C   UNL     1      43.024  -7.777  12.501  1.00  0.00     0.024 A 
HETATM   14  C   UNL     1      42.462  -8.659  13.420  1.00  0.00     0.034 A 
HETATM   15 CL   UNL     1      41.784  -8.053  14.880  1.00  0.00    -0.084 Cl
HETATM   16  C   UNL     1      42.447 -10.027  13.164  1.00  0.00     0.024 A 
HETATM   17  C   UNL     1      42.999 -10.515  11.976  1.00  0.00     0.015 A 
ENDBRANCH   9  11
ENDBRANCH   2   5
BRANCH   1  18
HETATM   18  N   UNL     1      43.195 -13.015   4.919  1.00  0.00    -0.165 NA
HETATM   19  C   UNL     1      43.228 -14.309   4.916  1.00  0.00     0.157 A 
HETATM   20  C   UNL     1      43.108 -15.164   3.743  1.00  0.00     0.027 A 
HETATM   21  C   UNL     1      43.408 -15.257   6.107  1.00  0.00     0.277 A 
HETATM   22  C   UNL     1      42.931 -14.849   2.411  1.00  0.00     0.016 A 
HETATM   23  C   UNL     1      43.208 -16.479   4.195  1.00  0.00     0.048 A 
HETATM   24  C   UNL     1      42.855 -15.917   1.514  1.00  0.00     0.001 A 
HETATM   25  C   UNL     1      42.957 -17.250   1.966  1.00  0.00     0.002 A 
HETATM   26  C   UNL     1      43.137 -17.543   3.324  1.00  0.00     0.030 A 
HETATM   27  N   UNL     1      43.384 -16.528   5.577  1.00  0.00    -0.321 N 
HETATM   28  H   UNL     1      43.482 -17.365   6.132  1.00  0.00     0.169 HD
HETATM   29  O   UNL     1      43.540 -14.899   7.260  1.00  0.00    -0.266 OA
ENDBRANCH   1  18
TORSDOF 3
ENDMDL
MODEL 2
REMARK VINA RESULT:      -8.8      2.031      2.762
REMARK  3 active torsions:
REMARK  status: ('A' for Active; 'I' for Inactive)
REMARK    1  A    between atoms: N_7  and  N_8 
REMARK       I    between atoms: N_8  and  C_9 
REMARK    2  A    between atoms: C_9  and  C_10 
REMARK    3  A    between atoms: C_14  and  C_15 
ROOT
HETATM    1  N   UNL     1      42.526 -14.057   4.855  1.00  0.00    -0.241 N 
HETATM    2  C   UNL     1      43.037 -12.826   4.479  1.00  0.00     0.289 C 
HETATM    3  O   UNL     1      43.549 -12.592   3.387  1.00  0.00    -0.264 OA
HETATM    4  H   UNL     1      42.129 -14.187   5.784  1.00  0.00     0.192 HD
ENDROOT
BRANCH   2   5
HETATM    5  C   UNL     1      42.938 -11.804   5.491  1.00  0.00     0.121 A 
HETATM    6  N   UNL     1      42.415 -10.574   5.212  1.00  0.00    -0.272 N 
HETATM    7  H   UNL     1      42.050 -10.260   4.317  1.00  0.00     0.189 HD
HETATM    8  N   UNL     1      42.416  -9.726   6.250  1.00  0.00    -0.174 NA
HETATM    9  C   UNL     1      42.939 -10.431   7.266  1.00  0.00     0.089 A 
HETATM   10  C   UNL     1      43.283 -11.742   6.827  1.00  0.00     0.071 A 
BRANCH   9  11
HETATM   11  C   UNL     1      43.110  -9.848   8.600  1.00  0.00    -0.006 A 
HETATM   12  C   UNL     1      44.323  -9.971   9.295  1.00  0.00     0.015 A 
HETATM   13  C   UNL     1      44.477  -9.404  10.566  1.00  0.00     0.024 A 
HETATM   14  C   UNL     1      43.420  -8.710  11.149  1.00  0.00     0.034 A 
HETATM   15 CL   UNL     1      43.614  -8.011  12.709  1.00  0.00    -0.084 Cl
HETATM   16  C   UNL     1      42.208  -8.580  10.477  1.00  0.00     0.024 A 
HETATM   17  C   UNL     1      42.055  -9.149   9.210  1.00  0.00     0.015 A 
ENDBRANCH   9  11
ENDBRANCH   2   5
BRANCH   1  18
HETATM   18  N   UNL     1      42.577 -15.130   4.007  1.00  0.00    -0.165 NA
HETATM   19  C   UNL     1      43.080 -16.219   4.493  1.00  0.00     0.157 A 
HETATM   20  C   UNL     1      43.244 -17.478   3.778  1.00  0.00     0.027 A 
HETATM   21  C   UNL     1      43.629 -16.465   5.903  1.00  0.00     0.277 A 
HETATM   22  C   UNL     1      42.924 -17.827   2.482  1.00  0.00     0.016 A 
HETATM   23  C   UNL     1      43.831 -18.372   4.673  1.00  0.00     0.048 A 
HETATM   24  C   UNL     1      43.215 -19.136   2.092  1.00  0.00     0.001 A 
HETATM   25  C   UNL     1      43.810 -20.045   2.992  1.00  0.00     0.002 A 
HETATM   26  C   UNL     1      44.125 -19.665   4.303  1.00  0.00     0.030 A 
HETATM   27  N   UNL     1      44.054 -17.775   5.913  1.00  0.00    -0.321 N 
HETATM   28  H   UNL     1      44.468 -18.221   6.718  1.00  0.00     0.169 HD
HETATM   29  O   UNL     1      43.657 -15.634   6.787  1.00  0.00    -0.266 OA
ENDBRANCH   1  18
TORSDOF 3
ENDMDL
MODEL 3
REMARK VINA RESULT:      -8.7      3.859      9.526
REMARK  3 active torsions:
REMARK  status: ('A' for Active; 'I' for Inactive)
REMARK    1  A    between atoms: N_7  and  N_8 
REMARK       I    between atoms: N_8  and  C_9 
REMARK    2  A    between atoms: C_9  and  C_10 
REMARK    3  A    between atoms: C_14  and  C_15 
ROOT
HETATM    1  N   UNL     1      42.224 -10.559   7.218  1.00  0.00    -0.241 N 
HETATM    2  C   UNL     1      42.244 -10.253   5.869  1.00  0.00     0.289 C 
HETATM    3  O   UNL     1      41.982  -9.146   5.405  1.00  0.00    -0.264 OA
HETATM    4  H   UNL     1      42.437 -11.504   7.534  1.00  0.00     0.192 HD
ENDROOT
BRANCH   2   5
HETATM    5  C   UNL     1      42.595 -11.357   5.010  1.00  0.00     0.121 A 
HETATM    6  N   UNL     1      43.284 -11.164   3.847  1.00  0.00    -0.272 N 
HETATM    7  H   UNL     1      43.615 -10.277   3.480  1.00  0.00     0.189 HD
HETATM    8  N   UNL     1      43.511 -12.286   3.148  1.00  0.00    -0.174 NA
HETATM    9  C   UNL     1      42.970 -13.265   3.890  1.00  0.00     0.089 A 
HETATM   10  C   UNL     1      42.382 -12.721   5.068  1.00  0.00     0.071 A 
BRANCH   9  11
HETATM   11  C   UNL     1      43.012 -14.667   3.464  1.00  0.00    -0.006 A 
HETATM   12  C   UNL     1      42.893 -15.712   4.393  1.00  0.00     0.015 A 
HETATM   13  C   UNL     1      42.928 -17.047   3.973  1.00  0.00     0.024 A 
HETATM   14  C   UNL     1      43.081 -17.346   2.621  1.00  0.00     0.034 A 
HETATM   15 CL   UNL     1      43.120 -18.987   2.108  1.00  0.00    -0.084 Cl
HETATM   16  C   UNL     1      43.205 -16.323   1.685  1.00  0.00     0.024 A 
HETATM   17  C   UNL     1      43.173 -14.991   2.106  1.00  0.00     0.015 A 
ENDBRANCH   9  11
ENDBRANCH   2   5
BRANCH   1  18
HETATM   18  N   UNL     1      41.880  -9.618   8.150  1.00  0.00    -0.165 NA
HETATM   19  C   UNL     1      42.613  -9.572   9.215  1.00  0.00     0.157 A 
HETATM   20  C   UNL     1      42.432  -8.663  10.339  1.00  0.00     0.027 A 
HETATM   21  C   UNL     1      43.825 -10.440   9.572  1.00  0.00     0.277 A 
HETATM   22  C   UNL     1      41.498  -7.670  10.555  1.00  0.00     0.016 A 
HETATM   23  C   UNL     1      43.432  -8.966  11.263  1.00  0.00     0.048 A 
HETATM   24  C   UNL     1      41.593  -6.966  11.757  1.00  0.00     0.001 A 
HETATM   25  C   UNL     1      42.601  -7.268  12.696  1.00  0.00     0.002 A 
HETATM   26  C   UNL     1      43.538  -8.281  12.453  1.00  0.00     0.030 A 
HETATM   27  N   UNL     1      44.242 -10.006  10.810  1.00  0.00    -0.321 N 
HETATM   28  H   UNL     1      45.029 -10.400  11.303  1.00  0.00     0.169 HD
HETATM   29  O   UNL     1      44.277 -11.318   8.865  1.00  0.00    -0.266 OA
ENDBRANCH   1  18
TORSDOF 3
ENDMDL
MODEL 4
REMARK VINA RESULT:      -8.7      1.674      2.253
REMARK  3 active torsions:
REMARK  status: ('A' for Active; 'I' for Inactive)
REMARK    1  A    between atoms: N_7  and  N_8 
REMARK       I    between atoms: N_8  and  C_9 
REMARK    2  A    between atoms: C_9  and  C_10 
REMARK    3  A    between atoms: C_14  and  C_15 
ROOT
HETATM    1  N   UNL     1      43.721 -12.613   7.353  1.00  0.00    -0.241 N 
HETATM    2  C   UNL     1      44.720 -11.658   7.262  1.00  0.00     0.289 C 
HETATM    3  O   UNL     1      45.701 -11.749   6.528  1.00  0.00    -0.264 OA
HETATM    4  H   UNL     1      42.942 -12.482   7.995  1.00  0.00     0.192 HD
ENDROOT
BRANCH   2   5
HETATM    5  C   UNL     1      44.535 -10.517   8.123  1.00  0.00     0.121 A 
HETATM    6  N   UNL     1      45.247  -9.365   7.942  1.00  0.00    -0.272 N 
HETATM    7  H   UNL     1      45.940  -9.189   7.220  1.00  0.00     0.189 HD
HETATM    8  N   UNL     1      44.980  -8.405   8.840  1.00  0.00    -0.174 NA
HETATM    9  C   UNL     1      44.035  -8.934   9.633  1.00  0.00     0.089 A 
HETATM   10  C   UNL     1      43.730 -10.261   9.216  1.00  0.00     0.071 A 
BRANCH   9  11
HETATM   11  C   UNL     1      43.465  -8.183  10.756  1.00  0.00    -0.006 A 
HETATM   12  C   UNL     1      43.615  -8.630  12.078  1.00  0.00     0.015 A 
HETATM   13  C   UNL     1      43.072  -7.901  13.143  1.00  0.00     0.024 A 
HETATM   14  C   UNL     1      42.377  -6.721  12.893  1.00  0.00     0.034 A 
HETATM   15 CL   UNL     1      41.714  -5.826  14.205  1.00  0.00    -0.084 Cl
HETATM   16  C   UNL     1      42.213  -6.263  11.589  1.00  0.00     0.024 A 
HETATM   17  C   UNL     1      42.753  -6.994  10.526  1.00  0.00     0.015 A 
ENDBRANCH   9  11
ENDBRANCH   2   5
BRANCH   1  18
HETATM   18  N   UNL     1      43.779 -13.764   6.616  1.00  0.00    -0.165 NA
HETATM   19  C   UNL     1      42.850 -13.922   5.727  1.00  0.00     0.157 A 
HETATM   20  C   UNL     1      42.704 -15.066   4.837  1.00  0.00     0.027 A 
HETATM   21  C   UNL     1      41.688 -12.981   5.391  1.00  0.00     0.277 A 
HETATM   22  C   UNL     1      43.466 -16.209   4.705  1.00  0.00     0.016 A 
HETATM   23  C   UNL     1      41.572 -14.825   4.060  1.00  0.00     0.048 A 
HETATM   24  C   UNL     1      43.053 -17.135   3.745  1.00  0.00     0.001 A 
HETATM   25  C   UNL     1      41.908 -16.898   2.955  1.00  0.00     0.002 A 
HETATM   26  C   UNL     1      41.151 -15.729   3.109  1.00  0.00     0.030 A 
HETATM   27  N   UNL     1      40.982 -13.606   4.388  1.00  0.00    -0.321 N 
HETATM   28  H   UNL     1      40.154 -13.217   3.962  1.00  0.00     0.169 HD
HETATM   29  O   UNL     1      41.484 -11.915   5.935  1.00  0.00    -0.266 OA
ENDBRANCH   1  18
TORSDOF 3
ENDMDL
MODEL 5
REMARK VINA RESULT:      -8.5      7.878     10.554
REMARK  3 active torsions:
REMARK  status: ('A' for Active; 'I' for Inactive)
REMARK    1  A    between atoms: N_7  and  N_8 
REMARK       I    between atoms: N_8  and  C_9 
REMARK    2  A    between atoms: C_9  and  C_10 
REMARK    3  A    between atoms: C_14  and  C_15 
ROOT
HETATM    1  N   UNL     1      39.542 -13.764  -0.443  1.00  0.00    -0.241 N 
HETATM    2  C   UNL     1      39.818 -13.630   0.907  1.00  0.00     0.289 C 
HETATM    3  O   UNL     1      39.231 -12.858   1.662  1.00  0.00    -0.264 OA
HETATM    4  H   UNL     1      40.079 -14.413  -1.015  1.00  0.00     0.192 HD
ENDROOT
BRANCH   2   5
HETATM    5  C   UNL     1      40.884 -14.475   1.386  1.00  0.00     0.121 A 
HETATM    6  N   UNL     1      42.194 -14.180   1.134  1.00  0.00    -0.272 N 
HETATM    7  H   UNL     1      42.546 -13.377   0.620  1.00  0.00     0.189 HD
HETATM    8  N   UNL     1      43.064 -15.075   1.623  1.00  0.00    -0.174 NA
HETATM    9  C   UNL     1      42.300 -15.988   2.245  1.00  0.00     0.089 A 
HETATM   10  C   UNL     1      40.923 -15.646   2.116  1.00  0.00     0.071 A 
BRANCH   9  11
HETATM   11  C   UNL     1      42.886 -17.148   2.923  1.00  0.00    -0.006 A 
HETATM   12  C   UNL     1      43.090 -18.359   2.243  1.00  0.00     0.015 A 
HETATM   13  C   UNL     1      43.657 -19.459   2.898  1.00  0.00     0.024 A 
HETATM   14  C   UNL     1      44.024 -19.355   4.237  1.00  0.00     0.034 A 
HETATM   15 CL   UNL     1      44.723 -20.707   5.038  1.00  0.00    -0.084 Cl
HETATM   16  C   UNL     1      43.826 -18.164   4.930  1.00  0.00     0.024 A 
HETATM   17  C   UNL     1      43.257 -17.068   4.275  1.00  0.00     0.015 A 
ENDBRANCH   9  11
ENDBRANCH   2   5
BRANCH   1  18
HETATM   18  N   UNL     1      38.574 -13.004  -1.043  1.00  0.00    -0.165 NA
HETATM   19  C   UNL     1      38.989 -12.101  -1.872  1.00  0.00     0.157 A 
HETATM   20  C   UNL     1      38.147 -11.175  -2.618  1.00  0.00     0.027 A 
HETATM   21  C   UNL     1      40.431 -11.770  -2.272  1.00  0.00     0.277 A 
HETATM   22  C   UNL     1      36.776 -11.023  -2.644  1.00  0.00     0.016 A 
HETATM   23  C   UNL     1      39.005 -10.378  -3.376  1.00  0.00     0.048 A 
HETATM   24  C   UNL     1      36.267 -10.023  -3.475  1.00  0.00     0.001 A 
HETATM   25  C   UNL     1      37.130  -9.213  -4.244  1.00  0.00     0.002 A 
HETATM   26  C   UNL     1      38.519  -9.387  -4.200  1.00  0.00     0.030 A 
HETATM   27  N   UNL     1      40.338 -10.729  -3.170  1.00  0.00    -0.321 N 
HETATM   28  H   UNL     1      41.137 -10.296  -3.608  1.00  0.00     0.169 HD
HETATM   29  O   UNL     1      41.413 -12.343  -1.849  1.00  0.00    -0.266 OA
ENDBRANCH   1  18
TORSDOF 3
ENDMDL
MODEL 6
REMARK VINA RESULT:      -8.4      4.183      9.600
REMARK  3 active torsions:
REMARK  status: ('A' for Active; 'I' for Inactive)
REMARK    1  A    between atoms: N_7  and  N_8 
REMARK       I    between atoms: N_8  and  C_9 
REMARK    2  A    between atoms: C_9  and  C_10 
REMARK    3  A    between atoms: C_14  and  C_15 
ROOT
HETATM    1  N   UNL     1      42.186 -11.460   6.731  1.00  0.00    -0.241 N 
HETATM    2  C   UNL     1      42.396 -11.884   5.430  1.00  0.00     0.289 C 
HETATM    3  O   UNL     1      42.281 -11.166   4.439  1.00  0.00    -0.264 OA
HETATM    4  H   UNL     1      42.282 -12.114   7.506  1.00  0.00     0.192 HD
ENDROOT
BRANCH   2   5
HETATM    5  C   UNL     1      42.760 -13.274   5.306  1.00  0.00     0.121 A 
HETATM    6  N   UNL     1      43.329 -13.957   6.343  1.00  0.00    -0.272 N 
HETATM    7  H   UNL     1      43.541 -13.589   7.266  1.00  0.00     0.189 HD
HETATM    8  N   UNL     1      43.633 -15.232   6.062  1.00  0.00    -0.174 NA
HETATM    9  C   UNL     1      43.226 -15.409   4.795  1.00  0.00     0.089 A 
HETATM   10  C   UNL     1      42.673 -14.199   4.284  1.00  0.00     0.071 A 
BRANCH   9  11
HETATM   11  C   UNL     1      43.382 -16.695   4.109  1.00  0.00    -0.006 A 
HETATM   12  C   UNL     1      42.778 -16.931   2.863  1.00  0.00     0.015 A 
HETATM   13  C   UNL     1      42.940 -18.160   2.214  1.00  0.00     0.024 A 
HETATM   14  C   UNL     1      43.706 -19.162   2.805  1.00  0.00     0.034 A 
HETATM   15 CL   UNL     1      43.906 -20.670   2.003  1.00  0.00    -0.084 Cl
HETATM   16  C   UNL     1      44.309 -18.949   4.042  1.00  0.00     0.024 A 
HETATM   17  C   UNL     1      44.144 -17.721   4.690  1.00  0.00     0.015 A 
ENDBRANCH   9  11
ENDBRANCH   2   5
BRANCH   1  18
HETATM   18  N   UNL     1      41.806 -10.174   7.000  1.00  0.00    -0.165 NA
HETATM   19  C   UNL     1      42.452  -9.573   7.947  1.00  0.00     0.157 A 
HETATM   20  C   UNL     1      42.218  -8.212   8.412  1.00  0.00     0.027 A 
HETATM   21  C   UNL     1      43.594 -10.119   8.812  1.00  0.00     0.277 A 
HETATM   22  C   UNL     1      41.311  -7.259   7.993  1.00  0.00     0.016 A 
HETATM   23  C   UNL     1      43.126  -7.981   9.445  1.00  0.00     0.048 A 
HETATM   24  C   UNL     1      41.337  -6.030   8.656  1.00  0.00     0.001 A 
HETATM   25  C   UNL     1      42.253  -5.791   9.703  1.00  0.00     0.002 A 
HETATM   26  C   UNL     1      43.163  -6.775  10.109  1.00  0.00     0.030 A 
HETATM   27  N   UNL     1      43.927  -9.098   9.675  1.00  0.00    -0.321 N 
HETATM   28  H   UNL     1      44.655  -9.171  10.370  1.00  0.00     0.169 HD
HETATM   29  O   UNL     1      44.065 -11.232   8.709  1.00  0.00    -0.266 OA
ENDBRANCH   1  18
TORSDOF 3
ENDMDL
MODEL 7
REMARK VINA RESULT:      -8.3      3.800      9.727
REMARK  3 active torsions:
REMARK  status: ('A' for Active; 'I' for Inactive)
REMARK    1  A    between atoms: N_7  and  N_8 
REMARK       I    between atoms: N_8  and  C_9 
REMARK    2  A    between atoms: C_9  and  C_10 
REMARK    3  A    between atoms: C_14  and  C_15 
ROOT
HETATM    1  N   UNL     1      43.264 -10.794   9.335  1.00  0.00    -0.241 N 
HETATM    2  C   UNL     1      44.220 -10.816   8.334  1.00  0.00     0.289 C 
HETATM    3  O   UNL     1      45.298 -10.228   8.392  1.00  0.00    -0.264 OA
HETATM    4  H   UNL     1      42.383 -11.292   9.216  1.00  0.00     0.192 HD
ENDROOT
BRANCH   2   5
HETATM    5  C   UNL     1      43.853 -11.589   7.173  1.00  0.00     0.121 A 
HETATM    6  N   UNL     1      43.324 -10.997   6.062  1.00  0.00    -0.272 N 
HETATM    7  H   UNL     1      43.146 -10.005   5.931  1.00  0.00     0.189 HD
HETATM    8  N   UNL     1      43.011 -11.853   5.078  1.00  0.00    -0.174 NA
HETATM    9  C   UNL     1      43.370 -13.058   5.548  1.00  0.00     0.089 A 
HETATM   10  C   UNL     1      43.902 -12.934   6.864  1.00  0.00     0.071 A 
BRANCH   9  11
HETATM   11  C   UNL     1      43.189 -14.278   4.755  1.00  0.00    -0.006 A 
HETATM   12  C   UNL     1      42.957 -14.217   3.372  1.00  0.00     0.015 A 
HETATM   13  C   UNL     1      42.793 -15.389   2.625  1.00  0.00     0.024 A 
HETATM   14  C   UNL     1      42.861 -16.629   3.254  1.00  0.00     0.034 A 
HETATM   15 CL   UNL     1      42.663 -18.068   2.331  1.00  0.00    -0.084 Cl
HETATM   16  C   UNL     1      43.086 -16.711   4.625  1.00  0.00     0.024 A 
HETATM   17  C   UNL     1      43.247 -15.539   5.371  1.00  0.00     0.015 A 
ENDBRANCH   9  11
ENDBRANCH   2   5
BRANCH   1  18
HETATM   18  N   UNL     1      43.462 -10.077  10.483  1.00  0.00    -0.165 NA
HETATM   19  C   UNL     1      42.617  -9.125  10.717  1.00  0.00     0.157 A 
HETATM   20  C   UNL     1      42.635  -8.229  11.865  1.00  0.00     0.027 A 
HETATM   21  C   UNL     1      41.416  -8.693   9.868  1.00  0.00     0.277 A 
HETATM   22  C   UNL     1      43.493  -8.161  12.943  1.00  0.00     0.016 A 
HETATM   23  C   UNL     1      41.557  -7.358  11.708  1.00  0.00     0.048 A 
HETATM   24  C   UNL     1      43.237  -7.168  13.891  1.00  0.00     0.001 A 
HETATM   25  C   UNL     1      42.149  -6.283  13.738  1.00  0.00     0.002 A 
HETATM   26  C   UNL     1      41.292  -6.373  12.634  1.00  0.00     0.030 A 
HETATM   27  N   UNL     1      40.848  -7.633  10.540  1.00  0.00    -0.321 N 
HETATM   28  H   UNL     1      40.032  -7.138  10.213  1.00  0.00     0.169 HD
HETATM   29  O   UNL     1      41.084  -9.218   8.825  1.00  0.00    -0.266 OA
ENDBRANCH   1  18
TORSDOF 3
ENDMDL
MODEL 8
REMARK VINA RESULT:      -8.2      7.395     10.159
REMARK  3 active torsions:
REMARK  status: ('A' for Active; 'I' for Inactive)
REMARK    1  A    between atoms: N_7  and  N_8 
REMARK       I    between atoms: N_8  and  C_9 
REMARK    2  A    between atoms: C_9  and  C_10 
REMARK    3  A    between atoms: C_14  and  C_15 
ROOT
HETATM    1  N   UNL     1      41.315 -12.335  -1.127  1.00  0.00    -0.241 N 
HETATM    2  C   UNL     1      40.203 -13.126  -0.891  1.00  0.00     0.289 C 
HETATM    3  O   UNL     1      39.134 -13.014  -1.486  1.00  0.00    -0.264 OA
HETATM    4  H   UNL     1      42.167 -12.471  -0.585  1.00  0.00     0.192 HD
ENDROOT
BRANCH   2   5
HETATM    5  C   UNL     1      40.382 -14.115   0.143  1.00  0.00     0.121 A 
HETATM    6  N   UNL     1      39.540 -15.184   0.258  1.00  0.00    -0.272 N 
HETATM    7  H   UNL     1      38.746 -15.396  -0.338  1.00  0.00     0.189 HD
HETATM    8  N   UNL     1      39.823 -16.000   1.284  1.00  0.00    -0.174 NA
HETATM    9  C   UNL     1      40.911 -15.462   1.858  1.00  0.00     0.089 A 
HETATM   10  C   UNL     1      41.292 -14.274   1.169  1.00  0.00     0.071 A 
BRANCH   9  11
HETATM   11  C   UNL     1      41.543 -16.071   3.032  1.00  0.00    -0.006 A 
HETATM   12  C   UNL     1      42.705 -16.848   2.910  1.00  0.00     0.015 A 
HETATM   13  C   UNL     1      43.304 -17.418   4.039  1.00  0.00     0.024 A 
HETATM   14  C   UNL     1      42.745 -17.215   5.298  1.00  0.00     0.034 A 
HETATM   15 CL   UNL     1      43.485 -17.915   6.685  1.00  0.00    -0.084 Cl
HETATM   16  C   UNL     1      41.590 -16.451   5.440  1.00  0.00     0.024 A 
HETATM   17  C   UNL     1      40.992 -15.884   4.311  1.00  0.00     0.015 A 
ENDBRANCH   9  11
ENDBRANCH   2   5
BRANCH   1  18
HETATM   18  N   UNL     1      41.283 -11.335  -2.060  1.00  0.00    -0.165 NA
HETATM   19  C   UNL     1      41.547 -10.142  -1.630  1.00  0.00     0.157 A 
HETATM   20  C   UNL     1      41.563  -8.928  -2.434  1.00  0.00     0.027 A 
HETATM   21  C   UNL     1      41.893  -9.703  -0.203  1.00  0.00     0.277 A 
HETATM   22  C   UNL     1      41.324  -8.733  -3.779  1.00  0.00     0.016 A 
HETATM   23  C   UNL     1      41.883  -7.881  -1.570  1.00  0.00     0.048 A 
HETATM   24  C   UNL     1      41.416  -7.423  -4.253  1.00  0.00     0.001 A 
HETATM   25  C   UNL     1      41.738  -6.359  -3.383  1.00  0.00     0.002 A 
HETATM   26  C   UNL     1      41.976  -6.583  -2.021  1.00  0.00     0.030 A 
HETATM   27  N   UNL     1      42.074  -8.339  -0.267  1.00  0.00    -0.321 N 
HETATM   28  H   UNL     1      42.312  -7.770   0.531  1.00  0.00     0.169 HD
HETATM   29  O   UNL     1      41.975 -10.452   0.749  1.00  0.00    -0.266 OA
ENDBRANCH   1  18
TORSDOF 3
ENDMDL
MODEL 9
REMARK VINA RESULT:      -8.2      2.756      3.372
REMARK  3 active torsions:
REMARK  status: ('A' for Active; 'I' for Inactive)
REMARK    1  A    between atoms: N_7  and  N_8 
REMARK       I    between atoms: N_8  and  C_9 
REMARK    2  A    between atoms: C_9  and  C_10 
REMARK    3  A    between atoms: C_14  and  C_15 
ROOT
HETATM    1  N   UNL     1      43.397 -14.478   4.856  1.00  0.00    -0.241 N 
HETATM    2  C   UNL     1      42.500 -13.425   4.916  1.00  0.00     0.289 C 
HETATM    3  O   UNL     1      41.490 -13.335   4.221  1.00  0.00    -0.264 OA
HETATM    4  H   UNL     1      44.224 -14.482   5.451  1.00  0.00     0.192 HD
ENDROOT
BRANCH   2   5
HETATM    5  C   UNL     1      42.843 -12.400   5.870  1.00  0.00     0.121 A 
HETATM    6  N   UNL     1      43.841 -12.584   6.784  1.00  0.00    -0.272 N 
HETATM    7  H   UNL     1      44.425 -13.409   6.886  1.00  0.00     0.189 HD
HETATM    8  N   UNL     1      44.022 -11.549   7.618  1.00  0.00    -0.174 NA
HETATM    9  C   UNL     1      43.123 -10.633   7.224  1.00  0.00     0.089 A 
HETATM   10  C   UNL     1      42.361 -11.132   6.129  1.00  0.00     0.071 A 
BRANCH   9  11
HETATM   11  C   UNL     1      43.002  -9.335   7.895  1.00  0.00    -0.006 A 
HETATM   12  C   UNL     1      41.756  -8.703   8.035  1.00  0.00     0.015 A 
HETATM   13  C   UNL     1      41.653  -7.467   8.684  1.00  0.00     0.024 A 
HETATM   14  C   UNL     1      42.793  -6.855   9.197  1.00  0.00     0.034 A 
HETATM   15 CL   UNL     1      42.661  -5.338   9.997  1.00  0.00    -0.084 Cl
HETATM   16  C   UNL     1      44.038  -7.463   9.065  1.00  0.00     0.024 A 
HETATM   17  C   UNL     1      44.140  -8.696   8.414  1.00  0.00     0.015 A 
ENDBRANCH   9  11
ENDBRANCH   2   5
BRANCH   1  18
HETATM   18  N   UNL     1      43.216 -15.509   3.976  1.00  0.00    -0.165 NA
HETATM   19  C   UNL     1      43.568 -16.684   4.390  1.00  0.00     0.157 A 
HETATM   20  C   UNL     1      43.477 -17.922   3.628  1.00  0.00     0.027 A 
HETATM   21  C   UNL     1      44.165 -17.072   5.748  1.00  0.00     0.277 A 
HETATM   22  C   UNL     1      43.017 -18.162   2.350  1.00  0.00     0.016 A 
HETATM   23  C   UNL     1      43.971 -18.934   4.451  1.00  0.00     0.048 A 
HETATM   24  C   UNL     1      43.065 -19.484   1.900  1.00  0.00     0.001 A 
HETATM   25  C   UNL     1      43.565 -20.512   2.727  1.00  0.00     0.002 A 
HETATM   26  C   UNL     1      44.026 -20.242   4.021  1.00  0.00     0.030 A 
HETATM   27  N   UNL     1      44.372 -18.432   5.687  1.00  0.00    -0.321 N 
HETATM   28  H   UNL     1      44.762 -18.972   6.446  1.00  0.00     0.169 HD
HETATM   29  O   UNL     1      44.387 -16.293   6.652  1.00  0.00    -0.266 OA
ENDBRANCH   1  18
TORSDOF 3
ENDMDL
MODEL 10
REMARK VINA RESULT:      -8.0      7.911     10.442
REMARK  3 active torsions:
REMARK  status: ('A' for Active; 'I' for Inactive)
REMARK    1  A    between atoms: N_7  and  N_8 
REMARK       I    between atoms: N_8  and  C_9 
REMARK    2  A    between atoms: C_9  and  C_10 
REMARK    3  A    between atoms: C_14  and  C_15 
ROOT
HETATM    1  N   UNL     1      41.179 -12.575  -0.237  1.00  0.00    -0.241 N 
HETATM    2  C   UNL     1      41.704 -12.716   1.036  1.00  0.00     0.289 C 
HETATM    3  O   UNL     1      42.079 -11.781   1.740  1.00  0.00    -0.264 OA
HETATM    4  H   UNL     1      40.902 -13.395  -0.773  1.00  0.00     0.192 HD
ENDROOT
BRANCH   2   5
HETATM    5  C   UNL     1      41.798 -14.080   1.496  1.00  0.00     0.121 A 
HETATM    6  N   UNL     1      40.788 -14.974   1.281  1.00  0.00    -0.272 N 
HETATM    7  H   UNL     1      39.913 -14.795   0.797  1.00  0.00     0.189 HD
HETATM    8  N   UNL     1      41.015 -16.194   1.791  1.00  0.00    -0.174 NA
HETATM    9  C   UNL     1      42.235 -16.111   2.345  1.00  0.00     0.089 A 
HETATM   10  C   UNL     1      42.759 -14.796   2.182  1.00  0.00     0.071 A 
BRANCH   9  11
HETATM   11  C   UNL     1      42.855 -17.257   3.016  1.00  0.00    -0.006 A 
HETATM   12  C   UNL     1      43.218 -17.196   4.370  1.00  0.00     0.015 A 
HETATM   13  C   UNL     1      43.803 -18.300   5.002  1.00  0.00     0.024 A 
HETATM   14  C   UNL     1      44.030 -19.471   4.284  1.00  0.00     0.034 A 
HETATM   15 CL   UNL     1      44.746 -20.826   5.065  1.00  0.00    -0.084 Cl
HETATM   16  C   UNL     1      43.681 -19.550   2.939  1.00  0.00     0.024 A 
HETATM   17  C   UNL     1      43.099 -18.446   2.309  1.00  0.00     0.015 A 
ENDBRANCH   9  11
ENDBRANCH   2   5
BRANCH   1  18
HETATM   18  N   UNL     1      41.058 -11.341  -0.816  1.00  0.00    -0.165 NA
HETATM   19  C   UNL     1      40.154 -11.226  -1.735  1.00  0.00     0.157 A 
HETATM   20  C   UNL     1      39.852 -10.018  -2.491  1.00  0.00     0.027 A 
HETATM   21  C   UNL     1      39.195 -12.299  -2.262  1.00  0.00     0.277 A 
HETATM   22  C   UNL     1      40.406  -8.755  -2.433  1.00  0.00     0.016 A 
HETATM   23  C   UNL     1      38.825 -10.346  -3.375  1.00  0.00     0.048 A 
HETATM   24  C   UNL     1      39.889  -7.799  -3.309  1.00  0.00     0.001 A 
HETATM   25  C   UNL     1      38.850  -8.125  -4.206  1.00  0.00     0.002 A 
HETATM   26  C   UNL     1      38.304  -9.414  -4.246  1.00  0.00     0.030 A 
HETATM   27  N   UNL     1      38.444 -11.680  -3.237  1.00  0.00    -0.321 N 
HETATM   28  H   UNL     1      37.723 -12.147  -3.767  1.00  0.00     0.169 HD
HETATM   29  O   UNL     1      39.154 -13.445  -1.862  1.00  0.00    -0.266 OA
ENDBRANCH   1  18
TORSDOF 3
ENDMDL
