MODEL 1
REMARK VINA RESULT:      -7.9      0.000      0.000
REMARK  8 active torsions:
REMARK  status: ('A' for Active; 'I' for Inactive)
REMARK    1  A    between atoms: C_2  and  C_3 
REMARK    2  A    between atoms: C_3  and  N_4 
REMARK    3  A    between atoms: C_7  and  C_8 
REMARK       I    between atoms: C_8  and  N_9 
REMARK    4  A    between atoms: N_9  and  N_10 
REMARK       I    between atoms: N_10  and  C_11 
REMARK    5  A    between atoms: C_11  and  C_12 
REMARK    6  A    between atoms: C_12  and  O_13 
REMARK    7  A    between atoms: O_13  and  C_14 
REMARK    8  A    between atoms: C_23  and  C_24 
ROOT
HETATM    1  C   UNL     1      42.608 -13.527   5.417  1.00  0.00     0.273 C 
HETATM    2  N   UNL     1      43.763 -12.895   5.849  1.00  0.00    -0.263 N 
HETATM    3  O   UNL     1      41.496 -13.062   5.658  1.00  0.00    -0.266 OA
HETATM    4  H   UNL     1      44.642 -13.409   5.915  1.00  0.00     0.190 HD
ENDROOT
BRANCH   2   5
HETATM    5  N   UNL     1      43.638 -11.798   6.720  1.00  0.00    -0.265 N 
HETATM    6  C   UNL     1      44.803 -11.183   7.138  1.00  0.00     0.260 C 
HETATM    7  O   UNL     1      45.903 -11.467   6.660  1.00  0.00    -0.269 OA
HETATM    8  H   UNL     1      42.780 -11.760   7.270  1.00  0.00     0.190 HD
BRANCH   6   9
HETATM    9  C   UNL     1      44.610 -10.126   8.216  1.00  0.00     0.280 C 
BRANCH   9  10
HETATM   10  O   UNL     1      44.684 -10.766   9.484  1.00  0.00    -0.342 OA
BRANCH  10  11
HETATM   11  C   UNL     1      43.997 -10.163  10.503  1.00  0.00     0.069 A 
HETATM   12  C   UNL     1      43.670  -8.822  10.284  1.00  0.00     0.043 A 
HETATM   13  C   UNL     1      42.970  -8.083  11.249  1.00  0.00    -0.059 A 
HETATM   14  C   UNL     1      42.627  -6.642  11.020  1.00  0.00     0.048 C 
HETATM   15  C   UNL     1      42.579  -8.717  12.432  1.00  0.00     0.007 A 
HETATM   16  C   UNL     1      42.888 -10.060  12.648  1.00  0.00     0.003 A 
HETATM   17  C   UNL     1      43.595 -10.784  11.685  1.00  0.00     0.037 A 
ENDBRANCH  10  11
ENDBRANCH   9  10
ENDBRANCH   6   9
ENDBRANCH   2   5
BRANCH   1  18
HETATM   18  C   UNL     1      42.857 -14.736   4.651  1.00  0.00     0.077 A 
HETATM   19  C   UNL     1      43.084 -14.766   3.251  1.00  0.00     0.158 A 
HETATM   20  N   UNL     1      43.286 -15.990   2.775  1.00  0.00    -0.183 NA
HETATM   21  N   UNL     1      43.184 -16.779   3.861  1.00  0.00    -0.268 N 
HETATM   22  C   UNL     1      42.932 -16.075   5.025  1.00  0.00     0.052 A 
BRANCH  21  23
HETATM   23  C   UNL     1      43.300 -18.230   3.699  1.00  0.00     0.106 C 
HETATM   24  C   UNL     1      44.635 -18.798   4.201  1.00  0.00     0.034 C 
BRANCH  23  25
HETATM   25  C   UNL     1      42.984 -18.676   2.258  1.00  0.00     0.022 C 
HETATM   26  C   UNL     1      43.314 -20.130   1.945  1.00  0.00     0.007 C 
ENDBRANCH  23  25
ENDBRANCH  21  23
BRANCH  22  27
HETATM   27  C   UNL     1      42.814 -16.740   6.400  1.00  0.00     0.038 A 
HETATM   28  C   UNL     1      43.985 -16.748   7.352  1.00  0.00     0.011 A 
HETATM   29  C   UNL     1      42.786 -15.914   7.660  1.00  0.00     0.011 A 
ENDBRANCH  22  27
ENDBRANCH   1  18
TORSDOF 8
ENDMDL
MODEL 2
REMARK VINA RESULT:      -7.9      6.122     10.003
REMARK  8 active torsions:
REMARK  status: ('A' for Active; 'I' for Inactive)
REMARK    1  A    between atoms: C_2  and  C_3 
REMARK    2  A    between atoms: C_3  and  N_4 
REMARK    3  A    between atoms: C_7  and  C_8 
REMARK       I    between atoms: C_8  and  N_9 
REMARK    4  A    between atoms: N_9  and  N_10 
REMARK       I    between atoms: N_10  and  C_11 
REMARK    5  A    between atoms: C_11  and  C_12 
REMARK    6  A    between atoms: C_12  and  O_13 
REMARK    7  A    between atoms: O_13  and  C_14 
REMARK    8  A    between atoms: C_23  and  C_24 
ROOT
HETATM    1  C   UNL     1      40.089 -14.223   0.736  1.00  0.00     0.273 C 
HETATM    2  N   UNL     1      39.456 -14.366   1.961  1.00  0.00    -0.263 N 
HETATM    3  O   UNL     1      40.973 -14.998   0.380  1.00  0.00    -0.266 OA
HETATM    4  H   UNL     1      38.955 -13.582   2.380  1.00  0.00     0.190 HD
ENDROOT
BRANCH   2   5
HETATM    5  N   UNL     1      39.964 -15.314   2.868  1.00  0.00    -0.265 N 
HETATM    6  C   UNL     1      40.902 -14.876   3.783  1.00  0.00     0.260 C 
HETATM    7  O   UNL     1      41.181 -13.684   3.919  1.00  0.00    -0.269 OA
HETATM    8  H   UNL     1      39.910 -16.288   2.572  1.00  0.00     0.190 HD
BRANCH   6   9
HETATM    9  C   UNL     1      41.543 -15.981   4.610  1.00  0.00     0.280 C 
BRANCH   9  10
HETATM   10  O   UNL     1      42.820 -16.270   4.054  1.00  0.00    -0.342 OA
BRANCH  10  11
HETATM   11  C   UNL     1      43.236 -17.570   4.146  1.00  0.00     0.069 A 
HETATM   12  C   UNL     1      43.235 -18.280   2.942  1.00  0.00     0.043 A 
HETATM   13  C   UNL     1      43.635 -19.623   2.897  1.00  0.00    -0.059 A 
HETATM   14  C   UNL     1      43.625 -20.389   1.608  1.00  0.00     0.048 C 
HETATM   15  C   UNL     1      44.062 -20.242   4.076  1.00  0.00     0.007 A 
HETATM   16  C   UNL     1      44.082 -19.533   5.277  1.00  0.00     0.003 A 
HETATM   17  C   UNL     1      43.671 -18.199   5.314  1.00  0.00     0.037 A 
ENDBRANCH  10  11
ENDBRANCH   9  10
ENDBRANCH   6   9
ENDBRANCH   2   5
BRANCH   1  18
HETATM   18  C   UNL     1      39.582 -13.115  -0.056  1.00  0.00     0.077 A 
HETATM   19  C   UNL     1      39.261 -11.836   0.465  1.00  0.00     0.158 A 
HETATM   20  N   UNL     1      38.814 -10.988  -0.454  1.00  0.00    -0.183 NA
HETATM   21  N   UNL     1      38.827 -11.709  -1.591  1.00  0.00    -0.268 N 
HETATM   22  C   UNL     1      39.290 -13.001  -1.412  1.00  0.00     0.052 A 
BRANCH  21  23
HETATM   23  C   UNL     1      38.335 -11.097  -2.828  1.00  0.00     0.106 C 
HETATM   24  C   UNL     1      39.345 -10.145  -3.484  1.00  0.00     0.034 C 
BRANCH  23  25
HETATM   25  C   UNL     1      36.955 -10.438  -2.634  1.00  0.00     0.022 C 
HETATM   26  C   UNL     1      35.787 -11.194  -3.253  1.00  0.00     0.007 C 
ENDBRANCH  23  25
ENDBRANCH  21  23
BRANCH  22  27
HETATM   27  C   UNL     1      39.439 -14.005  -2.559  1.00  0.00     0.038 A 
HETATM   28  C   UNL     1      38.812 -15.375  -2.468  1.00  0.00     0.011 A 
HETATM   29  C   UNL     1      38.262 -14.371  -3.426  1.00  0.00     0.011 A 
ENDBRANCH  22  27
ENDBRANCH   1  18
TORSDOF 8
ENDMDL
MODEL 3
REMARK VINA RESULT:      -7.8      2.118      9.438
REMARK  8 active torsions:
REMARK  status: ('A' for Active; 'I' for Inactive)
REMARK    1  A    between atoms: C_2  and  C_3 
REMARK    2  A    between atoms: C_3  and  N_4 
REMARK    3  A    between atoms: C_7  and  C_8 
REMARK       I    between atoms: C_8  and  N_9 
REMARK    4  A    between atoms: N_9  and  N_10 
REMARK       I    between atoms: N_10  and  C_11 
REMARK    5  A    between atoms: C_11  and  C_12 
REMARK    6  A    between atoms: C_12  and  O_13 
REMARK    7  A    between atoms: O_13  and  C_14 
REMARK    8  A    between atoms: C_23  and  C_24 
ROOT
HETATM    1  C   UNL     1      43.888 -11.732   5.174  1.00  0.00     0.273 C 
HETATM    2  N   UNL     1      43.070 -12.836   5.351  1.00  0.00    -0.263 N 
HETATM    3  O   UNL     1      44.304 -11.415   4.062  1.00  0.00    -0.266 OA
HETATM    4  H   UNL     1      42.971 -13.267   6.270  1.00  0.00     0.190 HD
ENDROOT
BRANCH   2   5
HETATM    5  N   UNL     1      42.864 -13.696   4.255  1.00  0.00    -0.265 N 
HETATM    6  C   UNL     1      41.642 -14.336   4.173  1.00  0.00     0.260 C 
HETATM    7  O   UNL     1      40.705 -14.063   4.926  1.00  0.00    -0.269 OA
HETATM    8  H   UNL     1      43.704 -14.078   3.823  1.00  0.00     0.190 HD
BRANCH   6   9
HETATM    9  C   UNL     1      41.549 -15.384   3.074  1.00  0.00     0.280 C 
BRANCH   9  10
HETATM   10  O   UNL     1      42.870 -15.780   2.725  1.00  0.00    -0.342 OA
BRANCH  10  11
HETATM   11  C   UNL     1      43.286 -16.988   3.216  1.00  0.00     0.069 A 
HETATM   12  C   UNL     1      43.215 -18.051   2.312  1.00  0.00     0.043 A 
HETATM   13  C   UNL     1      43.606 -19.344   2.688  1.00  0.00    -0.059 A 
HETATM   14  C   UNL     1      43.522 -20.488   1.724  1.00  0.00     0.048 C 
HETATM   15  C   UNL     1      44.096 -19.553   3.982  1.00  0.00     0.007 A 
HETATM   16  C   UNL     1      44.185 -18.491   4.882  1.00  0.00     0.003 A 
HETATM   17  C   UNL     1      43.782 -17.210   4.501  1.00  0.00     0.037 A 
ENDBRANCH  10  11
ENDBRANCH   9  10
ENDBRANCH   6   9
ENDBRANCH   2   5
BRANCH   1  18
HETATM   18  C   UNL     1      44.156 -11.003   6.403  1.00  0.00     0.077 A 
HETATM   19  C   UNL     1      45.410 -10.980   7.065  1.00  0.00     0.158 A 
HETATM   20  N   UNL     1      45.409 -10.245   8.171  1.00  0.00    -0.183 NA
HETATM   21  N   UNL     1      44.146  -9.785   8.252  1.00  0.00    -0.268 N 
HETATM   22  C   UNL     1      43.345 -10.205   7.205  1.00  0.00     0.052 A 
BRANCH  21  23
HETATM   23  C   UNL     1      43.759  -8.965   9.403  1.00  0.00     0.106 C 
HETATM   24  C   UNL     1      44.030  -7.467   9.207  1.00  0.00     0.034 C 
BRANCH  23  25
HETATM   25  C   UNL     1      44.363  -9.498  10.717  1.00  0.00     0.022 C 
HETATM   26  C   UNL     1      43.354 -10.071  11.705  1.00  0.00     0.007 C 
ENDBRANCH  23  25
ENDBRANCH  21  23
BRANCH  22  27
HETATM   27  C   UNL     1      41.881  -9.784   7.047  1.00  0.00     0.038 A 
HETATM   28  C   UNL     1      41.528  -8.398   6.564  1.00  0.00     0.011 A 
HETATM   29  C   UNL     1      41.278  -9.575   5.681  1.00  0.00     0.011 A 
ENDBRANCH  22  27
ENDBRANCH   1  18
TORSDOF 8
ENDMDL
MODEL 4
REMARK VINA RESULT:      -7.8      2.179      9.568
REMARK  8 active torsions:
REMARK  status: ('A' for Active; 'I' for Inactive)
REMARK    1  A    between atoms: C_2  and  C_3 
REMARK    2  A    between atoms: C_3  and  N_4 
REMARK    3  A    between atoms: C_7  and  C_8 
REMARK       I    between atoms: C_8  and  N_9 
REMARK    4  A    between atoms: N_9  and  N_10 
REMARK       I    between atoms: N_10  and  C_11 
REMARK    5  A    between atoms: C_11  and  C_12 
REMARK    6  A    between atoms: C_12  and  O_13 
REMARK    7  A    between atoms: O_13  and  C_14 
REMARK    8  A    between atoms: C_23  and  C_24 
ROOT
HETATM    1  C   UNL     1      42.797 -11.795   6.105  1.00  0.00     0.273 C 
HETATM    2  N   UNL     1      41.762 -12.697   6.289  1.00  0.00    -0.263 N 
HETATM    3  O   UNL     1      43.644 -11.963   5.231  1.00  0.00    -0.266 OA
HETATM    4  H   UNL     1      41.249 -12.726   7.170  1.00  0.00     0.190 HD
ENDROOT
BRANCH   2   5
HETATM    5  N   UNL     1      41.794 -13.906   5.569  1.00  0.00    -0.265 N 
HETATM    6  C   UNL     1      40.867 -14.066   4.557  1.00  0.00     0.260 C 
HETATM    7  O   UNL     1      40.138 -13.145   4.182  1.00  0.00    -0.269 OA
HETATM    8  H   UNL     1      42.211 -14.701   6.050  1.00  0.00     0.190 HD
BRANCH   6   9
HETATM    9  C   UNL     1      40.835 -15.457   3.941  1.00  0.00     0.280 C 
BRANCH   9  10
HETATM   10  O   UNL     1      42.013 -15.626   3.163  1.00  0.00    -0.342 OA
BRANCH  10  11
HETATM   11  C   UNL     1      42.797 -16.701   3.485  1.00  0.00     0.069 A 
HETATM   12  C   UNL     1      42.731 -17.772   2.590  1.00  0.00     0.043 A 
HETATM   13  C   UNL     1      43.481 -18.938   2.803  1.00  0.00    -0.059 A 
HETATM   14  C   UNL     1      43.404 -20.092   1.849  1.00  0.00     0.048 C 
HETATM   15  C   UNL     1      44.322 -19.006   3.918  1.00  0.00     0.007 A 
HETATM   16  C   UNL     1      44.405 -17.932   4.805  1.00  0.00     0.003 A 
HETATM   17  C   UNL     1      43.645 -16.780   4.590  1.00  0.00     0.037 A 
ENDBRANCH  10  11
ENDBRANCH   9  10
ENDBRANCH   6   9
ENDBRANCH   2   5
BRANCH   1  18
HETATM   18  C   UNL     1      42.745 -10.657   7.008  1.00  0.00     0.077 A 
HETATM   19  C   UNL     1      41.618  -9.810   7.168  1.00  0.00     0.158 A 
HETATM   20  N   UNL     1      41.812  -8.836   8.050  1.00  0.00    -0.183 NA
HETATM   21  N   UNL     1      43.076  -9.028   8.471  1.00  0.00    -0.268 N 
HETATM   22  C   UNL     1      43.687 -10.120   7.880  1.00  0.00     0.052 A 
BRANCH  21  23
HETATM   23  C   UNL     1      43.658  -8.086   9.430  1.00  0.00     0.106 C 
HETATM   24  C   UNL     1      43.469  -8.506  10.894  1.00  0.00     0.034 C 
BRANCH  23  25
HETATM   25  C   UNL     1      43.186  -6.641   9.174  1.00  0.00     0.022 C 
HETATM   26  C   UNL     1      42.600  -5.930  10.387  1.00  0.00     0.007 C 
ENDBRANCH  23  25
ENDBRANCH  21  23
BRANCH  22  27
HETATM   27  C   UNL     1      45.110 -10.573   8.223  1.00  0.00     0.038 A 
HETATM   28  C   UNL     1      46.112 -10.852   7.129  1.00  0.00     0.011 A 
HETATM   29  C   UNL     1      46.288  -9.656   8.005  1.00  0.00     0.011 A 
ENDBRANCH  22  27
ENDBRANCH   1  18
TORSDOF 8
ENDMDL
MODEL 5
REMARK VINA RESULT:      -7.7      1.810      3.120
REMARK  8 active torsions:
REMARK  status: ('A' for Active; 'I' for Inactive)
REMARK    1  A    between atoms: C_2  and  C_3 
REMARK    2  A    between atoms: C_3  and  N_4 
REMARK    3  A    between atoms: C_7  and  C_8 
REMARK       I    between atoms: C_8  and  N_9 
REMARK    4  A    between atoms: N_9  and  N_10 
REMARK       I    between atoms: N_10  and  C_11 
REMARK    5  A    between atoms: C_11  and  C_12 
REMARK    6  A    between atoms: C_12  and  O_13 
REMARK    7  A    between atoms: O_13  and  C_14 
REMARK    8  A    between atoms: C_23  and  C_24 
ROOT
HETATM    1  C   UNL     1      42.166 -12.571   6.159  1.00  0.00     0.273 C 
HETATM    2  N   UNL     1      43.298 -12.876   6.897  1.00  0.00    -0.263 N 
HETATM    3  O   UNL     1      41.607 -11.481   6.266  1.00  0.00    -0.266 OA
HETATM    4  H   UNL     1      43.581 -13.846   7.035  1.00  0.00     0.190 HD
ENDROOT
BRANCH   2   5
HETATM    5  N   UNL     1      43.700 -11.979   7.904  1.00  0.00    -0.265 N 
HETATM    6  C   UNL     1      44.856 -11.254   7.684  1.00  0.00     0.260 C 
HETATM    7  O   UNL     1      45.439 -11.262   6.598  1.00  0.00    -0.269 OA
HETATM    8  H   UNL     1      43.360 -12.182   8.843  1.00  0.00     0.190 HD
BRANCH   6   9
HETATM    9  C   UNL     1      45.333 -10.444   8.880  1.00  0.00     0.280 C 
BRANCH   9  10
HETATM   10  O   UNL     1      44.460 -10.707   9.972  1.00  0.00    -0.342 OA
BRANCH  10  11
HETATM   11  C   UNL     1      43.852  -9.616  10.532  1.00  0.00     0.069 A 
HETATM   12  C   UNL     1      43.428  -9.787  11.853  1.00  0.00     0.043 A 
HETATM   13  C   UNL     1      42.787  -8.749  12.544  1.00  0.00    -0.059 A 
HETATM   14  C   UNL     1      42.323  -8.933  13.958  1.00  0.00     0.048 C 
HETATM   15  C   UNL     1      42.597  -7.523  11.899  1.00  0.00     0.007 A 
HETATM   16  C   UNL     1      43.033  -7.343  10.586  1.00  0.00     0.003 A 
HETATM   17  C   UNL     1      43.661  -8.386   9.902  1.00  0.00     0.037 A 
ENDBRANCH  10  11
ENDBRANCH   9  10
ENDBRANCH   6   9
ENDBRANCH   2   5
BRANCH   1  18
HETATM   18  C   UNL     1      41.755 -13.633   5.257  1.00  0.00     0.077 A 
HETATM   19  C   UNL     1      40.915 -14.717   5.622  1.00  0.00     0.158 A 
HETATM   20  N   UNL     1      40.681 -15.562   4.625  1.00  0.00    -0.183 NA
HETATM   21  N   UNL     1      41.375 -15.045   3.594  1.00  0.00    -0.268 N 
HETATM   22  C   UNL     1      42.038 -13.874   3.915  1.00  0.00     0.052 A 
BRANCH  21  23
HETATM   23  C   UNL     1      41.391 -15.761   2.316  1.00  0.00     0.106 C 
HETATM   24  C   UNL     1      40.033 -15.768   1.600  1.00  0.00     0.034 C 
BRANCH  23  25
HETATM   25  C   UNL     1      41.980 -17.179   2.459  1.00  0.00     0.022 C 
HETATM   26  C   UNL     1      43.493 -17.236   2.627  1.00  0.00     0.007 C 
ENDBRANCH  23  25
ENDBRANCH  21  23
BRANCH  22  27
HETATM   27  C   UNL     1      42.862 -13.071   2.904  1.00  0.00     0.038 A 
HETATM   28  C   UNL     1      42.411 -11.701   2.460  1.00  0.00     0.011 A 
HETATM   29  C   UNL     1      43.618 -11.837   3.327  1.00  0.00     0.011 A 
ENDBRANCH  22  27
ENDBRANCH   1  18
TORSDOF 8
ENDMDL
MODEL 6
REMARK VINA RESULT:      -7.7      0.887      2.182
REMARK  8 active torsions:
REMARK  status: ('A' for Active; 'I' for Inactive)
REMARK    1  A    between atoms: C_2  and  C_3 
REMARK    2  A    between atoms: C_3  and  N_4 
REMARK    3  A    between atoms: C_7  and  C_8 
REMARK       I    between atoms: C_8  and  N_9 
REMARK    4  A    between atoms: N_9  and  N_10 
REMARK       I    between atoms: N_10  and  C_11 
REMARK    5  A    between atoms: C_11  and  C_12 
REMARK    6  A    between atoms: C_12  and  O_13 
REMARK    7  A    between atoms: O_13  and  C_14 
REMARK    8  A    between atoms: C_23  and  C_24 
ROOT
HETATM    1  C   UNL     1      42.715 -14.182   6.253  1.00  0.00     0.273 C 
HETATM    2  N   UNL     1      43.834 -13.532   6.748  1.00  0.00    -0.263 N 
HETATM    3  O   UNL     1      41.588 -13.713   6.396  1.00  0.00    -0.266 OA
HETATM    4  H   UNL     1      44.706 -14.040   6.895  1.00  0.00     0.190 HD
ENDROOT
BRANCH   2   5
HETATM    5  N   UNL     1      43.643 -12.408   7.572  1.00  0.00    -0.265 N 
HETATM    6  C   UNL     1      44.651 -11.462   7.599  1.00  0.00     0.260 C 
HETATM    7  O   UNL     1      45.610 -11.504   6.827  1.00  0.00    -0.269 OA
HETATM    8  H   UNL     1      42.995 -12.529   8.350  1.00  0.00     0.190 HD
BRANCH   6   9
HETATM    9  C   UNL     1      44.466 -10.369   8.642  1.00  0.00     0.280 C 
BRANCH   9  10
HETATM   10  O   UNL     1      44.182 -10.990   9.890  1.00  0.00    -0.342 OA
BRANCH  10  11
HETATM   11  C   UNL     1      43.608 -10.191  10.842  1.00  0.00     0.069 A 
HETATM   12  C   UNL     1      43.403  -8.863  10.455  1.00  0.00     0.043 A 
HETATM   13  C   UNL     1      42.826  -7.937  11.336  1.00  0.00    -0.059 A 
HETATM   14  C   UNL     1      42.613  -6.511  10.926  1.00  0.00     0.048 C 
HETATM   15  C   UNL     1      42.433  -8.367  12.607  1.00  0.00     0.007 A 
HETATM   16  C   UNL     1      42.620  -9.694  12.991  1.00  0.00     0.003 A 
HETATM   17  C   UNL     1      43.206 -10.607  12.111  1.00  0.00     0.037 A 
ENDBRANCH  10  11
ENDBRANCH   9  10
ENDBRANCH   6   9
ENDBRANCH   2   5
BRANCH   1  18
HETATM   18  C   UNL     1      43.022 -15.414   5.545  1.00  0.00     0.077 A 
HETATM   19  C   UNL     1      43.461 -16.609   6.169  1.00  0.00     0.158 A 
HETATM   20  N   UNL     1      43.679 -17.602   5.314  1.00  0.00    -0.183 NA
HETATM   21  N   UNL     1      43.393 -17.062   4.114  1.00  0.00    -0.268 N 
HETATM   22  C   UNL     1      42.983 -15.743   4.194  1.00  0.00     0.052 A 
BRANCH  21  23
HETATM   23  C   UNL     1      43.578 -17.871   2.907  1.00  0.00     0.106 C 
HETATM   24  C   UNL     1      42.286 -18.076   2.103  1.00  0.00     0.034 C 
BRANCH  23  25
HETATM   25  C   UNL     1      44.291 -19.203   3.211  1.00  0.00     0.022 C 
HETATM   26  C   UNL     1      43.678 -20.430   2.547  1.00  0.00     0.007 C 
ENDBRANCH  23  25
ENDBRANCH  21  23
BRANCH  22  27
HETATM   27  C   UNL     1      42.561 -14.920   2.972  1.00  0.00     0.038 A 
HETATM   28  C   UNL     1      43.120 -13.536   2.748  1.00  0.00     0.011 A 
HETATM   29  C   UNL     1      43.527 -14.654   1.846  1.00  0.00     0.011 A 
ENDBRANCH  22  27
ENDBRANCH   1  18
TORSDOF 8
ENDMDL
MODEL 7
REMARK VINA RESULT:      -7.4      1.676      2.338
REMARK  8 active torsions:
REMARK  status: ('A' for Active; 'I' for Inactive)
REMARK    1  A    between atoms: C_2  and  C_3 
REMARK    2  A    between atoms: C_3  and  N_4 
REMARK    3  A    between atoms: C_7  and  C_8 
REMARK       I    between atoms: C_8  and  N_9 
REMARK    4  A    between atoms: N_9  and  N_10 
REMARK       I    between atoms: N_10  and  C_11 
REMARK    5  A    between atoms: C_11  and  C_12 
REMARK    6  A    between atoms: C_12  and  O_13 
REMARK    7  A    between atoms: O_13  and  C_14 
REMARK    8  A    between atoms: C_23  and  C_24 
ROOT
HETATM    1  C   UNL     1      42.688 -12.119   6.144  1.00  0.00     0.273 C 
HETATM    2  N   UNL     1      43.826 -12.239   6.924  1.00  0.00    -0.263 N 
HETATM    3  O   UNL     1      41.781 -11.347   6.449  1.00  0.00    -0.266 OA
HETATM    4  H   UNL     1      44.423 -13.062   6.847  1.00  0.00     0.190 HD
ENDROOT
BRANCH   2   5
HETATM    5  N   UNL     1      43.852 -11.587   8.171  1.00  0.00    -0.265 N 
HETATM    6  C   UNL     1      44.865 -10.672   8.388  1.00  0.00     0.260 C 
HETATM    7  O   UNL     1      45.629 -10.313   7.490  1.00  0.00    -0.269 OA
HETATM    8  H   UNL     1      43.390 -12.073   8.939  1.00  0.00     0.190 HD
BRANCH   6   9
HETATM    9  C   UNL     1      44.945 -10.142   9.812  1.00  0.00     0.280 C 
BRANCH   9  10
HETATM   10  O   UNL     1      43.913  -9.178   9.985  1.00  0.00    -0.342 OA
BRANCH  10  11
HETATM   11  C   UNL     1      43.249  -9.217  11.182  1.00  0.00     0.069 A 
HETATM   12  C   UNL     1      43.553  -8.176  12.063  1.00  0.00     0.043 A 
HETATM   13  C   UNL     1      42.947  -8.099  13.325  1.00  0.00    -0.059 A 
HETATM   14  C   UNL     1      43.279  -6.988  14.275  1.00  0.00     0.048 C 
HETATM   15  C   UNL     1      42.006  -9.070  13.684  1.00  0.00     0.007 A 
HETATM   16  C   UNL     1      41.686 -10.101  12.800  1.00  0.00     0.003 A 
HETATM   17  C   UNL     1      42.304 -10.175  11.551  1.00  0.00     0.037 A 
ENDBRANCH  10  11
ENDBRANCH   9  10
ENDBRANCH   6   9
ENDBRANCH   2   5
BRANCH   1  18
HETATM   18  C   UNL     1      42.707 -12.953   4.954  1.00  0.00     0.077 A 
HETATM   19  C   UNL     1      43.240 -12.553   3.702  1.00  0.00     0.158 A 
HETATM   20  N   UNL     1      43.142 -13.488   2.764  1.00  0.00    -0.183 NA
HETATM   21  N   UNL     1      42.531 -14.511   3.390  1.00  0.00    -0.268 N 
HETATM   22  C   UNL     1      42.250 -14.247   4.719  1.00  0.00     0.052 A 
BRANCH  21  23
HETATM   23  C   UNL     1      42.204 -15.719   2.629  1.00  0.00     0.106 C 
HETATM   24  C   UNL     1      43.371 -16.711   2.523  1.00  0.00     0.034 C 
BRANCH  23  25
HETATM   25  C   UNL     1      41.599 -15.385   1.251  1.00  0.00     0.022 C 
HETATM   26  C   UNL     1      40.101 -15.103   1.256  1.00  0.00     0.007 C 
ENDBRANCH  23  25
ENDBRANCH  21  23
BRANCH  22  27
HETATM   27  C   UNL     1      41.597 -15.266   5.658  1.00  0.00     0.038 A 
HETATM   28  C   UNL     1      42.364 -16.475   6.133  1.00  0.00     0.011 A 
HETATM   29  C   UNL     1      42.032 -15.384   7.096  1.00  0.00     0.011 A 
ENDBRANCH  22  27
ENDBRANCH   1  18
TORSDOF 8
ENDMDL
MODEL 8
REMARK VINA RESULT:      -7.4      1.989      2.928
REMARK  8 active torsions:
REMARK  status: ('A' for Active; 'I' for Inactive)
REMARK    1  A    between atoms: C_2  and  C_3 
REMARK    2  A    between atoms: C_3  and  N_4 
REMARK    3  A    between atoms: C_7  and  C_8 
REMARK       I    between atoms: C_8  and  N_9 
REMARK    4  A    between atoms: N_9  and  N_10 
REMARK       I    between atoms: N_10  and  C_11 
REMARK    5  A    between atoms: C_11  and  C_12 
REMARK    6  A    between atoms: C_12  and  O_13 
REMARK    7  A    between atoms: O_13  and  C_14 
REMARK    8  A    between atoms: C_23  and  C_24 
ROOT
HETATM    1  C   UNL     1      43.593 -12.208   6.051  1.00  0.00     0.273 C 
HETATM    2  N   UNL     1      42.488 -11.691   6.708  1.00  0.00    -0.263 N 
HETATM    3  O   UNL     1      44.726 -12.089   6.513  1.00  0.00    -0.266 OA
HETATM    4  H   UNL     1      41.617 -11.524   6.206  1.00  0.00     0.190 HD
ENDROOT
BRANCH   2   5
HETATM    5  N   UNL     1      42.704 -10.873   7.833  1.00  0.00    -0.265 N 
HETATM    6  C   UNL     1      42.545  -9.510   7.666  1.00  0.00     0.260 C 
HETATM    7  O   UNL     1      42.086  -9.024   6.631  1.00  0.00    -0.269 OA
HETATM    8  H   UNL     1      43.303 -11.262   8.560  1.00  0.00     0.190 HD
BRANCH   6   9
HETATM    9  C   UNL     1      42.968  -8.672   8.864  1.00  0.00     0.280 C 
BRANCH   9  10
HETATM   10  O   UNL     1      43.394  -9.554   9.895  1.00  0.00    -0.342 OA
BRANCH  10  11
HETATM   11  C   UNL     1      42.927  -9.279  11.153  1.00  0.00     0.069 A 
HETATM   12  C   UNL     1      41.744  -9.936  11.502  1.00  0.00     0.043 A 
HETATM   13  C   UNL     1      41.155  -9.740  12.759  1.00  0.00    -0.059 A 
HETATM   14  C   UNL     1      39.881 -10.436  13.132  1.00  0.00     0.048 C 
HETATM   15  C   UNL     1      41.785  -8.893  13.676  1.00  0.00     0.007 A 
HETATM   16  C   UNL     1      42.975  -8.249  13.339  1.00  0.00     0.003 A 
HETATM   17  C   UNL     1      43.547  -8.441  12.080  1.00  0.00     0.037 A 
ENDBRANCH  10  11
ENDBRANCH   9  10
ENDBRANCH   6   9
ENDBRANCH   2   5
BRANCH   1  18
HETATM   18  C   UNL     1      43.264 -12.906   4.820  1.00  0.00     0.077 A 
HETATM   19  C   UNL     1      43.200 -12.293   3.542  1.00  0.00     0.158 A 
HETATM   20  N   UNL     1      42.878 -13.136   2.568  1.00  0.00    -0.183 NA
HETATM   21  N   UNL     1      42.717 -14.313   3.200  1.00  0.00    -0.268 N 
HETATM   22  C   UNL     1      42.945 -14.236   4.563  1.00  0.00     0.052 A 
BRANCH  21  23
HETATM   23  C   UNL     1      42.297 -15.485   2.428  1.00  0.00     0.106 C 
HETATM   24  C   UNL     1      43.425 -16.104   1.590  1.00  0.00     0.034 C 
BRANCH  23  25
HETATM   25  C   UNL     1      41.038 -15.197   1.585  1.00  0.00     0.022 C 
HETATM   26  C   UNL     1      39.739 -15.106   2.376  1.00  0.00     0.007 C 
ENDBRANCH  23  25
ENDBRANCH  21  23
BRANCH  22  27
HETATM   27  C   UNL     1      42.867 -15.447   5.497  1.00  0.00     0.038 A 
HETATM   28  C   UNL     1      43.936 -16.513   5.464  1.00  0.00     0.011 A 
HETATM   29  C   UNL     1      43.833 -15.604   6.644  1.00  0.00     0.011 A 
ENDBRANCH  22  27
ENDBRANCH   1  18
TORSDOF 8
ENDMDL
MODEL 9
REMARK VINA RESULT:      -7.2      1.676      2.243
REMARK  8 active torsions:
REMARK  status: ('A' for Active; 'I' for Inactive)
REMARK    1  A    between atoms: C_2  and  C_3 
REMARK    2  A    between atoms: C_3  and  N_4 
REMARK    3  A    between atoms: C_7  and  C_8 
REMARK       I    between atoms: C_8  and  N_9 
REMARK    4  A    between atoms: N_9  and  N_10 
REMARK       I    between atoms: N_10  and  C_11 
REMARK    5  A    between atoms: C_11  and  C_12 
REMARK    6  A    between atoms: C_12  and  O_13 
REMARK    7  A    between atoms: O_13  and  C_14 
REMARK    8  A    between atoms: C_23  and  C_24 
ROOT
HETATM    1  C   UNL     1      41.753 -14.977   5.015  1.00  0.00     0.273 C 
HETATM    2  N   UNL     1      42.311 -13.768   4.629  1.00  0.00    -0.263 N 
HETATM    3  O   UNL     1      40.913 -15.036   5.910  1.00  0.00    -0.266 OA
HETATM    4  H   UNL     1      43.193 -13.744   4.118  1.00  0.00     0.190 HD
ENDROOT
BRANCH   2   5
HETATM    5  N   UNL     1      42.026 -12.626   5.399  1.00  0.00    -0.265 N 
HETATM    6  C   UNL     1      43.037 -11.695   5.551  1.00  0.00     0.260 C 
HETATM    7  O   UNL     1      44.094 -11.766   4.922  1.00  0.00    -0.269 OA
HETATM    8  H   UNL     1      41.274 -12.722   6.081  1.00  0.00     0.190 HD
BRANCH   6   9
HETATM    9  C   UNL     1      42.728 -10.580   6.539  1.00  0.00     0.280 C 
BRANCH   9  10
HETATM   10  O   UNL     1      43.961 -10.033   6.991  1.00  0.00    -0.342 OA
BRANCH  10  11
HETATM   11  C   UNL     1      44.094  -9.889   8.346  1.00  0.00     0.069 A 
HETATM   12  C   UNL     1      42.893  -9.753   9.048  1.00  0.00     0.043 A 
HETATM   13  C   UNL     1      42.886  -9.595  10.441  1.00  0.00    -0.059 A 
HETATM   14  C   UNL     1      41.599  -9.439  11.194  1.00  0.00     0.048 C 
HETATM   15  C   UNL     1      44.104  -9.598  11.128  1.00  0.00     0.007 A 
HETATM   16  C   UNL     1      45.304  -9.751  10.434  1.00  0.00     0.003 A 
HETATM   17  C   UNL     1      45.301  -9.897   9.045  1.00  0.00     0.037 A 
ENDBRANCH  10  11
ENDBRANCH   9  10
ENDBRANCH   6   9
ENDBRANCH   2   5
BRANCH   1  18
HETATM   18  C   UNL     1      42.233 -16.112   4.246  1.00  0.00     0.077 A 
HETATM   19  C   UNL     1      41.704 -16.515   2.993  1.00  0.00     0.158 A 
HETATM   20  N   UNL     1      42.307 -17.584   2.485  1.00  0.00    -0.183 NA
HETATM   21  N   UNL     1      43.235 -17.900   3.407  1.00  0.00    -0.268 N 
HETATM   22  C   UNL     1      43.241 -17.040   4.492  1.00  0.00     0.052 A 
BRANCH  21  23
HETATM   23  C   UNL     1      44.069 -19.086   3.200  1.00  0.00     0.106 C 
HETATM   24  C   UNL     1      43.490 -20.072   2.176  1.00  0.00     0.034 C 
BRANCH  23  25
HETATM   25  C   UNL     1      44.429 -19.776   4.531  1.00  0.00     0.022 C 
HETATM   26  C   UNL     1      43.698 -21.086   4.797  1.00  0.00     0.007 C 
ENDBRANCH  23  25
ENDBRANCH  21  23
BRANCH  22  27
HETATM   27  C   UNL     1      44.231 -17.163   5.655  1.00  0.00     0.038 A 
HETATM   28  C   UNL     1      44.601 -15.954   6.479  1.00  0.00     0.011 A 
HETATM   29  C   UNL     1      43.766 -17.035   7.083  1.00  0.00     0.011 A 
ENDBRANCH  22  27
ENDBRANCH   1  18
TORSDOF 8
ENDMDL
MODEL 10
REMARK VINA RESULT:      -7.1      5.296      8.305
REMARK  8 active torsions:
REMARK  status: ('A' for Active; 'I' for Inactive)
REMARK    1  A    between atoms: C_2  and  C_3 
REMARK    2  A    between atoms: C_3  and  N_4 
REMARK    3  A    between atoms: C_7  and  C_8 
REMARK       I    between atoms: C_8  and  N_9 
REMARK    4  A    between atoms: N_9  and  N_10 
REMARK       I    between atoms: N_10  and  C_11 
REMARK    5  A    between atoms: C_11  and  C_12 
REMARK    6  A    between atoms: C_12  and  O_13 
REMARK    7  A    between atoms: O_13  and  C_14 
REMARK    8  A    between atoms: C_23  and  C_24 
ROOT
HETATM    1  C   UNL     1      41.524 -14.475   4.682  1.00  0.00     0.273 C 
HETATM    2  N   UNL     1      40.235 -14.542   4.180  1.00  0.00    -0.263 N 
HETATM    3  O   UNL     1      42.018 -13.407   5.036  1.00  0.00    -0.266 OA
HETATM    4  H   UNL     1      39.936 -15.343   3.622  1.00  0.00     0.190 HD
ENDROOT
BRANCH   2   5
HETATM    5  N   UNL     1      39.556 -13.337   3.919  1.00  0.00    -0.265 N 
HETATM    6  C   UNL     1      39.296 -13.029   2.597  1.00  0.00     0.260 C 
HETATM    7  O   UNL     1      39.500 -13.831   1.684  1.00  0.00    -0.269 OA
HETATM    8  H   UNL     1      39.634 -12.617   4.636  1.00  0.00     0.190 HD
BRANCH   6   9
HETATM    9  C   UNL     1      38.727 -11.636   2.372  1.00  0.00     0.280 C 
BRANCH   9  10
HETATM   10  O   UNL     1      39.502 -10.997   1.364  1.00  0.00    -0.342 OA
BRANCH  10  11
HETATM   11  C   UNL     1      39.128 -11.246   0.070  1.00  0.00     0.069 A 
HETATM   12  C   UNL     1      40.180 -11.519  -0.808  1.00  0.00     0.043 A 
HETATM   13  C   UNL     1      39.937 -11.787  -2.163  1.00  0.00    -0.059 A 
HETATM   14  C   UNL     1      41.064 -12.071  -3.109  1.00  0.00     0.048 C 
HETATM   15  C   UNL     1      38.616 -11.802  -2.623  1.00  0.00     0.007 A 
HETATM   16  C   UNL     1      37.562 -11.547  -1.746  1.00  0.00     0.003 A 
HETATM   17  C   UNL     1      37.816 -11.270  -0.401  1.00  0.00     0.037 A 
ENDBRANCH  10  11
ENDBRANCH   9  10
ENDBRANCH   6   9
ENDBRANCH   2   5
BRANCH   1  18
HETATM   18  C   UNL     1      42.185 -15.767   4.767  1.00  0.00     0.077 A 
HETATM   19  C   UNL     1      42.158 -16.608   5.909  1.00  0.00     0.158 A 
HETATM   20  N   UNL     1      42.837 -17.738   5.748  1.00  0.00    -0.183 NA
HETATM   21  N   UNL     1      43.326 -17.646   4.497  1.00  0.00    -0.268 N 
HETATM   22  C   UNL     1      42.957 -16.477   3.853  1.00  0.00     0.052 A 
BRANCH  21  23
HETATM   23  C   UNL     1      44.188 -18.714   3.989  1.00  0.00     0.106 C 
HETATM   24  C   UNL     1      43.675 -19.350   2.689  1.00  0.00     0.034 C 
BRANCH  23  25
HETATM   25  C   UNL     1      44.495 -19.769   5.070  1.00  0.00     0.022 C 
HETATM   26  C   UNL     1      43.822 -21.120   4.863  1.00  0.00     0.007 C 
ENDBRANCH  23  25
ENDBRANCH  21  23
BRANCH  22  27
HETATM   27  C   UNL     1      43.352 -16.155   2.409  1.00  0.00     0.038 A 
HETATM   28  C   UNL     1      42.301 -15.797   1.386  1.00  0.00     0.011 A 
HETATM   29  C   UNL     1      43.247 -14.750   1.872  1.00  0.00     0.011 A 
ENDBRANCH  22  27
ENDBRANCH   1  18
TORSDOF 8
ENDMDL
