MODEL 1
REMARK VINA RESULT:      -9.5      0.000      0.000
REMARK  8 active torsions:
REMARK  status: ('A' for Active; 'I' for Inactive)
REMARK    1  A    between atoms: C_7  and  C_8 
REMARK       I    between atoms: C_8  and  N_9 
REMARK    2  A    between atoms: N_9  and  N_10 
REMARK    3  A    between atoms: N_10  and  C_11 
REMARK    4  A    between atoms: C_11  and  N_12 
REMARK    5  A    between atoms: N_12  and  C_13 
REMARK    6  A    between atoms: N_15  and  C_16 
REMARK    7  A    between atoms: C_16  and  C_17 
REMARK    8  A    between atoms: C_29  and  C_30 
ROOT
HETATM    1  C   UNL     1      40.815 -13.646   2.435  1.00  0.00     0.290 C 
HETATM    2  N   UNL     1      39.817 -13.538   3.384  1.00  0.00    -0.262 N 
HETATM    3  O   UNL     1      41.938 -14.093   2.649  1.00  0.00    -0.264 OA
HETATM    4  H   UNL     1      38.890 -13.238   3.081  1.00  0.00     0.190 HD
ENDROOT
BRANCH   2   5
HETATM    5  N   UNL     1      39.967 -14.061   4.666  1.00  0.00    -0.273 N 
HETATM    6  H   UNL     1      39.962 -15.082   4.773  1.00  0.00     0.189 HD
BRANCH   5   7
HETATM    7  C   UNL     1      40.435 -13.295   5.700  1.00  0.00     0.192 C 
HETATM    8  S   UNL     1      39.717 -11.874   6.234  1.00  0.00    -0.039 SA
BRANCH   7   9
HETATM    9  N   UNL     1      41.570 -13.710   6.333  1.00  0.00    -0.315 N 
HETATM   10  H   UNL     1      42.058 -12.999   6.860  1.00  0.00     0.170 HD
BRANCH   9  11
HETATM   11  C   UNL     1      42.166 -14.952   6.273  1.00  0.00     0.151 A 
HETATM   12  N   UNL     1      43.297 -15.219   5.613  1.00  0.00    -0.154 NA
HETATM   13  N   UNL     1      43.517 -16.530   5.847  1.00  0.00    -0.275 N 
HETATM   14  C   UNL     1      42.554 -17.105   6.626  1.00  0.00     0.116 A 
HETATM   15  C   UNL     1      41.658 -16.105   6.915  1.00  0.00     0.071 A 
BRANCH  13  16
HETATM   16  C   UNL     1      44.646 -17.207   5.222  1.00  0.00     0.192 C 
BRANCH  16  17
HETATM   17  C   UNL     1      44.196 -18.313   4.310  1.00  0.00     0.000 A 
HETATM   18  C   UNL     1      43.661 -18.018   3.053  1.00  0.00     0.124 A 
HETATM   19  F   UNL     1      43.558 -16.741   2.657  1.00  0.00    -0.205 F 
HETATM   20  C   UNL     1      43.236 -19.025   2.191  1.00  0.00     0.043 A 
HETATM   21  C   UNL     1      43.342 -20.358   2.586  1.00  0.00     0.003 A 
HETATM   22  C   UNL     1      43.864 -20.672   3.841  1.00  0.00     0.001 A 
HETATM   23  C   UNL     1      44.285 -19.655   4.702  1.00  0.00     0.012 A 
ENDBRANCH  16  17
ENDBRANCH  13  16
ENDBRANCH   9  11
ENDBRANCH   7   9
ENDBRANCH   5   7
ENDBRANCH   2   5
BRANCH   1  24
HETATM   24  C   UNL     1      40.376 -13.154   1.118  1.00  0.00     0.150 A 
HETATM   25  N   UNL     1      39.459 -13.825   0.383  1.00  0.00    -0.165 NA
HETATM   26  N   UNL     1      39.333 -13.081  -0.726  1.00  0.00    -0.240 N 
HETATM   27  C   UNL     1      40.095 -11.946  -0.725  1.00  0.00     0.123 A 
HETATM   28  C   UNL     1      38.415 -13.446  -1.787  1.00  0.00     0.221 C 
HETATM   29  N   UNL     1      40.033 -11.054  -1.741  1.00  0.00    -0.371 N 
HETATM   30  C   UNL     1      40.801 -11.972   0.450  1.00  0.00     0.089 A 
HETATM   31  C   UNL     1      39.297 -11.369  -2.964  1.00  0.00     0.081 C 
HETATM   32  H   UNL     1      40.753 -10.336  -1.824  1.00  0.00     0.161 HD
HETATM   33  C   UNL     1      38.900 -10.071  -3.660  1.00  0.00     0.032 C 
HETATM   34  C   UNL     1      38.049 -12.197  -2.612  1.00  0.00     0.061 C 
BRANCH  28  35
HETATM   35  C   UNL     1      39.017 -14.541  -2.640  1.00  0.00     0.409 C 
HETATM   36  F   UNL     1      38.545 -14.539  -3.905  1.00  0.00    -0.169 F 
HETATM   37  F   UNL     1      40.362 -14.359  -2.734  1.00  0.00    -0.169 F 
HETATM   38  F   UNL     1      38.831 -15.777  -2.131  1.00  0.00    -0.169 F 
ENDBRANCH  28  35
ENDBRANCH   1  24
TORSDOF 8
ENDMDL
MODEL 2
REMARK VINA RESULT:      -9.4      1.982      2.614
REMARK  8 active torsions:
REMARK  status: ('A' for Active; 'I' for Inactive)
REMARK    1  A    between atoms: C_7  and  C_8 
REMARK       I    between atoms: C_8  and  N_9 
REMARK    2  A    between atoms: N_9  and  N_10 
REMARK    3  A    between atoms: N_10  and  C_11 
REMARK    4  A    between atoms: C_11  and  N_12 
REMARK    5  A    between atoms: N_12  and  C_13 
REMARK    6  A    between atoms: N_15  and  C_16 
REMARK    7  A    between atoms: C_16  and  C_17 
REMARK    8  A    between atoms: C_29  and  C_30 
ROOT
HETATM    1  C   UNL     1      42.334 -13.548   2.326  1.00  0.00     0.290 C 
HETATM    2  N   UNL     1      41.915 -12.660   3.297  1.00  0.00    -0.262 N 
HETATM    3  O   UNL     1      43.349 -14.235   2.397  1.00  0.00    -0.264 OA
HETATM    4  H   UNL     1      41.009 -12.205   3.182  1.00  0.00     0.190 HD
ENDROOT
BRANCH   2   5
HETATM    5  N   UNL     1      42.559 -12.565   4.529  1.00  0.00    -0.273 N 
HETATM    6  H   UNL     1      43.542 -12.271   4.537  1.00  0.00     0.189 HD
BRANCH   5   7
HETATM    7  C   UNL     1      41.855 -12.530   5.702  1.00  0.00     0.192 C 
HETATM    8  S   UNL     1      40.671 -11.397   6.070  1.00  0.00    -0.039 SA
BRANCH   7   9
HETATM    9  N   UNL     1      42.142 -13.476   6.643  1.00  0.00    -0.315 N 
HETATM   10  H   UNL     1      42.191 -13.140   7.595  1.00  0.00     0.170 HD
BRANCH   9  11
HETATM   11  C   UNL     1      42.450 -14.804   6.440  1.00  0.00     0.151 A 
HETATM   12  N   UNL     1      43.596 -15.245   5.913  1.00  0.00    -0.154 NA
HETATM   13  N   UNL     1      43.475 -16.590   5.928  1.00  0.00    -0.275 N 
HETATM   14  C   UNL     1      42.282 -17.014   6.439  1.00  0.00     0.116 A 
HETATM   15  C   UNL     1      41.591 -15.876   6.776  1.00  0.00     0.071 A 
BRANCH  13  16
HETATM   16  C   UNL     1      44.522 -17.427   5.358  1.00  0.00     0.192 C 
BRANCH  16  17
HETATM   17  C   UNL     1      44.009 -18.264   4.222  1.00  0.00     0.000 A 
HETATM   18  C   UNL     1      44.191 -19.649   4.227  1.00  0.00     0.124 A 
HETATM   19  F   UNL     1      44.821 -20.233   5.257  1.00  0.00    -0.205 F 
HETATM   20  C   UNL     1      43.726 -20.446   3.184  1.00  0.00     0.043 A 
HETATM   21  C   UNL     1      43.064 -19.855   2.109  1.00  0.00     0.003 A 
HETATM   22  C   UNL     1      42.881 -18.472   2.082  1.00  0.00     0.001 A 
HETATM   23  C   UNL     1      43.355 -17.678   3.130  1.00  0.00     0.012 A 
ENDBRANCH  16  17
ENDBRANCH  13  16
ENDBRANCH   9  11
ENDBRANCH   7   9
ENDBRANCH   5   7
ENDBRANCH   2   5
BRANCH   1  24
HETATM   24  C   UNL     1      41.415 -13.575   1.175  1.00  0.00     0.150 A 
HETATM   25  N   UNL     1      41.184 -12.470   0.429  1.00  0.00    -0.165 NA
HETATM   26  N   UNL     1      40.309 -12.889  -0.498  1.00  0.00    -0.240 N 
HETATM   27  C   UNL     1      39.993 -14.216  -0.407  1.00  0.00     0.123 A 
HETATM   28  C   UNL     1      39.806 -11.999  -1.527  1.00  0.00     0.221 C 
HETATM   29  N   UNL     1      39.175 -14.809  -1.307  1.00  0.00    -0.371 N 
HETATM   30  C   UNL     1      40.679 -14.689   0.681  1.00  0.00     0.089 A 
HETATM   31  C   UNL     1      38.446 -14.009  -2.290  1.00  0.00     0.081 C 
HETATM   32  H   UNL     1      38.788 -15.730  -1.104  1.00  0.00     0.161 HD
HETATM   33  C   UNL     1      38.087 -14.886  -3.486  1.00  0.00     0.032 C 
HETATM   34  C   UNL     1      39.318 -12.822  -2.734  1.00  0.00     0.061 C 
BRANCH  28  35
HETATM   35  C   UNL     1      38.720 -11.111  -0.959  1.00  0.00     0.409 C 
HETATM   36  F   UNL     1      38.054 -11.689   0.064  1.00  0.00    -0.169 F 
HETATM   37  F   UNL     1      39.274  -9.973  -0.461  1.00  0.00    -0.169 F 
HETATM   38  F   UNL     1      37.811 -10.726  -1.880  1.00  0.00    -0.169 F 
ENDBRANCH  28  35
ENDBRANCH   1  24
TORSDOF 8
ENDMDL
MODEL 3
REMARK VINA RESULT:      -9.3      3.160      7.350
REMARK  8 active torsions:
REMARK  status: ('A' for Active; 'I' for Inactive)
REMARK    1  A    between atoms: C_7  and  C_8 
REMARK       I    between atoms: C_8  and  N_9 
REMARK    2  A    between atoms: N_9  and  N_10 
REMARK    3  A    between atoms: N_10  and  C_11 
REMARK    4  A    between atoms: C_11  and  N_12 
REMARK    5  A    between atoms: N_12  and  C_13 
REMARK    6  A    between atoms: N_15  and  C_16 
REMARK    7  A    between atoms: C_16  and  C_17 
REMARK    8  A    between atoms: C_29  and  C_30 
ROOT
HETATM    1  C   UNL     1      42.278 -14.087   6.501  1.00  0.00     0.290 C 
HETATM    2  N   UNL     1      43.317 -13.417   7.116  1.00  0.00    -0.262 N 
HETATM    3  O   UNL     1      41.140 -13.643   6.370  1.00  0.00    -0.264 OA
HETATM    4  H   UNL     1      44.247 -13.836   7.091  1.00  0.00     0.190 HD
ENDROOT
BRANCH   2   5
HETATM    5  N   UNL     1      43.190 -12.094   7.534  1.00  0.00    -0.273 N 
HETATM    6  H   UNL     1      42.499 -11.884   8.263  1.00  0.00     0.189 HD
BRANCH   5   7
HETATM    7  C   UNL     1      44.152 -11.162   7.253  1.00  0.00     0.192 C 
HETATM    8  S   UNL     1      45.162 -10.459   8.397  1.00  0.00    -0.039 SA
BRANCH   7   9
HETATM    9  N   UNL     1      44.293 -10.767   5.955  1.00  0.00    -0.315 N 
HETATM   10  H   UNL     1      44.954 -10.019   5.798  1.00  0.00     0.170 HD
BRANCH   9  11
HETATM   11  C   UNL     1      43.587 -11.208   4.856  1.00  0.00     0.151 A 
HETATM   12  N   UNL     1      42.265 -11.088   4.705  1.00  0.00    -0.154 NA
HETATM   13  N   UNL     1      42.018 -11.623   3.490  1.00  0.00    -0.275 N 
HETATM   14  C   UNL     1      43.142 -12.090   2.872  1.00  0.00     0.116 A 
HETATM   15  C   UNL     1      44.179 -11.840   3.738  1.00  0.00     0.071 A 
BRANCH  13  16
HETATM   16  C   UNL     1      40.650 -11.732   3.001  1.00  0.00     0.192 C 
BRANCH  16  17
HETATM   17  C   UNL     1      40.417 -13.029   2.281  1.00  0.00     0.000 A 
HETATM   18  C   UNL     1      40.530 -13.095   0.890  1.00  0.00     0.124 A 
HETATM   19  F   UNL     1      40.857 -11.994   0.197  1.00  0.00    -0.205 F 
HETATM   20  C   UNL     1      40.318 -14.285   0.200  1.00  0.00     0.043 A 
HETATM   21  C   UNL     1      39.984 -15.439   0.907  1.00  0.00     0.003 A 
HETATM   22  C   UNL     1      39.857 -15.391   2.296  1.00  0.00     0.001 A 
HETATM   23  C   UNL     1      40.067 -14.192   2.981  1.00  0.00     0.012 A 
ENDBRANCH  16  17
ENDBRANCH  13  16
ENDBRANCH   9  11
ENDBRANCH   7   9
ENDBRANCH   5   7
ENDBRANCH   2   5
BRANCH   1  24
HETATM   24  C   UNL     1      42.690 -15.415   6.016  1.00  0.00     0.150 A 
HETATM   25  N   UNL     1      43.234 -15.581   4.788  1.00  0.00    -0.165 NA
HETATM   26  N   UNL     1      43.464 -16.901   4.718  1.00  0.00    -0.240 N 
HETATM   27  C   UNL     1      43.129 -17.587   5.852  1.00  0.00     0.123 A 
HETATM   28  C   UNL     1      44.070 -17.507   3.548  1.00  0.00     0.221 C 
HETATM   29  N   UNL     1      43.360 -18.915   5.968  1.00  0.00    -0.371 N 
HETATM   30  C   UNL     1      42.605 -16.655   6.710  1.00  0.00     0.089 A 
HETATM   31  C   UNL     1      43.794 -19.698   4.812  1.00  0.00     0.081 C 
HETATM   32  H   UNL     1      42.917 -19.439   6.722  1.00  0.00     0.161 HD
HETATM   33  C   UNL     1      44.512 -20.954   5.296  1.00  0.00     0.032 C 
HETATM   34  C   UNL     1      44.727 -18.845   3.936  1.00  0.00     0.061 C 
BRANCH  28  35
HETATM   35  C   UNL     1      43.037 -17.669   2.454  1.00  0.00     0.409 C 
HETATM   36  F   UNL     1      43.151 -16.737   1.484  1.00  0.00    -0.169 F 
HETATM   37  F   UNL     1      43.201 -18.876   1.847  1.00  0.00    -0.169 F 
HETATM   38  F   UNL     1      41.767 -17.638   2.911  1.00  0.00    -0.169 F 
ENDBRANCH  28  35
ENDBRANCH   1  24
TORSDOF 8
ENDMDL
MODEL 4
REMARK VINA RESULT:      -9.2      5.780      9.191
REMARK  8 active torsions:
REMARK  status: ('A' for Active; 'I' for Inactive)
REMARK    1  A    between atoms: C_7  and  C_8 
REMARK       I    between atoms: C_8  and  N_9 
REMARK    2  A    between atoms: N_9  and  N_10 
REMARK    3  A    between atoms: N_10  and  C_11 
REMARK    4  A    between atoms: C_11  and  N_12 
REMARK    5  A    between atoms: N_12  and  C_13 
REMARK    6  A    between atoms: N_15  and  C_16 
REMARK    7  A    between atoms: C_16  and  C_17 
REMARK    8  A    between atoms: C_29  and  C_30 
ROOT
HETATM    1  C   UNL     1      43.074 -12.834   6.647  1.00  0.00     0.290 C 
HETATM    2  N   UNL     1      42.000 -12.000   6.407  1.00  0.00    -0.262 N 
HETATM    3  O   UNL     1      43.935 -12.639   7.501  1.00  0.00    -0.264 OA
HETATM    4  H   UNL     1      41.291 -12.301   5.737  1.00  0.00     0.190 HD
ENDROOT
BRANCH   2   5
HETATM    5  N   UNL     1      41.727 -10.905   7.224  1.00  0.00    -0.273 N 
HETATM    6  H   UNL     1      41.463 -11.085   8.199  1.00  0.00     0.189 HD
BRANCH   5   7
HETATM    7  C   UNL     1      42.110  -9.639   6.871  1.00  0.00     0.192 C 
HETATM    8  S   UNL     1      41.452  -8.763   5.598  1.00  0.00    -0.039 SA
BRANCH   7   9
HETATM    9  N   UNL     1      43.103  -9.051   7.600  1.00  0.00    -0.315 N 
HETATM   10  H   UNL     1      43.569  -8.274   7.151  1.00  0.00     0.170 HD
BRANCH   9  11
HETATM   11  C   UNL     1      43.594  -9.439   8.828  1.00  0.00     0.151 A 
HETATM   12  N   UNL     1      42.836  -9.784   9.873  1.00  0.00    -0.154 NA
HETATM   13  N   UNL     1      43.724 -10.111  10.836  1.00  0.00    -0.275 N 
HETATM   14  C   UNL     1      45.023  -9.972  10.436  1.00  0.00     0.116 A 
HETATM   15  C   UNL     1      44.971  -9.532   9.136  1.00  0.00     0.071 A 
BRANCH  13  16
HETATM   16  C   UNL     1      43.261 -10.480  12.167  1.00  0.00     0.192 C 
BRANCH  16  17
HETATM   17  C   UNL     1      42.644  -9.314  12.885  1.00  0.00     0.000 A 
HETATM   18  C   UNL     1      41.328  -9.386  13.349  1.00  0.00     0.124 A 
HETATM   19  F   UNL     1      40.616 -10.507  13.158  1.00  0.00    -0.205 F 
HETATM   20  C   UNL     1      40.734  -8.318  14.016  1.00  0.00     0.043 A 
HETATM   21  C   UNL     1      41.463  -7.148  14.227  1.00  0.00     0.003 A 
HETATM   22  C   UNL     1      42.775  -7.054  13.762  1.00  0.00     0.001 A 
HETATM   23  C   UNL     1      43.363  -8.129  13.090  1.00  0.00     0.012 A 
ENDBRANCH  16  17
ENDBRANCH  13  16
ENDBRANCH   9  11
ENDBRANCH   7   9
ENDBRANCH   5   7
ENDBRANCH   2   5
BRANCH   1  24
HETATM   24  C   UNL     1      43.075 -14.001   5.748  1.00  0.00     0.150 A 
HETATM   25  N   UNL     1      42.535 -13.938   4.509  1.00  0.00    -0.165 NA
HETATM   26  N   UNL     1      42.722 -15.173   4.018  1.00  0.00    -0.240 N 
HETATM   27  C   UNL     1      43.386 -16.016   4.865  1.00  0.00     0.123 A 
HETATM   28  C   UNL     1      42.296 -15.532   2.679  1.00  0.00     0.221 C 
HETATM   29  N   UNL     1      43.711 -17.276   4.494  1.00  0.00    -0.371 N 
HETATM   30  C   UNL     1      43.613 -15.293   6.007  1.00  0.00     0.089 A 
HETATM   31  C   UNL     1      43.192 -17.843   3.251  1.00  0.00     0.081 C 
HETATM   32  H   UNL     1      44.010 -17.947   5.202  1.00  0.00     0.161 HD
HETATM   33  C   UNL     1      44.111 -18.970   2.790  1.00  0.00     0.032 C 
HETATM   34  C   UNL     1      43.108 -16.742   2.180  1.00  0.00     0.061 C 
BRANCH  28  35
HETATM   35  C   UNL     1      40.806 -15.793   2.662  1.00  0.00     0.409 C 
HETATM   36  F   UNL     1      40.078 -14.669   2.491  1.00  0.00    -0.169 F 
HETATM   37  F   UNL     1      40.497 -16.611   1.619  1.00  0.00    -0.169 F 
HETATM   38  F   UNL     1      40.359 -16.408   3.777  1.00  0.00    -0.169 F 
ENDBRANCH  28  35
ENDBRANCH   1  24
TORSDOF 8
ENDMDL
MODEL 5
REMARK VINA RESULT:      -9.2      6.678     10.318
REMARK  8 active torsions:
REMARK  status: ('A' for Active; 'I' for Inactive)
REMARK    1  A    between atoms: C_7  and  C_8 
REMARK       I    between atoms: C_8  and  N_9 
REMARK    2  A    between atoms: N_9  and  N_10 
REMARK    3  A    between atoms: N_10  and  C_11 
REMARK    4  A    between atoms: C_11  and  N_12 
REMARK    5  A    between atoms: N_12  and  C_13 
REMARK    6  A    between atoms: N_15  and  C_16 
REMARK    7  A    between atoms: C_16  and  C_17 
REMARK    8  A    between atoms: C_29  and  C_30 
ROOT
HETATM    1  C   UNL     1      44.201 -10.598   9.389  1.00  0.00     0.290 C 
HETATM    2  N   UNL     1      43.216 -10.921   8.477  1.00  0.00    -0.262 N 
HETATM    3  O   UNL     1      45.395 -10.850   9.248  1.00  0.00    -0.264 OA
HETATM    4  H   UNL     1      42.267 -10.586   8.647  1.00  0.00     0.190 HD
ENDROOT
BRANCH   2   5
HETATM    5  N   UNL     1      43.522 -11.457   7.228  1.00  0.00    -0.273 N 
HETATM    6  H   UNL     1      44.511 -11.602   6.995  1.00  0.00     0.189 HD
BRANCH   5   7
HETATM    7  C   UNL     1      42.571 -12.082   6.467  1.00  0.00     0.192 C 
HETATM    8  S   UNL     1      41.653 -11.328   5.280  1.00  0.00    -0.039 SA
BRANCH   7   9
HETATM    9  N   UNL     1      42.347 -13.409   6.696  1.00  0.00    -0.315 N 
HETATM   10  H   UNL     1      42.333 -13.685   7.668  1.00  0.00     0.170 HD
BRANCH   9  11
HETATM   11  C   UNL     1      42.219 -14.417   5.765  1.00  0.00     0.151 A 
HETATM   12  N   UNL     1      43.138 -14.719   4.843  1.00  0.00    -0.154 NA
HETATM   13  N   UNL     1      42.611 -15.771   4.179  1.00  0.00    -0.275 N 
HETATM   14  C   UNL     1      41.381 -16.137   4.646  1.00  0.00     0.116 A 
HETATM   15  C   UNL     1      41.096 -15.272   5.674  1.00  0.00     0.071 A 
BRANCH  13  16
HETATM   16  C   UNL     1      43.311 -16.343   3.037  1.00  0.00     0.192 C 
BRANCH  16  17
HETATM   17  C   UNL     1      43.487 -17.828   3.179  1.00  0.00     0.000 A 
HETATM   18  C   UNL     1      44.144 -18.359   4.292  1.00  0.00     0.124 A 
HETATM   19  F   UNL     1      44.611 -17.536   5.243  1.00  0.00    -0.205 F 
HETATM   20  C   UNL     1      44.320 -19.731   4.444  1.00  0.00     0.043 A 
HETATM   21  C   UNL     1      43.834 -20.599   3.468  1.00  0.00     0.003 A 
HETATM   22  C   UNL     1      43.184 -20.088   2.344  1.00  0.00     0.001 A 
HETATM   23  C   UNL     1      43.015 -18.709   2.196  1.00  0.00     0.012 A 
ENDBRANCH  16  17
ENDBRANCH  13  16
ENDBRANCH   9  11
ENDBRANCH   7   9
ENDBRANCH   5   7
ENDBRANCH   2   5
BRANCH   1  24
HETATM   24  C   UNL     1      43.652  -9.913  10.571  1.00  0.00     0.150 A 
HETATM   25  N   UNL     1      42.503 -10.325  11.156  1.00  0.00    -0.165 NA
HETATM   26  N   UNL     1      42.337  -9.464  12.172  1.00  0.00    -0.240 N 
HETATM   27  C   UNL     1      43.339  -8.541  12.291  1.00  0.00     0.123 A 
HETATM   28  C   UNL     1      41.211  -9.567  13.080  1.00  0.00     0.221 C 
HETATM   29  N   UNL     1      43.355  -7.644  13.303  1.00  0.00    -0.371 N 
HETATM   30  C   UNL     1      44.201  -8.792  11.255  1.00  0.00     0.089 A 
HETATM   31  C   UNL     1      42.201  -7.502  14.190  1.00  0.00     0.081 C 
HETATM   32  H   UNL     1      43.983  -6.842  13.254  1.00  0.00     0.161 HD
HETATM   33  C   UNL     1      42.656  -6.900  15.516  1.00  0.00     0.032 C 
HETATM   34  C   UNL     1      41.555  -8.880  14.416  1.00  0.00     0.061 C 
BRANCH  28  35
HETATM   35  C   UNL     1      39.971  -8.986  12.437  1.00  0.00     0.409 C 
HETATM   36  F   UNL     1      40.255  -8.065  11.491  1.00  0.00    -0.169 F 
HETATM   37  F   UNL     1      39.274  -9.973  11.813  1.00  0.00    -0.169 F 
HETATM   38  F   UNL     1      39.126  -8.419  13.325  1.00  0.00    -0.169 F 
ENDBRANCH  28  35
ENDBRANCH   1  24
TORSDOF 8
ENDMDL
MODEL 6
REMARK VINA RESULT:      -9.0      4.604      8.290
REMARK  8 active torsions:
REMARK  status: ('A' for Active; 'I' for Inactive)
REMARK    1  A    between atoms: C_7  and  C_8 
REMARK       I    between atoms: C_8  and  N_9 
REMARK    2  A    between atoms: N_9  and  N_10 
REMARK    3  A    between atoms: N_10  and  C_11 
REMARK    4  A    between atoms: C_11  and  N_12 
REMARK    5  A    between atoms: N_12  and  C_13 
REMARK    6  A    between atoms: N_15  and  C_16 
REMARK    7  A    between atoms: C_16  and  C_17 
REMARK    8  A    between atoms: C_29  and  C_30 
ROOT
HETATM    1  C   UNL     1      40.247 -14.588   3.115  1.00  0.00     0.290 C 
HETATM    2  N   UNL     1      39.761 -13.727   4.079  1.00  0.00    -0.262 N 
HETATM    3  O   UNL     1      39.950 -14.543   1.924  1.00  0.00    -0.264 OA
HETATM    4  H   UNL     1      40.141 -13.793   5.024  1.00  0.00     0.190 HD
ENDROOT
BRANCH   2   5
HETATM    5  N   UNL     1      38.975 -12.626   3.748  1.00  0.00    -0.273 N 
HETATM    6  H   UNL     1      37.963 -12.767   3.653  1.00  0.00     0.189 HD
BRANCH   5   7
HETATM    7  C   UNL     1      39.450 -11.348   3.871  1.00  0.00     0.192 C 
HETATM    8  S   UNL     1      38.603 -10.080   4.577  1.00  0.00    -0.039 SA
BRANCH   7   9
HETATM    9  N   UNL     1      40.694 -11.082   3.376  1.00  0.00    -0.315 N 
HETATM   10  H   UNL     1      40.715 -10.688   2.446  1.00  0.00     0.170 HD
BRANCH   9  11
HETATM   11  C   UNL     1      41.912 -11.362   3.958  1.00  0.00     0.151 A 
HETATM   12  N   UNL     1      42.076 -11.751   5.226  1.00  0.00    -0.154 NA
HETATM   13  N   UNL     1      43.408 -11.934   5.349  1.00  0.00    -0.275 N 
HETATM   14  C   UNL     1      44.094 -11.662   4.200  1.00  0.00     0.116 A 
HETATM   15  C   UNL     1      43.149 -11.282   3.278  1.00  0.00     0.071 A 
BRANCH  13  16
HETATM   16  C   UNL     1      43.982 -12.302   6.636  1.00  0.00     0.192 C 
BRANCH  16  17
HETATM   17  C   UNL     1      44.507 -11.103   7.374  1.00  0.00     0.000 A 
HETATM   18  C   UNL     1      45.844 -10.721   7.239  1.00  0.00     0.124 A 
HETATM   19  F   UNL     1      46.659 -11.425   6.438  1.00  0.00    -0.205 F 
HETATM   20  C   UNL     1      46.355  -9.616   7.913  1.00  0.00     0.043 A 
HETATM   21  C   UNL     1      45.520  -8.871   8.745  1.00  0.00     0.003 A 
HETATM   22  C   UNL     1      44.184  -9.243   8.900  1.00  0.00     0.001 A 
HETATM   23  C   UNL     1      43.679 -10.357   8.223  1.00  0.00     0.012 A 
ENDBRANCH  16  17
ENDBRANCH  13  16
ENDBRANCH   9  11
ENDBRANCH   7   9
ENDBRANCH   5   7
ENDBRANCH   2   5
BRANCH   1  24
HETATM   24  C   UNL     1      41.170 -15.586   3.683  1.00  0.00     0.150 A 
HETATM   25  N   UNL     1      41.322 -15.725   5.020  1.00  0.00    -0.165 NA
HETATM   26  N   UNL     1      42.230 -16.706   5.136  1.00  0.00    -0.240 N 
HETATM   27  C   UNL     1      42.643 -17.229   3.942  1.00  0.00     0.123 A 
HETATM   28  C   UNL     1      42.671 -17.186   6.432  1.00  0.00     0.221 C 
HETATM   29  N   UNL     1      43.506 -18.269   3.887  1.00  0.00    -0.371 N 
HETATM   30  C   UNL     1      41.988 -16.510   2.975  1.00  0.00     0.089 A 
HETATM   31  C   UNL     1      44.179 -18.742   5.096  1.00  0.00     0.081 C 
HETATM   32  H   UNL     1      43.959 -18.501   3.003  1.00  0.00     0.161 HD
HETATM   33  C   UNL     1      44.607 -20.193   4.899  1.00  0.00     0.032 C 
HETATM   34  C   UNL     1      43.224 -18.618   6.296  1.00  0.00     0.061 C 
BRANCH  28  35
HETATM   35  C   UNL     1      43.687 -16.232   7.020  1.00  0.00     0.409 C 
HETATM   36  F   UNL     1      43.123 -15.282   7.797  1.00  0.00    -0.169 F 
HETATM   37  F   UNL     1      44.549 -16.917   7.818  1.00  0.00    -0.169 F 
HETATM   38  F   UNL     1      44.438 -15.609   6.087  1.00  0.00    -0.169 F 
ENDBRANCH  28  35
ENDBRANCH   1  24
TORSDOF 8
ENDMDL
MODEL 7
REMARK VINA RESULT:      -8.9      2.288      7.649
REMARK  8 active torsions:
REMARK  status: ('A' for Active; 'I' for Inactive)
REMARK    1  A    between atoms: C_7  and  C_8 
REMARK       I    between atoms: C_8  and  N_9 
REMARK    2  A    between atoms: N_9  and  N_10 
REMARK    3  A    between atoms: N_10  and  C_11 
REMARK    4  A    between atoms: C_11  and  N_12 
REMARK    5  A    between atoms: N_12  and  C_13 
REMARK    6  A    between atoms: N_15  and  C_16 
REMARK    7  A    between atoms: C_16  and  C_17 
REMARK    8  A    between atoms: C_29  and  C_30 
ROOT
HETATM    1  C   UNL     1      42.914 -13.831   6.599  1.00  0.00     0.290 C 
HETATM    2  N   UNL     1      41.741 -13.285   6.116  1.00  0.00    -0.262 N 
HETATM    3  O   UNL     1      43.693 -13.258   7.356  1.00  0.00    -0.264 OA
HETATM    4  H   UNL     1      41.120 -13.879   5.566  1.00  0.00     0.190 HD
ENDROOT
BRANCH   2   5
HETATM    5  N   UNL     1      41.269 -12.053   6.563  1.00  0.00    -0.273 N 
HETATM    6  H   UNL     1      41.946 -11.392   6.959  1.00  0.00     0.189 HD
BRANCH   5   7
HETATM    7  C   UNL     1      40.035 -11.587   6.197  1.00  0.00     0.192 C 
HETATM    8  S   UNL     1      39.284 -10.245   6.874  1.00  0.00    -0.039 SA
BRANCH   7   9
HETATM    9  N   UNL     1      39.363 -12.266   5.222  1.00  0.00    -0.315 N 
HETATM   10  H   UNL     1      38.662 -12.916   5.550  1.00  0.00     0.170 HD
BRANCH   9  11
HETATM   11  C   UNL     1      39.583 -12.229   3.862  1.00  0.00     0.151 A 
HETATM   12  N   UNL     1      40.535 -12.922   3.229  1.00  0.00    -0.154 NA
HETATM   13  N   UNL     1      40.367 -12.606   1.927  1.00  0.00    -0.275 N 
HETATM   14  C   UNL     1      39.344 -11.724   1.717  1.00  0.00     0.116 A 
HETATM   15  C   UNL     1      38.819 -11.456   2.958  1.00  0.00     0.071 A 
BRANCH  13  16
HETATM   16  C   UNL     1      41.282 -13.128   0.921  1.00  0.00     0.192 C 
BRANCH  16  17
HETATM   17  C   UNL     1      40.586 -13.383  -0.386  1.00  0.00     0.000 A 
HETATM   18  C   UNL     1      40.753 -12.503  -1.458  1.00  0.00     0.124 A 
HETATM   19  F   UNL     1      41.547 -11.431  -1.321  1.00  0.00    -0.205 F 
HETATM   20  C   UNL     1      40.117 -12.717  -2.678  1.00  0.00     0.043 A 
HETATM   21  C   UNL     1      39.294 -13.830  -2.838  1.00  0.00     0.003 A 
HETATM   22  C   UNL     1      39.106 -14.714  -1.775  1.00  0.00     0.001 A 
HETATM   23  C   UNL     1      39.744 -14.491  -0.553  1.00  0.00     0.012 A 
ENDBRANCH  16  17
ENDBRANCH  13  16
ENDBRANCH   9  11
ENDBRANCH   7   9
ENDBRANCH   5   7
ENDBRANCH   2   5
BRANCH   1  24
HETATM   24  C   UNL     1      43.133 -15.198   6.094  1.00  0.00     0.150 A 
HETATM   25  N   UNL     1      43.429 -15.431   4.795  1.00  0.00    -0.165 NA
HETATM   26  N   UNL     1      43.545 -16.766   4.731  1.00  0.00    -0.240 N 
HETATM   27  C   UNL     1      43.374 -17.400   5.930  1.00  0.00     0.123 A 
HETATM   28  C   UNL     1      43.881 -17.442   3.492  1.00  0.00     0.221 C 
HETATM   29  N   UNL     1      43.524 -18.740   6.048  1.00  0.00    -0.371 N 
HETATM   30  C   UNL     1      43.085 -16.412   6.835  1.00  0.00     0.089 A 
HETATM   31  C   UNL     1      43.681 -19.578   4.861  1.00  0.00     0.081 C 
HETATM   32  H   UNL     1      43.188 -19.211   6.887  1.00  0.00     0.161 HD
HETATM   33  C   UNL     1      44.381 -20.876   5.250  1.00  0.00     0.032 C 
HETATM   34  C   UNL     1      44.498 -18.819   3.801  1.00  0.00     0.061 C 
BRANCH  28  35
HETATM   35  C   UNL     1      42.657 -17.546   2.609  1.00  0.00     0.409 C 
HETATM   36  F   UNL     1      41.516 -17.224   3.257  1.00  0.00    -0.169 F 
HETATM   37  F   UNL     1      42.767 -16.674   1.571  1.00  0.00    -0.169 F 
HETATM   38  F   UNL     1      42.493 -18.771   2.067  1.00  0.00    -0.169 F 
ENDBRANCH  28  35
ENDBRANCH   1  24
TORSDOF 8
ENDMDL
MODEL 8
REMARK VINA RESULT:      -8.8      5.986      9.347
REMARK  8 active torsions:
REMARK  status: ('A' for Active; 'I' for Inactive)
REMARK    1  A    between atoms: C_7  and  C_8 
REMARK       I    between atoms: C_8  and  N_9 
REMARK    2  A    between atoms: N_9  and  N_10 
REMARK    3  A    between atoms: N_10  and  C_11 
REMARK    4  A    between atoms: C_11  and  N_12 
REMARK    5  A    between atoms: N_12  and  C_13 
REMARK    6  A    between atoms: N_15  and  C_16 
REMARK    7  A    between atoms: C_16  and  C_17 
REMARK    8  A    between atoms: C_29  and  C_30 
ROOT
HETATM    1  C   UNL     1      43.249 -12.591   6.199  1.00  0.00     0.290 C 
HETATM    2  N   UNL     1      42.046 -11.935   6.370  1.00  0.00    -0.262 N 
HETATM    3  O   UNL     1      44.318 -12.227   6.682  1.00  0.00    -0.264 OA
HETATM    4  H   UNL     1      41.199 -12.371   6.002  1.00  0.00     0.190 HD
ENDROOT
BRANCH   2   5
HETATM    5  N   UNL     1      41.919 -10.850   7.234  1.00  0.00    -0.273 N 
HETATM    6  H   UNL     1      42.504 -10.835   8.077  1.00  0.00     0.189 HD
BRANCH   5   7
HETATM    7  C   UNL     1      41.308  -9.691   6.839  1.00  0.00     0.192 C 
HETATM    8  S   UNL     1      41.224  -9.151   5.251  1.00  0.00    -0.039 SA
BRANCH   7   9
HETATM    9  N   UNL     1      40.737  -8.914   7.804  1.00  0.00    -0.315 N 
HETATM   10  H   UNL     1      40.401  -8.013   7.493  1.00  0.00     0.170 HD
BRANCH   9  11
HETATM   11  C   UNL     1      40.640  -9.177   9.154  1.00  0.00     0.151 A 
HETATM   12  N   UNL     1      41.665  -9.537   9.932  1.00  0.00    -0.154 NA
HETATM   13  N   UNL     1      41.122  -9.661  11.162  1.00  0.00    -0.275 N 
HETATM   14  C   UNL     1      39.782  -9.402  11.185  1.00  0.00     0.116 A 
HETATM   15  C   UNL     1      39.437  -9.089   9.892  1.00  0.00     0.071 A 
BRANCH  13  16
HETATM   16  C   UNL     1      41.937 -10.115  12.281  1.00  0.00     0.192 C 
BRANCH  16  17
HETATM   17  C   UNL     1      42.110  -9.039  13.316  1.00  0.00     0.000 A 
HETATM   18  C   UNL     1      43.132  -8.095  13.189  1.00  0.00     0.124 A 
HETATM   19  F   UNL     1      43.957  -8.145  12.133  1.00  0.00    -0.205 F 
HETATM   20  C   UNL     1      43.313  -7.090  14.136  1.00  0.00     0.043 A 
HETATM   21  C   UNL     1      42.460  -7.021  15.236  1.00  0.00     0.003 A 
HETATM   22  C   UNL     1      41.440  -7.961  15.385  1.00  0.00     0.001 A 
HETATM   23  C   UNL     1      41.267  -8.969  14.433  1.00  0.00     0.012 A 
ENDBRANCH  16  17
ENDBRANCH  13  16
ENDBRANCH   9  11
ENDBRANCH   7   9
ENDBRANCH   5   7
ENDBRANCH   2   5
BRANCH   1  24
HETATM   24  C   UNL     1      43.107 -13.791   5.357  1.00  0.00     0.150 A 
HETATM   25  N   UNL     1      42.561 -13.725   4.121  1.00  0.00    -0.165 NA
HETATM   26  N   UNL     1      42.601 -14.994   3.687  1.00  0.00    -0.240 N 
HETATM   27  C   UNL     1      43.178 -15.866   4.568  1.00  0.00     0.123 A 
HETATM   28  C   UNL     1      42.119 -15.364   2.370  1.00  0.00     0.221 C 
HETATM   29  N   UNL     1      43.355 -17.171   4.255  1.00  0.00    -0.371 N 
HETATM   30  C   UNL     1      43.501 -15.121   5.673  1.00  0.00     0.089 A 
HETATM   31  C   UNL     1      42.759 -17.733   3.045  1.00  0.00     0.081 C 
HETATM   32  H   UNL     1      43.586 -17.837   4.992  1.00  0.00     0.161 HD
HETATM   33  C   UNL     1      43.539 -18.977   2.630  1.00  0.00     0.032 C 
HETATM   34  C   UNL     1      42.784 -16.680   1.924  1.00  0.00     0.061 C 
BRANCH  28  35
HETATM   35  C   UNL     1      40.609 -15.457   2.378  1.00  0.00     0.409 C 
HETATM   36  F   UNL     1      40.116 -15.859   3.569  1.00  0.00    -0.169 F 
HETATM   37  F   UNL     1      40.075 -14.230   2.138  1.00  0.00    -0.169 F 
HETATM   38  F   UNL     1      40.120 -16.283   1.429  1.00  0.00    -0.169 F 
ENDBRANCH  28  35
ENDBRANCH   1  24
TORSDOF 8
ENDMDL
MODEL 9
REMARK VINA RESULT:      -8.8      5.157      8.497
REMARK  8 active torsions:
REMARK  status: ('A' for Active; 'I' for Inactive)
REMARK    1  A    between atoms: C_7  and  C_8 
REMARK       I    between atoms: C_8  and  N_9 
REMARK    2  A    between atoms: N_9  and  N_10 
REMARK    3  A    between atoms: N_10  and  C_11 
REMARK    4  A    between atoms: C_11  and  N_12 
REMARK    5  A    between atoms: N_12  and  C_13 
REMARK    6  A    between atoms: N_15  and  C_16 
REMARK    7  A    between atoms: C_16  and  C_17 
REMARK    8  A    between atoms: C_29  and  C_30 
ROOT
HETATM    1  C   UNL     1      42.409 -11.136   5.914  1.00  0.00     0.290 C 
HETATM    2  N   UNL     1      41.230 -11.252   5.204  1.00  0.00    -0.262 N 
HETATM    3  O   UNL     1      43.450 -11.727   5.641  1.00  0.00    -0.264 OA
HETATM    4  H   UNL     1      40.448 -10.648   5.460  1.00  0.00     0.190 HD
ENDROOT
BRANCH   2   5
HETATM    5  N   UNL     1      41.160 -11.967   4.011  1.00  0.00    -0.273 N 
HETATM    6  H   UNL     1      41.914 -11.837   3.327  1.00  0.00     0.189 HD
BRANCH   5   7
HETATM    7  C   UNL     1      40.328 -13.045   3.872  1.00  0.00     0.192 C 
HETATM    8  S   UNL     1      39.405 -13.368   2.507  1.00  0.00    -0.039 SA
BRANCH   7   9
HETATM    9  N   UNL     1      40.234 -13.913   4.921  1.00  0.00    -0.315 N 
HETATM   10  H   UNL     1      39.474 -13.737   5.563  1.00  0.00     0.170 HD
BRANCH   9  11
HETATM   11  C   UNL     1      41.093 -14.940   5.248  1.00  0.00     0.151 A 
HETATM   12  N   UNL     1      42.292 -15.133   4.690  1.00  0.00    -0.154 NA
HETATM   13  N   UNL     1      42.784 -16.219   5.323  1.00  0.00    -0.275 N 
HETATM   14  C   UNL     1      41.929 -16.727   6.260  1.00  0.00     0.116 A 
HETATM   15  C   UNL     1      40.817 -15.919   6.231  1.00  0.00     0.071 A 
BRANCH  13  16
HETATM   16  C   UNL     1      44.069 -16.780   4.927  1.00  0.00     0.192 C 
BRANCH  16  17
HETATM   17  C   UNL     1      43.909 -18.100   4.229  1.00  0.00     0.000 A 
HETATM   18  C   UNL     1      43.506 -18.147   2.892  1.00  0.00     0.124 A 
HETATM   19  F   UNL     1      43.270 -17.006   2.228  1.00  0.00    -0.205 F 
HETATM   20  C   UNL     1      43.349 -19.358   2.223  1.00  0.00     0.043 A 
HETATM   21  C   UNL     1      43.596 -20.552   2.898  1.00  0.00     0.003 A 
HETATM   22  C   UNL     1      43.989 -20.526   4.236  1.00  0.00     0.001 A 
HETATM   23  C   UNL     1      44.141 -19.307   4.902  1.00  0.00     0.012 A 
ENDBRANCH  16  17
ENDBRANCH  13  16
ENDBRANCH   9  11
ENDBRANCH   7   9
ENDBRANCH   5   7
ENDBRANCH   2   5
BRANCH   1  24
HETATM   24  C   UNL     1      42.275 -10.216   7.056  1.00  0.00     0.150 A 
HETATM   25  N   UNL     1      43.357  -9.776   7.739  1.00  0.00    -0.165 NA
HETATM   26  N   UNL     1      42.834  -8.981   8.685  1.00  0.00    -0.240 N 
HETATM   27  C   UNL     1      41.474  -8.859   8.622  1.00  0.00     0.123 A 
HETATM   28  C   UNL     1      43.673  -8.281   9.640  1.00  0.00     0.221 C 
HETATM   29  N   UNL     1      40.800  -8.042   9.464  1.00  0.00    -0.371 N 
HETATM   30  C   UNL     1      41.075  -9.664   7.587  1.00  0.00     0.089 A 
HETATM   31  C   UNL     1      41.480  -7.414  10.595  1.00  0.00     0.081 C 
HETATM   32  H   UNL     1      39.787  -8.126   9.542  1.00  0.00     0.161 HD
HETATM   33  C   UNL     1      40.713  -6.162  11.011  1.00  0.00     0.032 C 
HETATM   34  C   UNL     1      42.921  -7.056  10.193  1.00  0.00     0.061 C 
BRANCH  28  35
HETATM   35  C   UNL     1      44.113  -9.228  10.735  1.00  0.00     0.409 C 
HETATM   36  F   UNL     1      43.275 -10.276  10.889  1.00  0.00    -0.169 F 
HETATM   37  F   UNL     1      45.329  -9.753  10.423  1.00  0.00    -0.169 F 
HETATM   38  F   UNL     1      44.250  -8.628  11.936  1.00  0.00    -0.169 F 
ENDBRANCH  28  35
ENDBRANCH   1  24
TORSDOF 8
ENDMDL
MODEL 10
REMARK VINA RESULT:      -8.7      7.738     11.345
REMARK  8 active torsions:
REMARK  status: ('A' for Active; 'I' for Inactive)
REMARK    1  A    between atoms: C_7  and  C_8 
REMARK       I    between atoms: C_8  and  N_9 
REMARK    2  A    between atoms: N_9  and  N_10 
REMARK    3  A    between atoms: N_10  and  C_11 
REMARK    4  A    between atoms: C_11  and  N_12 
REMARK    5  A    between atoms: N_12  and  C_13 
REMARK    6  A    between atoms: N_15  and  C_16 
REMARK    7  A    between atoms: C_16  and  C_17 
REMARK    8  A    between atoms: C_29  and  C_30 
ROOT
HETATM    1  C   UNL     1      43.481 -10.615  10.802  1.00  0.00     0.290 C 
HETATM    2  N   UNL     1      43.236 -10.640   9.443  1.00  0.00    -0.262 N 
HETATM    3  O   UNL     1      44.347 -11.276  11.369  1.00  0.00    -0.264 OA
HETATM    4  H   UNL     1      42.554  -9.984   9.060  1.00  0.00     0.190 HD
ENDROOT
BRANCH   2   5
HETATM    5  N   UNL     1      44.060 -11.338   8.563  1.00  0.00    -0.273 N 
HETATM    6  H   UNL     1      43.822 -12.313   8.351  1.00  0.00     0.189 HD
BRANCH   5   7
HETATM    7  C   UNL     1      44.947 -10.687   7.748  1.00  0.00     0.192 C 
HETATM    8  S   UNL     1      45.808  -9.312   8.182  1.00  0.00    -0.039 SA
BRANCH   7   9
HETATM    9  N   UNL     1      45.137 -11.185   6.492  1.00  0.00    -0.315 N 
HETATM   10  H   UNL     1      46.017 -10.942   6.058  1.00  0.00     0.170 HD
BRANCH   9  11
HETATM   11  C   UNL     1      44.247 -11.903   5.724  1.00  0.00     0.151 A 
HETATM   12  N   UNL     1      43.525 -12.937   6.166  1.00  0.00    -0.154 NA
HETATM   13  N   UNL     1      42.785 -13.309   5.099  1.00  0.00    -0.275 N 
HETATM   14  C   UNL     1      43.025 -12.548   3.991  1.00  0.00     0.116 A 
HETATM   15  C   UNL     1      43.975 -11.628   4.364  1.00  0.00     0.071 A 
BRANCH  13  16
HETATM   16  C   UNL     1      41.909 -14.469   5.183  1.00  0.00     0.192 C 
BRANCH  16  17
HETATM   17  C   UNL     1      42.456 -15.636   4.412  1.00  0.00     0.000 A 
HETATM   18  C   UNL     1      43.489 -16.412   4.943  1.00  0.00     0.124 A 
HETATM   19  F   UNL     1      43.988 -16.116   6.152  1.00  0.00    -0.205 F 
HETATM   20  C   UNL     1      44.013 -17.497   4.247  1.00  0.00     0.043 A 
HETATM   21  C   UNL     1      43.501 -17.821   2.992  1.00  0.00     0.003 A 
HETATM   22  C   UNL     1      42.476 -17.053   2.440  1.00  0.00     0.001 A 
HETATM   23  C   UNL     1      41.958 -15.962   3.143  1.00  0.00     0.012 A 
ENDBRANCH  16  17
ENDBRANCH  13  16
ENDBRANCH   9  11
ENDBRANCH   7   9
ENDBRANCH   5   7
ENDBRANCH   2   5
BRANCH   1  24
HETATM   24  C   UNL     1      42.570  -9.698  11.508  1.00  0.00     0.150 A 
HETATM   25  N   UNL     1      43.021  -8.560  12.085  1.00  0.00    -0.165 NA
HETATM   26  N   UNL     1      41.917  -8.014  12.617  1.00  0.00    -0.240 N 
HETATM   27  C   UNL     1      40.773  -8.725  12.381  1.00  0.00     0.123 A 
HETATM   28  C   UNL     1      41.959  -6.750  13.326  1.00  0.00     0.221 C 
HETATM   29  N   UNL     1      39.566  -8.276  12.794  1.00  0.00    -0.371 N 
HETATM   30  C   UNL     1      41.164  -9.836  11.679  1.00  0.00     0.089 A 
HETATM   31  C   UNL     1      39.466  -7.116  13.677  1.00  0.00     0.081 C 
HETATM   32  H   UNL     1      38.768  -8.911  12.797  1.00  0.00     0.161 HD
HETATM   33  C   UNL     1      38.083  -6.487  13.528  1.00  0.00     0.032 C 
HETATM   34  C   UNL     1      40.563  -6.100  13.315  1.00  0.00     0.061 C 
BRANCH  28  35
HETATM   35  C   UNL     1      42.484  -6.959  14.730  1.00  0.00     0.409 C 
HETATM   36  F   UNL     1      43.828  -6.849  14.808  1.00  0.00    -0.169 F 
HETATM   37  F   UNL     1      41.974  -6.007  15.556  1.00  0.00    -0.169 F 
HETATM   38  F   UNL     1      42.136  -8.152  15.257  1.00  0.00    -0.169 F 
ENDBRANCH  28  35
ENDBRANCH   1  24
TORSDOF 8
ENDMDL
