MODEL 1
REMARK VINA RESULT:      -7.4      0.000      0.000
REMARK  5 active torsions:
REMARK  status: ('A' for Active; 'I' for Inactive)
REMARK    1  A    between atoms: C_2  and  O_3 
REMARK    2  A    between atoms: O_3  and  C_4 
REMARK    3  A    between atoms: C_9  and  C_10 
REMARK       I    between atoms: C_10  and  N_11 
REMARK    4  A    between atoms: N_11  and  C_12 
REMARK    5  A    between atoms: C_12  and  C_13 
ROOT
HETATM    1  C   UNL     1      43.080 -16.670   2.887  1.00  0.00     0.256 C 
HETATM    2  N   UNL     1      42.005 -16.122   3.541  1.00  0.00    -0.348 N 
HETATM    3  O   UNL     1      43.756 -16.033   2.084  1.00  0.00    -0.267 OA
HETATM    4  H   UNL     1      41.512 -16.684   4.228  1.00  0.00     0.163 HD
ENDROOT
BRANCH   1   5
HETATM    5  C   UNL     1      43.405 -18.099   3.161  1.00  0.00     0.084 A 
HETATM    6  C   UNL     1      43.921 -18.592   4.361  1.00  0.00     0.180 A 
HETATM    7  N   UNL     1      44.193 -19.905   4.579  1.00  0.00    -0.236 NA
HETATM    8  C   UNL     1      43.944 -20.765   3.569  1.00  0.00     0.119 A 
HETATM    9  C   UNL     1      43.439 -20.379   2.342  1.00  0.00     0.020 A 
HETATM   10  C   UNL     1      43.168 -19.029   2.138  1.00  0.00     0.023 A 
BRANCH   6  11
HETATM   11  O   UNL     1      44.182 -17.702   5.387  1.00  0.00    -0.334 OA
BRANCH  11  12
HETATM   12  C   UNL     1      43.363 -17.883   6.544  1.00  0.00     0.173 C 
HETATM   13  C   UNL     1      42.943 -16.505   7.027  1.00  0.00     0.034 C 
ENDBRANCH  11  12
ENDBRANCH   6  11
ENDBRANCH   1   5
BRANCH   2  14
HETATM   14  C   UNL     1      41.580 -14.747   3.361  1.00  0.00     0.114 C 
HETATM   15  C   UNL     1      40.676 -14.299   4.512  1.00  0.00     0.037 C 
BRANCH  14  16
HETATM   16  C   UNL     1      40.945 -14.611   1.986  1.00  0.00    -0.036 A 
HETATM   17  C   UNL     1      40.122 -15.605   1.435  1.00  0.00     0.010 A 
HETATM   18  C   UNL     1      39.601 -15.468   0.145  1.00  0.00     0.019 A 
HETATM   19  C   UNL     1      39.910 -14.338  -0.610  1.00  0.00     0.011 A 
HETATM   20 BR   UNL     1      39.216 -14.159  -2.358  1.00  0.00    -0.051 Br
HETATM   21  C   UNL     1      40.737 -13.347  -0.089  1.00  0.00     0.019 A 
HETATM   22  C   UNL     1      41.255 -13.487   1.201  1.00  0.00     0.010 A 
ENDBRANCH  14  16
ENDBRANCH   2  14
TORSDOF 5
ENDMDL
MODEL 2
REMARK VINA RESULT:      -7.1      4.093      5.341
REMARK  5 active torsions:
REMARK  status: ('A' for Active; 'I' for Inactive)
REMARK    1  A    between atoms: C_2  and  O_3 
REMARK    2  A    between atoms: O_3  and  C_4 
REMARK    3  A    between atoms: C_9  and  C_10 
REMARK       I    between atoms: C_10  and  N_11 
REMARK    4  A    between atoms: N_11  and  C_12 
REMARK    5  A    between atoms: C_12  and  C_13 
ROOT
HETATM    1  C   UNL     1      42.122 -15.246   3.845  1.00  0.00     0.256 C 
HETATM    2  N   UNL     1      42.862 -14.125   4.126  1.00  0.00    -0.348 N 
HETATM    3  O   UNL     1      40.901 -15.215   3.722  1.00  0.00    -0.267 OA
HETATM    4  H   UNL     1      43.873 -14.204   4.171  1.00  0.00     0.163 HD
ENDROOT
BRANCH   1   5
HETATM    5  C   UNL     1      42.849 -16.542   3.712  1.00  0.00     0.084 A 
HETATM    6  C   UNL     1      43.780 -17.041   4.626  1.00  0.00     0.180 A 
HETATM    7  N   UNL     1      44.412 -18.234   4.478  1.00  0.00    -0.236 NA
HETATM    8  C   UNL     1      44.111 -18.962   3.382  1.00  0.00     0.119 A 
HETATM    9  C   UNL     1      43.208 -18.558   2.417  1.00  0.00     0.020 A 
HETATM   10  C   UNL     1      42.572 -17.331   2.587  1.00  0.00     0.023 A 
BRANCH   6  11
HETATM   11  O   UNL     1      44.089 -16.282   5.739  1.00  0.00    -0.334 OA
BRANCH  11  12
HETATM   12  C   UNL     1      43.578 -16.806   6.967  1.00  0.00     0.173 C 
HETATM   13  C   UNL     1      42.678 -15.746   7.578  1.00  0.00     0.034 C 
ENDBRANCH  11  12
ENDBRANCH   6  11
ENDBRANCH   1   5
BRANCH   2  14
HETATM   14  C   UNL     1      42.280 -12.806   4.284  1.00  0.00     0.114 C 
HETATM   15  C   UNL     1      42.404 -11.995   2.992  1.00  0.00     0.037 C 
BRANCH  14  16
HETATM   16  C   UNL     1      42.910 -12.139   5.497  1.00  0.00    -0.036 A 
HETATM   17  C   UNL     1      42.381 -10.976   6.077  1.00  0.00     0.010 A 
HETATM   18  C   UNL     1      43.020 -10.362   7.158  1.00  0.00     0.019 A 
HETATM   19  C   UNL     1      44.202 -10.901   7.660  1.00  0.00     0.011 A 
HETATM   20 BR   UNL     1      45.072 -10.064   9.114  1.00  0.00    -0.051 Br
HETATM   21  C   UNL     1      44.753 -12.045   7.091  1.00  0.00     0.019 A 
HETATM   22  C   UNL     1      44.111 -12.658   6.011  1.00  0.00     0.010 A 
ENDBRANCH  14  16
ENDBRANCH   2  14
TORSDOF 5
ENDMDL
MODEL 3
REMARK VINA RESULT:      -7.0      3.256      6.877
REMARK  5 active torsions:
REMARK  status: ('A' for Active; 'I' for Inactive)
REMARK    1  A    between atoms: C_2  and  O_3 
REMARK    2  A    between atoms: O_3  and  C_4 
REMARK    3  A    between atoms: C_9  and  C_10 
REMARK       I    between atoms: C_10  and  N_11 
REMARK    4  A    between atoms: N_11  and  C_12 
REMARK    5  A    between atoms: C_12  and  C_13 
ROOT
HETATM    1  C   UNL     1      40.533 -13.922   5.378  1.00  0.00     0.256 C 
HETATM    2  N   UNL     1      41.743 -14.414   4.957  1.00  0.00    -0.348 N 
HETATM    3  O   UNL     1      39.973 -14.332   6.390  1.00  0.00    -0.267 OA
HETATM    4  H   UNL     1      42.179 -14.004   4.137  1.00  0.00     0.163 HD
ENDROOT
BRANCH   1   5
HETATM    5  C   UNL     1      39.884 -12.869   4.545  1.00  0.00     0.084 A 
HETATM    6  C   UNL     1      39.546 -13.002   3.197  1.00  0.00     0.180 A 
HETATM    7  N   UNL     1      38.942 -12.024   2.474  1.00  0.00    -0.236 NA
HETATM    8  C   UNL     1      38.661 -10.867   3.110  1.00  0.00     0.119 A 
HETATM    9  C   UNL     1      38.957 -10.633   4.440  1.00  0.00     0.020 A 
HETATM   10  C   UNL     1      39.578 -11.647   5.163  1.00  0.00     0.023 A 
BRANCH   6  11
HETATM   11  O   UNL     1      39.847 -14.187   2.551  1.00  0.00    -0.334 OA
BRANCH  11  12
HETATM   12  C   UNL     1      40.711 -14.037   1.422  1.00  0.00     0.173 C 
HETATM   13  C   UNL     1      40.111 -14.836   0.278  1.00  0.00     0.034 C 
ENDBRANCH  11  12
ENDBRANCH   6  11
ENDBRANCH   1   5
BRANCH   2  14
HETATM   14  C   UNL     1      42.477 -15.441   5.671  1.00  0.00     0.114 C 
HETATM   15  C   UNL     1      43.694 -14.848   6.384  1.00  0.00     0.037 C 
BRANCH  14  16
HETATM   16  C   UNL     1      42.814 -16.561   4.700  1.00  0.00    -0.036 A 
HETATM   17  C   UNL     1      42.273 -16.624   3.406  1.00  0.00     0.010 A 
HETATM   18  C   UNL     1      42.564 -17.699   2.562  1.00  0.00     0.019 A 
HETATM   19  C   UNL     1      43.390 -18.728   3.009  1.00  0.00     0.011 A 
HETATM   20 BR   UNL     1      43.773 -20.187   1.871  1.00  0.00    -0.051 Br
HETATM   21  C   UNL     1      43.925 -18.694   4.293  1.00  0.00     0.019 A 
HETATM   22  C   UNL     1      43.634 -17.617   5.135  1.00  0.00     0.010 A 
ENDBRANCH  14  16
ENDBRANCH   2  14
TORSDOF 5
ENDMDL
MODEL 4
REMARK VINA RESULT:      -7.0      4.745      6.908
REMARK  5 active torsions:
REMARK  status: ('A' for Active; 'I' for Inactive)
REMARK    1  A    between atoms: C_2  and  O_3 
REMARK    2  A    between atoms: O_3  and  C_4 
REMARK    3  A    between atoms: C_9  and  C_10 
REMARK       I    between atoms: C_10  and  N_11 
REMARK    4  A    between atoms: N_11  and  C_12 
REMARK    5  A    between atoms: C_12  and  C_13 
ROOT
HETATM    1  C   UNL     1      43.950 -11.744   4.539  1.00  0.00     0.256 C 
HETATM    2  N   UNL     1      42.907 -12.625   4.393  1.00  0.00    -0.348 N 
HETATM    3  O   UNL     1      44.605 -11.336   3.585  1.00  0.00    -0.267 OA
HETATM    4  H   UNL     1      42.373 -12.891   5.214  1.00  0.00     0.163 HD
ENDROOT
BRANCH   1   5
HETATM    5  C   UNL     1      44.295 -11.300   5.921  1.00  0.00     0.084 A 
HETATM    6  C   UNL     1      43.373 -10.919   6.898  1.00  0.00     0.180 A 
HETATM    7  N   UNL     1      43.724 -10.533   8.152  1.00  0.00    -0.236 NA
HETATM    8  C   UNL     1      45.041 -10.522   8.450  1.00  0.00     0.119 A 
HETATM    9  C   UNL     1      46.032 -10.875   7.555  1.00  0.00     0.020 A 
HETATM   10  C   UNL     1      45.651 -11.267   6.274  1.00  0.00     0.023 A 
BRANCH   6  11
HETATM   11  O   UNL     1      42.028 -10.924   6.579  1.00  0.00    -0.334 OA
BRANCH  11  12
HETATM   12  C   UNL     1      41.406  -9.639   6.636  1.00  0.00     0.173 C 
HETATM   13  C   UNL     1      41.378  -9.081   5.224  1.00  0.00     0.034 C 
ENDBRANCH  11  12
ENDBRANCH   6  11
ENDBRANCH   1   5
BRANCH   2  14
HETATM   14  C   UNL     1      42.473 -13.137   3.107  1.00  0.00     0.114 C 
HETATM   15  C   UNL     1      41.016 -12.761   2.832  1.00  0.00     0.037 C 
BRANCH  14  16
HETATM   16  C   UNL     1      42.744 -14.633   3.065  1.00  0.00    -0.036 A 
HETATM   17  C   UNL     1      42.865 -15.410   4.227  1.00  0.00     0.010 A 
HETATM   18  C   UNL     1      43.169 -16.772   4.148  1.00  0.00     0.019 A 
HETATM   19  C   UNL     1      43.368 -17.366   2.904  1.00  0.00     0.011 A 
HETATM   20 BR   UNL     1      43.792 -19.204   2.799  1.00  0.00    -0.051 Br
HETATM   21  C   UNL     1      43.269 -16.611   1.739  1.00  0.00     0.019 A 
HETATM   22  C   UNL     1      42.963 -15.250   1.821  1.00  0.00     0.010 A 
ENDBRANCH  14  16
ENDBRANCH   2  14
TORSDOF 5
ENDMDL
MODEL 5
REMARK VINA RESULT:      -6.9      3.575      6.598
REMARK  5 active torsions:
REMARK  status: ('A' for Active; 'I' for Inactive)
REMARK    1  A    between atoms: C_2  and  O_3 
REMARK    2  A    between atoms: O_3  and  C_4 
REMARK    3  A    between atoms: C_9  and  C_10 
REMARK       I    between atoms: C_10  and  N_11 
REMARK    4  A    between atoms: N_11  and  C_12 
REMARK    5  A    between atoms: C_12  and  C_13 
ROOT
HETATM    1  C   UNL     1      41.987 -13.120   3.507  1.00  0.00     0.256 C 
HETATM    2  N   UNL     1      42.052 -14.488   3.429  1.00  0.00    -0.348 N 
HETATM    3  O   UNL     1      42.771 -12.389   2.909  1.00  0.00    -0.267 OA
HETATM    4  H   UNL     1      41.347 -15.040   3.909  1.00  0.00     0.163 HD
ENDROOT
BRANCH   1   5
HETATM    5  C   UNL     1      40.931 -12.523   4.375  1.00  0.00     0.084 A 
HETATM    6  C   UNL     1      40.535 -13.019   5.618  1.00  0.00     0.180 A 
HETATM    7  N   UNL     1      39.577 -12.439   6.387  1.00  0.00    -0.236 NA
HETATM    8  C   UNL     1      38.988 -11.323   5.907  1.00  0.00     0.119 A 
HETATM    9  C   UNL     1      39.304 -10.755   4.687  1.00  0.00     0.020 A 
HETATM   10  C   UNL     1      40.287 -11.365   3.913  1.00  0.00     0.023 A 
BRANCH   6  11
HETATM   11  O   UNL     1      41.137 -14.167   6.097  1.00  0.00    -0.334 OA
BRANCH  11  12
HETATM   12  C   UNL     1      40.224 -15.138   6.613  1.00  0.00     0.173 C 
HETATM   13  C   UNL     1      40.327 -16.375   5.738  1.00  0.00     0.034 C 
ENDBRANCH  11  12
ENDBRANCH   6  11
ENDBRANCH   1   5
BRANCH   2  14
HETATM   14  C   UNL     1      43.032 -15.195   2.626  1.00  0.00     0.114 C 
HETATM   15  C   UNL     1      42.572 -15.299   1.170  1.00  0.00     0.037 C 
BRANCH  14  16
HETATM   16  C   UNL     1      43.321 -16.536   3.282  1.00  0.00    -0.036 A 
HETATM   17  C   UNL     1      43.683 -16.651   4.633  1.00  0.00     0.010 A 
HETATM   18  C   UNL     1      43.994 -17.896   5.186  1.00  0.00     0.019 A 
HETATM   19  C   UNL     1      43.958 -19.037   4.387  1.00  0.00     0.011 A 
HETATM   20 BR   UNL     1      44.391 -20.719   5.132  1.00  0.00    -0.051 Br
HETATM   21  C   UNL     1      43.617 -18.945   3.041  1.00  0.00     0.019 A 
HETATM   22  C   UNL     1      43.305 -17.698   2.491  1.00  0.00     0.010 A 
ENDBRANCH  14  16
ENDBRANCH   2  14
TORSDOF 5
ENDMDL
MODEL 6
REMARK VINA RESULT:      -6.7     13.129     14.488
REMARK  5 active torsions:
REMARK  status: ('A' for Active; 'I' for Inactive)
REMARK    1  A    between atoms: C_2  and  O_3 
REMARK    2  A    between atoms: O_3  and  C_4 
REMARK    3  A    between atoms: C_9  and  C_10 
REMARK       I    between atoms: C_10  and  N_11 
REMARK    4  A    between atoms: N_11  and  C_12 
REMARK    5  A    between atoms: C_12  and  C_13 
ROOT
HETATM    1  C   UNL     1      47.139 -28.891   2.039  1.00  0.00     0.256 C 
HETATM    2  N   UNL     1      46.087 -29.728   1.761  1.00  0.00    -0.348 N 
HETATM    3  O   UNL     1      47.047 -27.670   1.956  1.00  0.00    -0.267 OA
HETATM    4  H   UNL     1      46.210 -30.728   1.892  1.00  0.00     0.163 HD
ENDROOT
BRANCH   1   5
HETATM    5  C   UNL     1      48.437 -29.513   2.431  1.00  0.00     0.084 A 
HETATM    6  C   UNL     1      49.240 -30.295   1.598  1.00  0.00     0.180 A 
HETATM    7  N   UNL     1      50.424 -30.833   1.987  1.00  0.00    -0.236 NA
HETATM    8  C   UNL     1      50.830 -30.589   3.251  1.00  0.00     0.119 A 
HETATM    9  C   UNL     1      50.108 -29.833   4.155  1.00  0.00     0.020 A 
HETATM   10  C   UNL     1      48.896 -29.291   3.737  1.00  0.00     0.023 A 
BRANCH   6  11
HETATM   11  O   UNL     1      48.810 -30.547   0.309  1.00  0.00    -0.334 OA
BRANCH  11  12
HETATM   12  C   UNL     1      49.438 -29.738  -0.689  1.00  0.00     0.173 C 
HETATM   13  C   UNL     1      48.346 -29.207  -1.601  1.00  0.00     0.034 C 
ENDBRANCH  11  12
ENDBRANCH   6  11
ENDBRANCH   1   5
BRANCH   2  14
HETATM   14  C   UNL     1      44.775 -29.254   1.365  1.00  0.00     0.114 C 
HETATM   15  C   UNL     1      43.677 -29.928   2.191  1.00  0.00     0.037 C 
BRANCH  14  16
HETATM   16  C   UNL     1      44.624 -29.441  -0.136  1.00  0.00    -0.036 A 
HETATM   17  C   UNL     1      44.372 -30.694  -0.717  1.00  0.00     0.010 A 
HETATM   18  C   UNL     1      44.294 -30.835  -2.106  1.00  0.00     0.019 A 
HETATM   19  C   UNL     1      44.481 -29.724  -2.926  1.00  0.00     0.011 A 
HETATM   20 BR   UNL     1      44.387 -29.918  -4.803  1.00  0.00    -0.051 Br
HETATM   21  C   UNL     1      44.747 -28.476  -2.373  1.00  0.00     0.019 A 
HETATM   22  C   UNL     1      44.823 -28.338  -0.984  1.00  0.00     0.010 A 
ENDBRANCH  14  16
ENDBRANCH   2  14
TORSDOF 5
ENDMDL
MODEL 7
REMARK VINA RESULT:      -6.5      4.193      5.927
REMARK  5 active torsions:
REMARK  status: ('A' for Active; 'I' for Inactive)
REMARK    1  A    between atoms: C_2  and  O_3 
REMARK    2  A    between atoms: O_3  and  C_4 
REMARK    3  A    between atoms: C_9  and  C_10 
REMARK       I    between atoms: C_10  and  N_11 
REMARK    4  A    between atoms: N_11  and  C_12 
REMARK    5  A    between atoms: C_12  and  C_13 
ROOT
HETATM    1  C   UNL     1      41.904 -15.548   5.538  1.00  0.00     0.256 C 
HETATM    2  N   UNL     1      42.220 -14.270   5.149  1.00  0.00    -0.348 N 
HETATM    3  O   UNL     1      41.056 -15.785   6.392  1.00  0.00    -0.267 OA
HETATM    4  H   UNL     1      42.898 -14.139   4.404  1.00  0.00     0.163 HD
ENDROOT
BRANCH   1   5
HETATM    5  C   UNL     1      42.650 -16.672   4.901  1.00  0.00     0.084 A 
HETATM    6  C   UNL     1      42.828 -16.844   3.526  1.00  0.00     0.180 A 
HETATM    7  N   UNL     1      43.526 -17.874   2.983  1.00  0.00    -0.236 NA
HETATM    8  C   UNL     1      44.069 -18.771   3.833  1.00  0.00     0.119 A 
HETATM    9  C   UNL     1      43.947 -18.695   5.208  1.00  0.00     0.020 A 
HETATM   10  C   UNL     1      43.227 -17.631   5.745  1.00  0.00     0.023 A 
BRANCH   6  11
HETATM   11  O   UNL     1      42.259 -15.926   2.663  1.00  0.00    -0.334 OA
BRANCH  11  12
HETATM   12  C   UNL     1      41.036 -16.360   2.066  1.00  0.00     0.173 C 
HETATM   13  C   UNL     1      40.076 -15.183   2.081  1.00  0.00     0.034 C 
ENDBRANCH  11  12
ENDBRANCH   6  11
ENDBRANCH   1   5
BRANCH   2  14
HETATM   14  C   UNL     1      41.575 -13.090   5.692  1.00  0.00     0.114 C 
HETATM   15  C   UNL     1      40.731 -12.388   4.625  1.00  0.00     0.037 C 
BRANCH  14  16
HETATM   16  C   UNL     1      42.636 -12.204   6.323  1.00  0.00    -0.036 A 
HETATM   17  C   UNL     1      42.379 -10.880   6.713  1.00  0.00     0.010 A 
HETATM   18  C   UNL     1      43.396 -10.079   7.240  1.00  0.00     0.019 A 
HETATM   19  C   UNL     1      44.684 -10.593   7.370  1.00  0.00     0.011 A 
HETATM   20 BR   UNL     1      46.062  -9.506   8.071  1.00  0.00    -0.051 Br
HETATM   21  C   UNL     1      44.966 -11.898   6.976  1.00  0.00     0.019 A 
HETATM   22  C   UNL     1      43.947 -12.696   6.451  1.00  0.00     0.010 A 
ENDBRANCH  14  16
ENDBRANCH   2  14
TORSDOF 5
ENDMDL
MODEL 8
REMARK VINA RESULT:      -6.5      3.691      7.190
REMARK  5 active torsions:
REMARK  status: ('A' for Active; 'I' for Inactive)
REMARK    1  A    between atoms: C_2  and  O_3 
REMARK    2  A    between atoms: O_3  and  C_4 
REMARK    3  A    between atoms: C_9  and  C_10 
REMARK       I    between atoms: C_10  and  N_11 
REMARK    4  A    between atoms: N_11  and  C_12 
REMARK    5  A    between atoms: C_12  and  C_13 
ROOT
HETATM    1  C   UNL     1      40.271 -13.518   1.291  1.00  0.00     0.256 C 
HETATM    2  N   UNL     1      41.622 -13.681   1.471  1.00  0.00    -0.348 N 
HETATM    3  O   UNL     1      39.485 -13.452   2.231  1.00  0.00    -0.267 OA
HETATM    4  H   UNL     1      42.227 -13.683   0.657  1.00  0.00     0.163 HD
ENDROOT
BRANCH   1   5
HETATM    5  C   UNL     1      39.761 -13.445  -0.109  1.00  0.00     0.084 A 
HETATM    6  C   UNL     1      39.392 -12.273  -0.771  1.00  0.00     0.180 A 
HETATM    7  N   UNL     1      38.944 -12.244  -2.053  1.00  0.00    -0.236 NA
HETATM    8  C   UNL     1      38.858 -13.422  -2.706  1.00  0.00     0.119 A 
HETATM    9  C   UNL     1      39.194 -14.637  -2.140  1.00  0.00     0.020 A 
HETATM   10  C   UNL     1      39.649 -14.646  -0.825  1.00  0.00     0.023 A 
BRANCH   6  11
HETATM   11  O   UNL     1      39.474 -11.072  -0.091  1.00  0.00    -0.334 OA
BRANCH  11  12
HETATM   12  C   UNL     1      40.529 -10.215  -0.537  1.00  0.00     0.173 C 
HETATM   13  C   UNL     1      41.537 -10.105   0.594  1.00  0.00     0.034 C 
ENDBRANCH  11  12
ENDBRANCH   6  11
ENDBRANCH   1   5
BRANCH   2  14
HETATM   14  C   UNL     1      42.245 -13.771   2.778  1.00  0.00     0.114 C 
HETATM   15  C   UNL     1      43.334 -12.708   2.938  1.00  0.00     0.037 C 
BRANCH  14  16
HETATM   16  C   UNL     1      42.735 -15.195   2.985  1.00  0.00    -0.036 A 
HETATM   17  C   UNL     1      42.761 -16.141   1.948  1.00  0.00     0.010 A 
HETATM   18  C   UNL     1      43.167 -17.456   2.190  1.00  0.00     0.019 A 
HETATM   19  C   UNL     1      43.538 -17.841   3.477  1.00  0.00     0.011 A 
HETATM   20 BR   UNL     1      44.074 -19.622   3.806  1.00  0.00    -0.051 Br
HETATM   21  C   UNL     1      43.504 -16.924   4.524  1.00  0.00     0.019 A 
HETATM   22  C   UNL     1      43.100 -15.609   4.278  1.00  0.00     0.010 A 
ENDBRANCH  14  16
ENDBRANCH   2  14
TORSDOF 5
ENDMDL
MODEL 9
REMARK VINA RESULT:      -6.5      4.236      6.921
REMARK  5 active torsions:
REMARK  status: ('A' for Active; 'I' for Inactive)
REMARK    1  A    between atoms: C_2  and  O_3 
REMARK    2  A    between atoms: O_3  and  C_4 
REMARK    3  A    between atoms: C_9  and  C_10 
REMARK       I    between atoms: C_10  and  N_11 
REMARK    4  A    between atoms: N_11  and  C_12 
REMARK    5  A    between atoms: C_12  and  C_13 
ROOT
HETATM    1  C   UNL     1      43.157 -12.880   4.095  1.00  0.00     0.256 C 
HETATM    2  N   UNL     1      42.521 -14.089   4.225  1.00  0.00    -0.348 N 
HETATM    3  O   UNL     1      43.652 -12.508   3.035  1.00  0.00    -0.267 OA
HETATM    4  H   UNL     1      42.091 -14.322   5.115  1.00  0.00     0.163 HD
ENDROOT
BRANCH   1   5
HETATM    5  C   UNL     1      43.258 -12.014   5.305  1.00  0.00     0.084 A 
HETATM    6  C   UNL     1      42.197 -11.320   5.890  1.00  0.00     0.180 A 
HETATM    7  N   UNL     1      42.325 -10.552   7.003  1.00  0.00    -0.236 NA
HETATM    8  C   UNL     1      43.552 -10.466   7.558  1.00  0.00     0.119 A 
HETATM    9  C   UNL     1      44.667 -11.108   7.056  1.00  0.00     0.020 A 
HETATM   10  C   UNL     1      44.516 -11.890   5.914  1.00  0.00     0.023 A 
BRANCH   6  11
HETATM   11  O   UNL     1      40.946 -11.407   5.308  1.00  0.00    -0.334 OA
BRANCH  11  12
HETATM   12  C   UNL     1      39.958 -12.032   6.130  1.00  0.00     0.173 C 
HETATM   13  C   UNL     1      38.787 -11.072   6.249  1.00  0.00     0.034 C 
ENDBRANCH  11  12
ENDBRANCH   6  11
ENDBRANCH   1   5
BRANCH   2  14
HETATM   14  C   UNL     1      42.358 -15.025   3.129  1.00  0.00     0.114 C 
HETATM   15  C   UNL     1      40.903 -15.066   2.657  1.00  0.00     0.037 C 
BRANCH  14  16
HETATM   16  C   UNL     1      42.908 -16.376   3.559  1.00  0.00    -0.036 A 
HETATM   17  C   UNL     1      43.160 -17.412   2.647  1.00  0.00     0.010 A 
HETATM   18  C   UNL     1      43.614 -18.658   3.088  1.00  0.00     0.019 A 
HETATM   19  C   UNL     1      43.808 -18.883   4.449  1.00  0.00     0.011 A 
HETATM   20 BR   UNL     1      44.409 -20.572   5.046  1.00  0.00    -0.051 Br
HETATM   21  C   UNL     1      43.549 -17.875   5.374  1.00  0.00     0.019 A 
HETATM   22  C   UNL     1      43.097 -16.629   4.929  1.00  0.00     0.010 A 
ENDBRANCH  14  16
ENDBRANCH   2  14
TORSDOF 5
ENDMDL
MODEL 10
REMARK VINA RESULT:      -6.3      3.192      4.232
REMARK  5 active torsions:
REMARK  status: ('A' for Active; 'I' for Inactive)
REMARK    1  A    between atoms: C_2  and  O_3 
REMARK    2  A    between atoms: O_3  and  C_4 
REMARK    3  A    between atoms: C_9  and  C_10 
REMARK       I    between atoms: C_10  and  N_11 
REMARK    4  A    between atoms: N_11  and  C_12 
REMARK    5  A    between atoms: C_12  and  C_13 
ROOT
HETATM    1  C   UNL     1      41.476 -15.755   2.849  1.00  0.00     0.256 C 
HETATM    2  N   UNL     1      41.759 -14.423   3.022  1.00  0.00    -0.348 N 
HETATM    3  O   UNL     1      40.430 -16.145   2.337  1.00  0.00    -0.267 OA
HETATM    4  H   UNL     1      42.660 -14.161   3.409  1.00  0.00     0.163 HD
ENDROOT
BRANCH   1   5
HETATM    5  C   UNL     1      42.480 -16.747   3.331  1.00  0.00     0.084 A 
HETATM    6  C   UNL     1      43.052 -16.761   4.605  1.00  0.00     0.180 A 
HETATM    7  N   UNL     1      43.954 -17.690   5.013  1.00  0.00    -0.236 NA
HETATM    8  C   UNL     1      44.306 -18.643   4.125  1.00  0.00     0.119 A 
HETATM    9  C   UNL     1      43.803 -18.716   2.840  1.00  0.00     0.020 A 
HETATM   10  C   UNL     1      42.880 -17.754   2.440  1.00  0.00     0.023 A 
BRANCH   6  11
HETATM   11  O   UNL     1      42.692 -15.774   5.504  1.00  0.00    -0.334 OA
BRANCH  11  12
HETATM   12  C   UNL     1      41.941 -16.246   6.625  1.00  0.00     0.173 C 
HETATM   13  C   UNL     1      40.499 -15.811   6.425  1.00  0.00     0.034 C 
ENDBRANCH  11  12
ENDBRANCH   6  11
ENDBRANCH   1   5
BRANCH   2  14
HETATM   14  C   UNL     1      40.867 -13.359   2.602  1.00  0.00     0.114 C 
HETATM   15  C   UNL     1      41.475 -12.560   1.447  1.00  0.00     0.037 C 
BRANCH  14  16
HETATM   16  C   UNL     1      40.510 -12.518   3.817  1.00  0.00    -0.036 A 
HETATM   17  C   UNL     1      39.376 -11.692   3.856  1.00  0.00     0.010 A 
HETATM   18  C   UNL     1      39.112 -10.893   4.971  1.00  0.00     0.019 A 
HETATM   19  C   UNL     1      39.988 -10.902   6.054  1.00  0.00     0.011 A 
HETATM   20 BR   UNL     1      39.637  -9.811   7.556  1.00  0.00    -0.051 Br
HETATM   21  C   UNL     1      41.128 -11.701   6.031  1.00  0.00     0.019 A 
HETATM   22  C   UNL     1      41.388 -12.501   4.915  1.00  0.00     0.010 A 
ENDBRANCH  14  16
ENDBRANCH   2  14
TORSDOF 5
ENDMDL
