MODEL 1
REMARK VINA RESULT:      -8.5      0.000      0.000
REMARK  4 active torsions:
REMARK  status: ('A' for Active; 'I' for Inactive)
REMARK    1  A    between atoms: C_8  and  N_9 
REMARK       I    between atoms: N_9  and  C_10 
REMARK       I    between atoms: C_10  and  N_11 
REMARK    2  A    between atoms: N_11  and  C_12 
REMARK    3  A    between atoms: C_15  and  O_16 
REMARK    4  A    between atoms: O_16  and  C_17 
ROOT
HETATM    1  C   UNL     1      40.643 -14.372   2.139  1.00  0.00     0.054 A 
HETATM    2  C   UNL     1      41.982 -13.992   2.083  1.00  0.00     0.149 A 
HETATM    3  N   UNL     1      42.979 -14.604   2.772  1.00  0.00    -0.235 NA
HETATM    4  C   UNL     1      42.633 -15.649   3.553  1.00  0.00     0.169 A 
HETATM    5  C   UNL     1      41.333 -16.113   3.669  1.00  0.00     0.060 A 
HETATM    6  C   UNL     1      40.328 -15.465   2.951  1.00  0.00     0.035 A 
ENDROOT
BRANCH   1   7
HETATM    7  N   UNL     1      39.584 -13.739   1.452  1.00  0.00    -0.307 N 
HETATM    8  C   UNL     1      39.632 -13.192   0.178  1.00  0.00     0.325 C 
HETATM    9  N   UNL     1      38.412 -12.638  -0.159  1.00  0.00    -0.305 N 
HETATM   10  O   UNL     1      40.623 -13.205  -0.537  1.00  0.00    -0.247 OA
HETATM   11  H   UNL     1      37.606 -12.949   0.358  1.00  0.00     0.171 HD
HETATM   12  H   UNL     1      38.742 -13.576   1.982  1.00  0.00     0.170 HD
BRANCH   9  13
HETATM   13  C   UNL     1      38.137 -11.855  -1.272  1.00  0.00     0.086 A 
HETATM   14  C   UNL     1      37.799 -12.417  -2.490  1.00  0.00     0.052 A 
HETATM   15  C   UNL     1      37.657 -13.819  -2.945  1.00  0.00     0.072 C 
HETATM   16  N   UNL     1      37.596 -11.368  -3.341  1.00  0.00    -0.280 N 
HETATM   17  H   UNL     1      37.343 -11.396  -4.323  1.00  0.00     0.189 HD
HETATM   18  N   UNL     1      37.745 -10.172  -2.768  1.00  0.00    -0.177 NA
HETATM   19  C   UNL     1      38.072 -10.448  -1.496  1.00  0.00     0.079 A 
HETATM   20  C   UNL     1      38.266  -9.307  -0.565  1.00  0.00     0.075 C 
ENDBRANCH   9  13
ENDBRANCH   1   7
BRANCH   4  21
HETATM   21  O   UNL     1      43.590 -16.319   4.311  1.00  0.00    -0.292 OA
BRANCH  21  22
HETATM   22  C   UNL     1      43.746 -17.660   4.061  1.00  0.00     0.078 A 
HETATM   23  C   UNL     1      43.953 -18.518   5.142  1.00  0.00     0.040 A 
HETATM   24  C   UNL     1      44.061 -19.890   4.921  1.00  0.00     0.045 A 
HETATM   25  C   UNL     1      43.946 -20.388   3.626  1.00  0.00     0.116 A 
HETATM   26  F   UNL     1      44.049 -21.707   3.416  1.00  0.00    -0.206 F 
HETATM   27  C   UNL     1      43.718 -19.539   2.546  1.00  0.00     0.045 A 
HETATM   28  C   UNL     1      43.607 -18.165   2.765  1.00  0.00     0.040 A 
ENDBRANCH  21  22
ENDBRANCH   4  21
TORSDOF 4
ENDMDL
MODEL 2
REMARK VINA RESULT:      -8.1      6.601      7.771
REMARK  4 active torsions:
REMARK  status: ('A' for Active; 'I' for Inactive)
REMARK    1  A    between atoms: C_8  and  N_9 
REMARK       I    between atoms: N_9  and  C_10 
REMARK       I    between atoms: C_10  and  N_11 
REMARK    2  A    between atoms: N_11  and  C_12 
REMARK    3  A    between atoms: C_15  and  O_16 
REMARK    4  A    between atoms: O_16  and  C_17 
ROOT
HETATM    1  C   UNL     1      43.123 -13.990   6.582  1.00  0.00     0.054 A 
HETATM    2  C   UNL     1      44.335 -14.661   6.436  1.00  0.00     0.149 A 
HETATM    3  N   UNL     1      44.476 -16.009   6.514  1.00  0.00    -0.235 NA
HETATM    4  C   UNL     1      43.358 -16.731   6.744  1.00  0.00     0.169 A 
HETATM    5  C   UNL     1      42.104 -16.161   6.892  1.00  0.00     0.060 A 
HETATM    6  C   UNL     1      41.988 -14.773   6.809  1.00  0.00     0.035 A 
ENDROOT
BRANCH   1   7
HETATM    7  N   UNL     1      42.952 -12.590   6.529  1.00  0.00    -0.307 N 
HETATM    8  C   UNL     1      43.507 -11.654   7.391  1.00  0.00     0.325 C 
HETATM    9  N   UNL     1      43.102 -10.378   7.048  1.00  0.00    -0.305 N 
HETATM   10  O   UNL     1      44.248 -11.932   8.322  1.00  0.00    -0.247 OA
HETATM   11  H   UNL     1      42.759 -10.239   6.111  1.00  0.00     0.171 HD
HETATM   12  H   UNL     1      42.276 -12.247   5.865  1.00  0.00     0.170 HD
BRANCH   9  13
HETATM   13  C   UNL     1      43.311  -9.218   7.780  1.00  0.00     0.086 A 
HETATM   14  C   UNL     1      42.259  -8.436   8.222  1.00  0.00     0.052 A 
HETATM   15  C   UNL     1      40.790  -8.550   8.069  1.00  0.00     0.072 C 
HETATM   16  N   UNL     1      42.826  -7.395   8.901  1.00  0.00    -0.280 N 
HETATM   17  H   UNL     1      42.363  -6.617   9.356  1.00  0.00     0.189 HD
HETATM   18  N   UNL     1      44.157  -7.452   8.962  1.00  0.00    -0.177 NA
HETATM   19  C   UNL     1      44.476  -8.567   8.286  1.00  0.00     0.079 A 
HETATM   20  C   UNL     1      45.910  -8.945   8.207  1.00  0.00     0.075 C 
ENDBRANCH   9  13
ENDBRANCH   1   7
BRANCH   4  21
HETATM   21  O   UNL     1      43.417 -18.116   6.862  1.00  0.00    -0.292 OA
BRANCH  21  22
HETATM   22  C   UNL     1      43.561 -18.828   5.696  1.00  0.00     0.078 A 
HETATM   23  C   UNL     1      43.635 -18.124   4.493  1.00  0.00     0.040 A 
HETATM   24  C   UNL     1      43.834 -18.818   3.300  1.00  0.00     0.045 A 
HETATM   25  C   UNL     1      43.971 -20.203   3.328  1.00  0.00     0.116 A 
HETATM   26  F   UNL     1      44.164 -20.868   2.181  1.00  0.00    -0.206 F 
HETATM   27  C   UNL     1      43.920 -20.908   4.527  1.00  0.00     0.045 A 
HETATM   28  C   UNL     1      43.723 -20.216   5.723  1.00  0.00     0.040 A 
ENDBRANCH  21  22
ENDBRANCH   4  21
TORSDOF 4
ENDMDL
MODEL 3
REMARK VINA RESULT:      -8.1      7.429      9.215
REMARK  4 active torsions:
REMARK  status: ('A' for Active; 'I' for Inactive)
REMARK    1  A    between atoms: C_8  and  N_9 
REMARK       I    between atoms: N_9  and  C_10 
REMARK       I    between atoms: C_10  and  N_11 
REMARK    2  A    between atoms: N_11  and  C_12 
REMARK    3  A    between atoms: C_15  and  O_16 
REMARK    4  A    between atoms: O_16  and  C_17 
ROOT
HETATM    1  C   UNL     1      43.497 -11.231   6.468  1.00  0.00     0.054 A 
HETATM    2  C   UNL     1      44.568 -11.776   7.171  1.00  0.00     0.149 A 
HETATM    3  N   UNL     1      45.071 -11.258   8.321  1.00  0.00    -0.235 NA
HETATM    4  C   UNL     1      44.477 -10.146   8.804  1.00  0.00     0.169 A 
HETATM    5  C   UNL     1      43.399  -9.533   8.188  1.00  0.00     0.060 A 
HETATM    6  C   UNL     1      42.904 -10.085   7.006  1.00  0.00     0.035 A 
ENDROOT
BRANCH   1   7
HETATM    7  N   UNL     1      42.970 -11.734   5.259  1.00  0.00    -0.307 N 
HETATM    8  C   UNL     1      41.944 -12.658   5.123  1.00  0.00     0.325 C 
HETATM    9  N   UNL     1      41.710 -12.933   3.789  1.00  0.00    -0.305 N 
HETATM   10  O   UNL     1      41.338 -13.155   6.061  1.00  0.00    -0.247 OA
HETATM   11  H   UNL     1      42.039 -12.259   3.116  1.00  0.00     0.171 HD
HETATM   12  H   UNL     1      43.460 -11.476   4.416  1.00  0.00     0.170 HD
BRANCH   9  13
HETATM   13  C   UNL     1      40.888 -13.927   3.280  1.00  0.00     0.086 A 
HETATM   14  C   UNL     1      39.643 -13.641   2.748  1.00  0.00     0.052 A 
HETATM   15  C   UNL     1      38.888 -12.378   2.585  1.00  0.00     0.072 C 
HETATM   16  N   UNL     1      39.125 -14.838   2.345  1.00  0.00    -0.280 N 
HETATM   17  H   UNL     1      38.223 -15.020   1.917  1.00  0.00     0.189 HD
HETATM   18  N   UNL     1      39.941 -15.875   2.545  1.00  0.00    -0.177 NA
HETATM   19  C   UNL     1      41.032 -15.337   3.113  1.00  0.00     0.079 A 
HETATM   20  C   UNL     1      42.169 -16.240   3.425  1.00  0.00     0.075 C 
ENDBRANCH   9  13
ENDBRANCH   1   7
BRANCH   4  21
HETATM   21  O   UNL     1      44.944  -9.537   9.965  1.00  0.00    -0.292 OA
BRANCH  21  22
HETATM   22  C   UNL     1      44.069  -9.474  11.022  1.00  0.00     0.078 A 
HETATM   23  C   UNL     1      43.617 -10.669  11.583  1.00  0.00     0.040 A 
HETATM   24  C   UNL     1      42.770 -10.633  12.690  1.00  0.00     0.045 A 
HETATM   25  C   UNL     1      42.399  -9.405  13.229  1.00  0.00     0.116 A 
HETATM   26  F   UNL     1      41.586  -9.373  14.294  1.00  0.00    -0.206 F 
HETATM   27  C   UNL     1      42.863  -8.210  12.687  1.00  0.00     0.045 A 
HETATM   28  C   UNL     1      43.713  -8.243  11.580  1.00  0.00     0.040 A 
ENDBRANCH  21  22
ENDBRANCH   4  21
TORSDOF 4
ENDMDL
MODEL 4
REMARK VINA RESULT:      -8.0      5.553      8.345
REMARK  4 active torsions:
REMARK  status: ('A' for Active; 'I' for Inactive)
REMARK    1  A    between atoms: C_8  and  N_9 
REMARK       I    between atoms: N_9  and  C_10 
REMARK       I    between atoms: C_10  and  N_11 
REMARK    2  A    between atoms: N_11  and  C_12 
REMARK    3  A    between atoms: C_15  and  O_16 
REMARK    4  A    between atoms: O_16  and  C_17 
ROOT
HETATM    1  C   UNL     1      42.202 -12.811   5.510  1.00  0.00     0.054 A 
HETATM    2  C   UNL     1      41.325 -13.879   5.680  1.00  0.00     0.149 A 
HETATM    3  N   UNL     1      41.240 -14.940   4.837  1.00  0.00    -0.235 NA
HETATM    4  C   UNL     1      42.071 -14.946   3.773  1.00  0.00     0.169 A 
HETATM    5  C   UNL     1      42.989 -13.939   3.521  1.00  0.00     0.060 A 
HETATM    6  C   UNL     1      43.053 -12.859   4.403  1.00  0.00     0.035 A 
ENDROOT
BRANCH   1   7
HETATM    7  N   UNL     1      42.294 -11.685   6.357  1.00  0.00    -0.307 N 
HETATM    8  C   UNL     1      43.186 -11.508   7.406  1.00  0.00     0.325 C 
HETATM    9  N   UNL     1      42.970 -10.293   8.028  1.00  0.00    -0.305 N 
HETATM   10  O   UNL     1      44.039 -12.322   7.727  1.00  0.00    -0.247 OA
HETATM   11  H   UNL     1      42.471  -9.591   7.505  1.00  0.00     0.171 HD
HETATM   12  H   UNL     1      41.572 -10.989   6.257  1.00  0.00     0.170 HD
BRANCH   9  13
HETATM   13  C   UNL     1      43.546  -9.854   9.211  1.00  0.00     0.086 A 
HETATM   14  C   UNL     1      44.878  -9.487   9.279  1.00  0.00     0.052 A 
HETATM   15  C   UNL     1      45.965  -9.461   8.274  1.00  0.00     0.072 C 
HETATM   16  N   UNL     1      45.096  -9.110  10.574  1.00  0.00    -0.280 N 
HETATM   17  H   UNL     1      45.960  -8.789  10.997  1.00  0.00     0.189 HD
HETATM   18  N   UNL     1      44.009  -9.174  11.345  1.00  0.00    -0.177 NA
HETATM   19  C   UNL     1      43.044  -9.623  10.527  1.00  0.00     0.079 A 
HETATM   20  C   UNL     1      41.673  -9.764  11.081  1.00  0.00     0.075 C 
ENDBRANCH   9  13
ENDBRANCH   1   7
BRANCH   4  21
HETATM   21  O   UNL     1      42.034 -15.984   2.847  1.00  0.00    -0.292 OA
BRANCH  21  22
HETATM   22  C   UNL     1      42.662 -17.152   3.205  1.00  0.00     0.078 A 
HETATM   23  C   UNL     1      42.793 -18.157   2.245  1.00  0.00     0.040 A 
HETATM   24  C   UNL     1      43.473 -19.331   2.567  1.00  0.00     0.045 A 
HETATM   25  C   UNL     1      44.023 -19.479   3.837  1.00  0.00     0.116 A 
HETATM   26  F   UNL     1      44.677 -20.608   4.144  1.00  0.00    -0.206 F 
HETATM   27  C   UNL     1      43.913 -18.471   4.792  1.00  0.00     0.045 A 
HETATM   28  C   UNL     1      43.236 -17.294   4.472  1.00  0.00     0.040 A 
ENDBRANCH  21  22
ENDBRANCH   4  21
TORSDOF 4
ENDMDL
MODEL 5
REMARK VINA RESULT:      -7.9      4.470      6.036
REMARK  4 active torsions:
REMARK  status: ('A' for Active; 'I' for Inactive)
REMARK    1  A    between atoms: C_8  and  N_9 
REMARK       I    between atoms: N_9  and  C_10 
REMARK       I    between atoms: C_10  and  N_11 
REMARK    2  A    between atoms: N_11  and  C_12 
REMARK    3  A    between atoms: C_15  and  O_16 
REMARK    4  A    between atoms: O_16  and  C_17 
ROOT
HETATM    1  C   UNL     1      42.135 -13.956   3.220  1.00  0.00     0.054 A 
HETATM    2  C   UNL     1      43.253 -14.201   2.428  1.00  0.00     0.149 A 
HETATM    3  N   UNL     1      43.578 -15.418   1.921  1.00  0.00    -0.235 NA
HETATM    4  C   UNL     1      42.749 -16.444   2.210  1.00  0.00     0.169 A 
HETATM    5  C   UNL     1      41.605 -16.303   2.978  1.00  0.00     0.060 A 
HETATM    6  C   UNL     1      41.297 -15.041   3.488  1.00  0.00     0.035 A 
ENDROOT
BRANCH   1   7
HETATM    7  N   UNL     1      41.786 -12.707   3.779  1.00  0.00    -0.307 N 
HETATM    8  C   UNL     1      41.848 -12.353   5.120  1.00  0.00     0.325 C 
HETATM    9  N   UNL     1      41.407 -11.056   5.300  1.00  0.00    -0.305 N 
HETATM   10  O   UNL     1      42.238 -13.095   6.009  1.00  0.00    -0.247 OA
HETATM   11  H   UNL     1      41.407 -10.453   4.494  1.00  0.00     0.171 HD
HETATM   12  H   UNL     1      41.351 -12.044   3.157  1.00  0.00     0.170 HD
BRANCH   9  13
HETATM   13  C   UNL     1      41.164 -10.425   6.512  1.00  0.00     0.086 A 
HETATM   14  C   UNL     1      39.887 -10.323   7.036  1.00  0.00     0.052 A 
HETATM   15  C   UNL     1      38.563 -10.768   6.546  1.00  0.00     0.072 C 
HETATM   16  N   UNL     1      40.022  -9.658   8.221  1.00  0.00    -0.280 N 
HETATM   17  H   UNL     1      39.297  -9.393   8.878  1.00  0.00     0.189 HD
HETATM   18  N   UNL     1      41.283  -9.346   8.525  1.00  0.00    -0.177 NA
HETATM   19  C   UNL     1      42.002  -9.813   7.492  1.00  0.00     0.079 A 
HETATM   20  C   UNL     1      43.478  -9.660   7.547  1.00  0.00     0.075 C 
ENDBRANCH   9  13
ENDBRANCH   1   7
BRANCH   4  21
HETATM   21  O   UNL     1      43.020 -17.729   1.750  1.00  0.00    -0.292 OA
BRANCH  21  22
HETATM   22  C   UNL     1      43.447 -18.641   2.684  1.00  0.00     0.078 A 
HETATM   23  C   UNL     1      43.831 -18.172   3.942  1.00  0.00     0.040 A 
HETATM   24  C   UNL     1      44.217 -19.081   4.927  1.00  0.00     0.045 A 
HETATM   25  C   UNL     1      44.201 -20.444   4.646  1.00  0.00     0.116 A 
HETATM   26  F   UNL     1      44.571 -21.315   5.594  1.00  0.00    -0.206 F 
HETATM   27  C   UNL     1      43.799 -20.918   3.400  1.00  0.00     0.045 A 
HETATM   28  C   UNL     1      43.410 -20.012   2.413  1.00  0.00     0.040 A 
ENDBRANCH  21  22
ENDBRANCH   4  21
TORSDOF 4
ENDMDL
MODEL 6
REMARK VINA RESULT:      -7.8      7.312      9.170
REMARK  4 active torsions:
REMARK  status: ('A' for Active; 'I' for Inactive)
REMARK    1  A    between atoms: C_8  and  N_9 
REMARK       I    between atoms: N_9  and  C_10 
REMARK       I    between atoms: C_10  and  N_11 
REMARK    2  A    between atoms: N_11  and  C_12 
REMARK    3  A    between atoms: C_15  and  O_16 
REMARK    4  A    between atoms: O_16  and  C_17 
ROOT
HETATM    1  C   UNL     1      43.927 -11.277   6.351  1.00  0.00     0.054 A 
HETATM    2  C   UNL     1      45.047 -11.673   7.078  1.00  0.00     0.149 A 
HETATM    3  N   UNL     1      45.459 -11.083   8.229  1.00  0.00    -0.235 NA
HETATM    4  C   UNL     1      44.720 -10.050   8.687  1.00  0.00     0.169 A 
HETATM    5  C   UNL     1      43.583  -9.587   8.046  1.00  0.00     0.060 A 
HETATM    6  C   UNL     1      43.183 -10.211   6.864  1.00  0.00     0.035 A 
ENDROOT
BRANCH   1   7
HETATM    7  N   UNL     1      43.490 -11.857   5.140  1.00  0.00    -0.307 N 
HETATM    8  C   UNL     1      42.430 -12.738   4.979  1.00  0.00     0.325 C 
HETATM    9  N   UNL     1      42.309 -13.116   3.655  1.00  0.00    -0.305 N 
HETATM   10  O   UNL     1      41.711 -13.122   5.889  1.00  0.00    -0.247 OA
HETATM   11  H   UNL     1      42.738 -12.520   2.965  1.00  0.00     0.171 HD
HETATM   12  H   UNL     1      44.071 -11.697   4.333  1.00  0.00     0.170 HD
BRANCH   9  13
HETATM   13  C   UNL     1      41.483 -14.110   3.149  1.00  0.00     0.086 A 
HETATM   14  C   UNL     1      41.931 -15.407   2.971  1.00  0.00     0.052 A 
HETATM   15  C   UNL     1      43.240 -16.058   3.207  1.00  0.00     0.072 C 
HETATM   16  N   UNL     1      40.869 -16.102   2.469  1.00  0.00    -0.280 N 
HETATM   17  H   UNL     1      40.827 -17.081   2.206  1.00  0.00     0.189 HD
HETATM   18  N   UNL     1      39.760 -15.373   2.335  1.00  0.00    -0.177 NA
HETATM   19  C   UNL     1      40.113 -14.147   2.753  1.00  0.00     0.079 A 
HETATM   20  C   UNL     1      39.069 -13.091   2.770  1.00  0.00     0.075 C 
ENDBRANCH   9  13
ENDBRANCH   1   7
BRANCH   4  21
HETATM   21  O   UNL     1      45.085  -9.373   9.847  1.00  0.00    -0.292 OA
BRANCH  21  22
HETATM   22  C   UNL     1      44.216  -9.457  10.908  1.00  0.00     0.078 A 
HETATM   23  C   UNL     1      43.650  -8.278  11.396  1.00  0.00     0.040 A 
HETATM   24  C   UNL     1      42.723  -8.339  12.437  1.00  0.00     0.045 A 
HETATM   25  C   UNL     1      42.366  -9.576  12.965  1.00  0.00     0.116 A 
HETATM   26  F   UNL     1      41.475  -9.633  13.964  1.00  0.00    -0.206 F 
HETATM   27  C   UNL     1      42.911 -10.757  12.467  1.00  0.00     0.045 A 
HETATM   28  C   UNL     1      43.837 -10.699  11.424  1.00  0.00     0.040 A 
ENDBRANCH  21  22
ENDBRANCH   4  21
TORSDOF 4
ENDMDL
MODEL 7
REMARK VINA RESULT:      -7.6      5.236      7.552
REMARK  4 active torsions:
REMARK  status: ('A' for Active; 'I' for Inactive)
REMARK    1  A    between atoms: C_8  and  N_9 
REMARK       I    between atoms: N_9  and  C_10 
REMARK       I    between atoms: C_10  and  N_11 
REMARK    2  A    between atoms: N_11  and  C_12 
REMARK    3  A    between atoms: C_15  and  O_16 
REMARK    4  A    between atoms: O_16  and  C_17 
ROOT
HETATM    1  C   UNL     1      42.380 -12.499   4.415  1.00  0.00     0.054 A 
HETATM    2  C   UNL     1      43.259 -12.787   3.374  1.00  0.00     0.149 A 
HETATM    3  N   UNL     1      43.266 -13.955   2.682  1.00  0.00    -0.235 NA
HETATM    4  C   UNL     1      42.353 -14.884   3.036  1.00  0.00     0.169 A 
HETATM    5  C   UNL     1      41.427 -14.691   4.049  1.00  0.00     0.060 A 
HETATM    6  C   UNL     1      41.443 -13.482   4.745  1.00  0.00     0.035 A 
ENDROOT
BRANCH   1   7
HETATM    7  N   UNL     1      42.365 -11.303   5.166  1.00  0.00    -0.307 N 
HETATM    8  C   UNL     1      42.948 -11.098   6.409  1.00  0.00     0.325 C 
HETATM    9  N   UNL     1      42.712  -9.810   6.850  1.00  0.00    -0.305 N 
HETATM   10  O   UNL     1      43.581 -11.947   7.019  1.00  0.00    -0.247 OA
HETATM   11  H   UNL     1      42.459  -9.125   6.156  1.00  0.00     0.171 HD
HETATM   12  H   UNL     1      41.783 -10.560   4.813  1.00  0.00     0.170 HD
BRANCH   9  13
HETATM   13  C   UNL     1      42.988  -9.303   8.112  1.00  0.00     0.086 A 
HETATM   14  C   UNL     1      41.985  -9.058   9.033  1.00  0.00     0.052 A 
HETATM   15  C   UNL     1      40.513  -9.215   8.980  1.00  0.00     0.072 C 
HETATM   16  N   UNL     1      42.610  -8.576  10.147  1.00  0.00    -0.280 N 
HETATM   17  H   UNL     1      42.193  -8.279  11.022  1.00  0.00     0.189 HD
HETATM   18  N   UNL     1      43.939  -8.516  10.037  1.00  0.00    -0.177 NA
HETATM   19  C   UNL     1      44.192  -8.963   8.797  1.00  0.00     0.079 A 
HETATM   20  C   UNL     1      45.612  -9.064   8.371  1.00  0.00     0.075 C 
ENDBRANCH   9  13
ENDBRANCH   1   7
BRANCH   4  21
HETATM   21  O   UNL     1      42.307 -16.118   2.394  1.00  0.00    -0.292 OA
BRANCH  21  22
HETATM   22  C   UNL     1      42.988 -17.150   2.993  1.00  0.00     0.078 A 
HETATM   23  C   UNL     1      43.457 -16.968   4.295  1.00  0.00     0.040 A 
HETATM   24  C   UNL     1      44.105 -18.018   4.946  1.00  0.00     0.045 A 
HETATM   25  C   UNL     1      44.262 -19.237   4.293  1.00  0.00     0.116 A 
HETATM   26  F   UNL     1      44.884 -20.244   4.920  1.00  0.00    -0.206 F 
HETATM   27  C   UNL     1      43.777 -19.430   3.002  1.00  0.00     0.045 A 
HETATM   28  C   UNL     1      43.126 -18.382   2.349  1.00  0.00     0.040 A 
ENDBRANCH  21  22
ENDBRANCH   4  21
TORSDOF 4
ENDMDL
MODEL 8
REMARK VINA RESULT:      -7.6      6.690      8.112
REMARK  4 active torsions:
REMARK  status: ('A' for Active; 'I' for Inactive)
REMARK    1  A    between atoms: C_8  and  N_9 
REMARK       I    between atoms: N_9  and  C_10 
REMARK       I    between atoms: C_10  and  N_11 
REMARK    2  A    between atoms: N_11  and  C_12 
REMARK    3  A    between atoms: C_15  and  O_16 
REMARK    4  A    between atoms: O_16  and  C_17 
ROOT
HETATM    1  C   UNL     1      43.874 -12.393   5.357  1.00  0.00     0.054 A 
HETATM    2  C   UNL     1      43.358 -12.719   6.609  1.00  0.00     0.149 A 
HETATM    3  N   UNL     1      43.838 -12.234   7.783  1.00  0.00    -0.235 NA
HETATM    4  C   UNL     1      44.879 -11.378   7.713  1.00  0.00     0.169 A 
HETATM    5  C   UNL     1      45.457 -10.980   6.518  1.00  0.00     0.060 A 
HETATM    6  C   UNL     1      44.945 -11.495   5.327  1.00  0.00     0.035 A 
ENDROOT
BRANCH   1   7
HETATM    7  N   UNL     1      43.410 -12.900   4.124  1.00  0.00    -0.307 N 
HETATM    8  C   UNL     1      42.338 -12.423   3.382  1.00  0.00     0.325 C 
HETATM    9  N   UNL     1      42.163 -13.180   2.240  1.00  0.00    -0.305 N 
HETATM   10  O   UNL     1      41.651 -11.466   3.706  1.00  0.00    -0.247 OA
HETATM   11  H   UNL     1      42.947 -13.727   1.924  1.00  0.00     0.171 HD
HETATM   12  H   UNL     1      43.833 -13.757   3.805  1.00  0.00     0.170 HD
BRANCH   9  13
HETATM   13  C   UNL     1      41.095 -13.110   1.356  1.00  0.00     0.086 A 
HETATM   14  C   UNL     1      40.127 -14.098   1.304  1.00  0.00     0.052 A 
HETATM   15  C   UNL     1      39.946 -15.366   2.047  1.00  0.00     0.072 C 
HETATM   16  N   UNL     1      39.243 -13.704   0.341  1.00  0.00    -0.280 N 
HETATM   17  H   UNL     1      38.409 -14.184   0.020  1.00  0.00     0.189 HD
HETATM   18  N   UNL     1      39.541 -12.530  -0.217  1.00  0.00    -0.177 NA
HETATM   19  C   UNL     1      40.671 -12.144   0.395  1.00  0.00     0.079 A 
HETATM   20  C   UNL     1      41.248 -10.827   0.024  1.00  0.00     0.075 C 
ENDBRANCH   9  13
ENDBRANCH   1   7
BRANCH   4  21
HETATM   21  O   UNL     1      45.447 -10.852   8.870  1.00  0.00    -0.292 OA
BRANCH  21  22
HETATM   22  C   UNL     1      44.693  -9.939   9.566  1.00  0.00     0.078 A 
HETATM   23  C   UNL     1      44.350 -10.232  10.887  1.00  0.00     0.040 A 
HETATM   24  C   UNL     1      43.631  -9.299  11.633  1.00  0.00     0.045 A 
HETATM   25  C   UNL     1      43.279  -8.082  11.056  1.00  0.00     0.116 A 
HETATM   26  F   UNL     1      42.589  -7.187  11.775  1.00  0.00    -0.206 F 
HETATM   27  C   UNL     1      43.638  -7.777   9.745  1.00  0.00     0.045 A 
HETATM   28  C   UNL     1      44.359  -8.707   8.996  1.00  0.00     0.040 A 
ENDBRANCH  21  22
ENDBRANCH   4  21
TORSDOF 4
ENDMDL
MODEL 9
REMARK VINA RESULT:      -7.6      3.665      4.501
REMARK  4 active torsions:
REMARK  status: ('A' for Active; 'I' for Inactive)
REMARK    1  A    between atoms: C_8  and  N_9 
REMARK       I    between atoms: N_9  and  C_10 
REMARK       I    between atoms: C_10  and  N_11 
REMARK    2  A    between atoms: N_11  and  C_12 
REMARK    3  A    between atoms: C_15  and  O_16 
REMARK    4  A    between atoms: O_16  and  C_17 
ROOT
HETATM    1  C   UNL     1      42.173 -14.088   3.001  1.00  0.00     0.054 A 
HETATM    2  C   UNL     1      43.197 -14.325   2.087  1.00  0.00     0.149 A 
HETATM    3  N   UNL     1      43.548 -15.556   1.635  1.00  0.00    -0.235 NA
HETATM    4  C   UNL     1      42.845 -16.607   2.108  1.00  0.00     0.169 A 
HETATM    5  C   UNL     1      41.801 -16.478   3.010  1.00  0.00     0.060 A 
HETATM    6  C   UNL     1      41.463 -15.201   3.459  1.00  0.00     0.035 A 
ENDROOT
BRANCH   1   7
HETATM    7  N   UNL     1      41.803 -12.822   3.506  1.00  0.00    -0.307 N 
HETATM    8  C   UNL     1      40.544 -12.444   3.952  1.00  0.00     0.325 C 
HETATM    9  N   UNL     1      40.549 -11.122   4.354  1.00  0.00    -0.305 N 
HETATM   10  O   UNL     1      39.574 -13.186   3.980  1.00  0.00    -0.247 OA
HETATM   11  H   UNL     1      41.441 -10.711   4.576  1.00  0.00     0.171 HD
HETATM   12  H   UNL     1      42.495 -12.093   3.435  1.00  0.00     0.170 HD
BRANCH   9  13
HETATM   13  C   UNL     1      39.442 -10.355   4.690  1.00  0.00     0.086 A 
HETATM   14  C   UNL     1      38.672  -9.727   3.727  1.00  0.00     0.052 A 
HETATM   15  C   UNL     1      38.767  -9.662   2.251  1.00  0.00     0.072 C 
HETATM   16  N   UNL     1      37.682  -9.077   4.407  1.00  0.00    -0.280 N 
HETATM   17  H   UNL     1      36.935  -8.503   4.031  1.00  0.00     0.189 HD
HETATM   18  N   UNL     1      37.727  -9.255   5.728  1.00  0.00    -0.177 NA
HETATM   19  C   UNL     1      38.797 -10.041   5.924  1.00  0.00     0.079 A 
HETATM   20  C   UNL     1      39.102 -10.468   7.314  1.00  0.00     0.075 C 
ENDBRANCH   9  13
ENDBRANCH   1   7
BRANCH   4  21
HETATM   21  O   UNL     1      43.154 -17.905   1.714  1.00  0.00    -0.292 OA
BRANCH  21  22
HETATM   22  C   UNL     1      43.549 -18.772   2.704  1.00  0.00     0.078 A 
HETATM   23  C   UNL     1      43.960 -18.239   3.927  1.00  0.00     0.040 A 
HETATM   24  C   UNL     1      44.315 -19.098   4.967  1.00  0.00     0.045 A 
HETATM   25  C   UNL     1      44.240 -20.474   4.776  1.00  0.00     0.116 A 
HETATM   26  F   UNL     1      44.580 -21.297   5.777  1.00  0.00    -0.206 F 
HETATM   27  C   UNL     1      43.810 -21.011   3.565  1.00  0.00     0.045 A 
HETATM   28  C   UNL     1      43.452 -20.154   2.523  1.00  0.00     0.040 A 
ENDBRANCH  21  22
ENDBRANCH   4  21
TORSDOF 4
ENDMDL
MODEL 10
REMARK VINA RESULT:      -7.5     14.564     16.747
REMARK  4 active torsions:
REMARK  status: ('A' for Active; 'I' for Inactive)
REMARK    1  A    between atoms: C_8  and  N_9 
REMARK       I    between atoms: N_9  and  C_10 
REMARK       I    between atoms: C_10  and  N_11 
REMARK    2  A    between atoms: N_11  and  C_12 
REMARK    3  A    between atoms: C_15  and  O_16 
REMARK    4  A    between atoms: O_16  and  C_17 
ROOT
HETATM    1  C   UNL     1      42.107  -6.833  13.990  1.00  0.00     0.054 A 
HETATM    2  C   UNL     1      41.024  -6.907  13.118  1.00  0.00     0.149 A 
HETATM    3  N   UNL     1      40.983  -7.700  12.016  1.00  0.00    -0.235 NA
HETATM    4  C   UNL     1      42.069  -8.463  11.769  1.00  0.00     0.169 A 
HETATM    5  C   UNL     1      43.192  -8.472  12.580  1.00  0.00     0.060 A 
HETATM    6  C   UNL     1      43.208  -7.646  13.705  1.00  0.00     0.035 A 
ENDROOT
BRANCH   1   7
HETATM    7  N   UNL     1      42.186  -6.001  15.128  1.00  0.00    -0.307 N 
HETATM    8  C   UNL     1      41.914  -6.363  16.440  1.00  0.00     0.325 C 
HETATM    9  N   UNL     1      42.075  -5.283  17.286  1.00  0.00    -0.305 N 
HETATM   10  O   UNL     1      41.577  -7.486  16.786  1.00  0.00    -0.247 OA
HETATM   11  H   UNL     1      42.638  -4.517  16.952  1.00  0.00     0.171 HD
HETATM   12  H   UNL     1      42.354  -5.022  14.956  1.00  0.00     0.170 HD
BRANCH   9  13
HETATM   13  C   UNL     1      41.725  -5.222  18.627  1.00  0.00     0.086 A 
HETATM   14  C   UNL     1      40.667  -4.447  19.069  1.00  0.00     0.052 A 
HETATM   15  C   UNL     1      39.717  -3.553  18.368  1.00  0.00     0.072 C 
HETATM   16  N   UNL     1      40.611  -4.629  20.421  1.00  0.00    -0.280 N 
HETATM   17  H   UNL     1      39.967  -4.211  21.084  1.00  0.00     0.189 HD
HETATM   18  N   UNL     1      41.525  -5.480  20.890  1.00  0.00    -0.177 NA
HETATM   19  C   UNL     1      42.216  -5.860  19.805  1.00  0.00     0.079 A 
HETATM   20  C   UNL     1      43.299  -6.860  19.987  1.00  0.00     0.075 C 
ENDBRANCH   9  13
ENDBRANCH   1   7
BRANCH   4  21
HETATM   21  O   UNL     1      42.119  -9.287  10.648  1.00  0.00    -0.292 OA
BRANCH  21  22
HETATM   22  C   UNL     1      43.274  -9.246   9.905  1.00  0.00     0.078 A 
HETATM   23  C   UNL     1      43.626  -8.044   9.289  1.00  0.00     0.040 A 
HETATM   24  C   UNL     1      44.820  -7.962   8.574  1.00  0.00     0.045 A 
HETATM   25  C   UNL     1      45.653  -9.075   8.498  1.00  0.00     0.116 A 
HETATM   26  F   UNL     1      46.800  -8.993   7.811  1.00  0.00    -0.206 F 
HETATM   27  C   UNL     1      45.317 -10.270   9.129  1.00  0.00     0.045 A 
HETATM   28  C   UNL     1      44.123 -10.355   9.847  1.00  0.00     0.040 A 
ENDBRANCH  21  22
ENDBRANCH   4  21
TORSDOF 4
ENDMDL
