MODEL 1
REMARK VINA RESULT:      -9.2      0.000      0.000
REMARK  4 active torsions:
REMARK  status: ('A' for Active; 'I' for Inactive)
REMARK    1  A    between atoms: C_9  and  C_10 
REMARK    2  A    between atoms: C_20  and  C_21 
REMARK       I    between atoms: C_21  and  N_22 
REMARK    3  A    between atoms: N_22  and  C_23 
REMARK    4  A    between atoms: C_24  and  O_25 
ROOT
HETATM    1  C   UNL     1      39.621 -10.999   6.032  1.00  0.00     0.070 C 
HETATM    2  C   UNL     1      41.008 -11.592   6.032  1.00  0.00     0.037 C 
HETATM    3  N   UNL     1      41.892 -11.067   6.972  1.00  0.00    -0.192 N 
HETATM    4  C   UNL     1      43.228 -11.233   6.878  1.00  0.00     0.725 A 
HETATM    5  N   UNL     1      43.730 -12.142   5.984  1.00  0.00    -0.084 N 
HETATM    6  N   UNL     1      45.078 -12.102   5.948  1.00  0.00    -0.149 NA
HETATM    7  C   UNL     1      45.321 -11.182   6.890  1.00  0.00     0.275 A 
HETATM    8  N   UNL     1      44.216 -10.628   7.486  1.00  0.00    -0.054 NA
HETATM    9  C   UNL     1      42.894 -13.005   5.135  1.00  0.00     0.203 C 
HETATM   10  C   UNL     1      41.451 -12.517   5.142  1.00  0.00     0.062 C 
HETATM   11  H   UNL     1      41.557 -10.291   7.540  1.00  0.00     0.184 HD
ENDROOT
BRANCH  10  12
HETATM   12  C   UNL     1      40.630 -12.974   3.996  1.00  0.00     0.256 C 
HETATM   13  N   UNL     1      41.121 -12.584   2.776  1.00  0.00    -0.321 N 
HETATM   14  H   UNL     1      41.859 -11.887   2.746  1.00  0.00     0.169 HD
HETATM   15  O   UNL     1      39.616 -13.624   4.221  1.00  0.00    -0.267 OA
BRANCH  13  16
HETATM   16  C   UNL     1      40.748 -13.077   1.505  1.00  0.00     0.068 A 
HETATM   17  C   UNL     1      40.900 -12.208   0.404  1.00  0.00     0.095 A 
HETATM   18  C   UNL     1      40.626 -12.668  -0.889  1.00  0.00     0.039 A 
HETATM   19  C   UNL     1      40.187 -13.977  -1.089  1.00  0.00     0.003 A 
HETATM   20  C   UNL     1      40.018 -14.831  -0.001  1.00  0.00     0.002 A 
HETATM   21  C   UNL     1      40.297 -14.383   1.291  1.00  0.00     0.032 A 
BRANCH  17  22
HETATM   22  O   UNL     1      41.354 -10.942   0.698  1.00  0.00    -0.354 OA
HETATM   23  C   UNL     1      41.458 -10.048  -0.405  1.00  0.00     0.210 C 
ENDBRANCH  17  22
ENDBRANCH  13  16
ENDBRANCH  10  12
BRANCH   9  24
HETATM   24  C   UNL     1      43.017 -14.461   5.611  1.00  0.00    -0.017 A 
HETATM   25  C   UNL     1      43.172 -15.558   4.708  1.00  0.00    -0.017 A 
HETATM   26  C   UNL     1      43.349 -16.861   5.249  1.00  0.00    -0.025 A 
HETATM   27  C   UNL     1      43.171 -15.449   3.295  1.00  0.00     0.013 A 
HETATM   28  C   UNL     1      43.537 -17.966   4.402  1.00  0.00     0.012 A 
HETATM   29  C   UNL     1      43.346 -17.060   6.635  1.00  0.00     0.012 A 
HETATM   30  C   UNL     1      43.543 -17.818   3.019  1.00  0.00     0.001 A 
HETATM   31  C   UNL     1      43.354 -16.560   2.466  1.00  0.00     0.001 A 
HETATM   32  C   UNL     1      43.168 -15.997   7.510  1.00  0.00     0.002 A 
HETATM   33  C   UNL     1      43.005 -14.713   7.004  1.00  0.00     0.010 A 
ENDBRANCH   9  24
TORSDOF 4
ENDMDL
MODEL 2
REMARK VINA RESULT:      -8.9      1.827      2.533
REMARK  4 active torsions:
REMARK  status: ('A' for Active; 'I' for Inactive)
REMARK    1  A    between atoms: C_9  and  C_10 
REMARK    2  A    between atoms: C_20  and  C_21 
REMARK       I    between atoms: C_21  and  N_22 
REMARK    3  A    between atoms: N_22  and  C_23 
REMARK    4  A    between atoms: C_24  and  O_25 
ROOT
HETATM    1  C   UNL     1      40.368  -8.935   4.044  1.00  0.00     0.070 C 
HETATM    2  C   UNL     1      41.314 -10.016   4.503  1.00  0.00     0.037 C 
HETATM    3  N   UNL     1      41.800  -9.885   5.802  1.00  0.00    -0.192 N 
HETATM    4  C   UNL     1      42.891 -10.552   6.234  1.00  0.00     0.725 A 
HETATM    5  N   UNL     1      43.400 -11.571   5.474  1.00  0.00    -0.084 N 
HETATM    6  N   UNL     1      44.545 -12.053   6.002  1.00  0.00    -0.149 NA
HETATM    7  C   UNL     1      44.634 -11.311   7.112  1.00  0.00     0.275 A 
HETATM    8  N   UNL     1      43.640 -10.382   7.294  1.00  0.00    -0.054 NA
HETATM    9  C   UNL     1      42.799 -12.034   4.214  1.00  0.00     0.203 C 
HETATM   10  C   UNL     1      41.767 -11.028   3.719  1.00  0.00     0.062 C 
HETATM   11  H   UNL     1      41.531  -9.048   6.314  1.00  0.00     0.184 HD
ENDROOT
BRANCH  10  12
HETATM   12  C   UNL     1      41.448 -11.118   2.275  1.00  0.00     0.256 C 
HETATM   13  N   UNL     1      40.315 -11.843   2.005  1.00  0.00    -0.321 N 
HETATM   14  H   UNL     1      39.903 -12.401   2.747  1.00  0.00     0.169 HD
HETATM   15  O   UNL     1      42.195 -10.573   1.471  1.00  0.00    -0.267 OA
BRANCH  13  16
HETATM   16  C   UNL     1      39.592 -11.885   0.791  1.00  0.00     0.068 A 
HETATM   17  C   UNL     1      39.654 -13.077   0.040  1.00  0.00     0.095 A 
HETATM   18  C   UNL     1      38.894 -13.206  -1.128  1.00  0.00     0.039 A 
HETATM   19  C   UNL     1      38.089 -12.152  -1.559  1.00  0.00     0.003 A 
HETATM   20  C   UNL     1      38.040 -10.967  -0.829  1.00  0.00     0.002 A 
HETATM   21  C   UNL     1      38.789 -10.832   0.341  1.00  0.00     0.032 A 
BRANCH  17  22
HETATM   22  O   UNL     1      40.463 -14.066   0.554  1.00  0.00    -0.354 OA
HETATM   23  C   UNL     1      39.895 -15.371   0.601  1.00  0.00     0.210 C 
ENDBRANCH  17  22
ENDBRANCH  13  16
ENDBRANCH  10  12
BRANCH   9  24
HETATM   24  C   UNL     1      42.193 -13.432   4.420  1.00  0.00    -0.017 A 
HETATM   25  C   UNL     1      42.488 -14.535   3.561  1.00  0.00    -0.017 A 
HETATM   26  C   UNL     1      41.935 -15.806   3.877  1.00  0.00    -0.025 A 
HETATM   27  C   UNL     1      43.304 -14.465   2.405  1.00  0.00     0.013 A 
HETATM   28  C   UNL     1      42.221 -16.927   3.081  1.00  0.00     0.012 A 
HETATM   29  C   UNL     1      41.102 -15.960   4.993  1.00  0.00     0.012 A 
HETATM   30  C   UNL     1      43.038 -16.822   1.960  1.00  0.00     0.001 A 
HETATM   31  C   UNL     1      43.576 -15.590   1.620  1.00  0.00     0.001 A 
HETATM   32  C   UNL     1      40.796 -14.880   5.811  1.00  0.00     0.002 A 
HETATM   33  C   UNL     1      41.334 -13.631   5.528  1.00  0.00     0.010 A 
ENDBRANCH   9  24
TORSDOF 4
ENDMDL
MODEL 3
REMARK VINA RESULT:      -8.8      2.008      5.901
REMARK  4 active torsions:
REMARK  status: ('A' for Active; 'I' for Inactive)
REMARK    1  A    between atoms: C_9  and  C_10 
REMARK    2  A    between atoms: C_20  and  C_21 
REMARK       I    between atoms: C_21  and  N_22 
REMARK    3  A    between atoms: N_22  and  C_23 
REMARK    4  A    between atoms: C_24  and  O_25 
ROOT
HETATM    1  C   UNL     1      44.357 -11.978   5.639  1.00  0.00     0.070 C 
HETATM    2  C   UNL     1      42.896 -11.919   5.271  1.00  0.00     0.037 C 
HETATM    3  N   UNL     1      42.126 -11.006   5.989  1.00  0.00    -0.192 N 
HETATM    4  C   UNL     1      40.779 -11.070   6.026  1.00  0.00     0.725 A 
HETATM    5  N   UNL     1      40.121 -11.891   5.148  1.00  0.00    -0.084 N 
HETATM    6  N   UNL     1      38.795 -11.911   5.395  1.00  0.00    -0.149 NA
HETATM    7  C   UNL     1      38.720 -11.034   6.402  1.00  0.00     0.275 A 
HETATM    8  N   UNL     1      39.911 -10.493   6.817  1.00  0.00    -0.054 NA
HETATM    9  C   UNL     1      40.793 -12.688   4.111  1.00  0.00     0.203 C 
HETATM   10  C   UNL     1      42.294 -12.735   4.368  1.00  0.00     0.062 C 
HETATM   11  H   UNL     1      42.591 -10.499   6.740  1.00  0.00     0.184 HD
ENDROOT
BRANCH  10  12
HETATM   12  C   UNL     1      43.007 -13.856   3.713  1.00  0.00     0.256 C 
HETATM   13  N   UNL     1      42.926 -15.039   4.403  1.00  0.00    -0.321 N 
HETATM   14  H   UNL     1      42.571 -15.028   5.355  1.00  0.00     0.169 HD
HETATM   15  O   UNL     1      43.597 -13.644   2.660  1.00  0.00    -0.267 OA
BRANCH  13  16
HETATM   16  C   UNL     1      43.244 -16.333   3.928  1.00  0.00     0.068 A 
HETATM   17  C   UNL     1      44.037 -17.150   4.759  1.00  0.00     0.095 A 
HETATM   18  C   UNL     1      44.316 -18.468   4.379  1.00  0.00     0.039 A 
HETATM   19  C   UNL     1      43.823 -18.969   3.173  1.00  0.00     0.003 A 
HETATM   20  C   UNL     1      43.055 -18.157   2.343  1.00  0.00     0.002 A 
HETATM   21  C   UNL     1      42.766 -16.843   2.717  1.00  0.00     0.032 A 
BRANCH  17  22
HETATM   22  O   UNL     1      44.463 -16.575   5.935  1.00  0.00    -0.354 OA
HETATM   23  C   UNL     1      43.859 -17.073   7.125  1.00  0.00     0.210 C 
ENDBRANCH  17  22
ENDBRANCH  13  16
ENDBRANCH  10  12
BRANCH   9  24
HETATM   24  C   UNL     1      40.459 -12.110   2.727  1.00  0.00    -0.017 A 
HETATM   25  C   UNL     1      40.200 -12.933   1.588  1.00  0.00    -0.017 A 
HETATM   26  C   UNL     1      39.830 -12.305   0.367  1.00  0.00    -0.025 A 
HETATM   27  C   UNL     1      40.278 -14.348   1.578  1.00  0.00     0.013 A 
HETATM   28  C   UNL     1      39.535 -13.073  -0.771  1.00  0.00     0.012 A 
HETATM   29  C   UNL     1      39.746 -10.909   0.285  1.00  0.00     0.012 A 
HETATM   30  C   UNL     1      39.610 -14.462  -0.738  1.00  0.00     0.001 A 
HETATM   31  C   UNL     1      39.986 -15.099   0.435  1.00  0.00     0.001 A 
HETATM   32  C   UNL     1      40.024 -10.110   1.386  1.00  0.00     0.002 A 
HETATM   33  C   UNL     1      40.377 -10.703   2.592  1.00  0.00     0.010 A 
ENDBRANCH   9  24
TORSDOF 4
ENDMDL
MODEL 4
REMARK VINA RESULT:      -8.6      2.631      6.315
REMARK  4 active torsions:
REMARK  status: ('A' for Active; 'I' for Inactive)
REMARK    1  A    between atoms: C_9  and  C_10 
REMARK    2  A    between atoms: C_20  and  C_21 
REMARK       I    between atoms: C_21  and  N_22 
REMARK    3  A    between atoms: N_22  and  C_23 
REMARK    4  A    between atoms: C_24  and  O_25 
ROOT
HETATM    1  C   UNL     1      40.063 -15.796   0.849  1.00  0.00     0.070 C 
HETATM    2  C   UNL     1      40.249 -14.350   1.232  1.00  0.00     0.037 C 
HETATM    3  N   UNL     1      39.302 -13.462   0.725  1.00  0.00    -0.192 N 
HETATM    4  C   UNL     1      39.512 -12.129   0.685  1.00  0.00     0.725 A 
HETATM    5  N   UNL     1      40.565 -11.594   1.379  1.00  0.00    -0.084 N 
HETATM    6  N   UNL     1      40.687 -10.271   1.143  1.00  0.00    -0.149 NA
HETATM    7  C   UNL     1      39.636 -10.068   0.340  1.00  0.00     0.275 A 
HETATM    8  N   UNL     1      38.888 -11.178   0.038  1.00  0.00    -0.054 NA
HETATM    9  C   UNL     1      41.476 -12.382   2.223  1.00  0.00     0.203 C 
HETATM   10  C   UNL     1      41.296 -13.870   1.951  1.00  0.00     0.062 C 
HETATM   11  H   UNL     1      38.602 -13.844   0.092  1.00  0.00     0.184 HD
ENDROOT
BRANCH  10  12
HETATM   12  C   UNL     1      42.439 -14.723   2.354  1.00  0.00     0.256 C 
HETATM   13  N   UNL     1      42.105 -15.701   3.257  1.00  0.00    -0.321 N 
HETATM   14  H   UNL     1      41.197 -15.659   3.711  1.00  0.00     0.169 HD
HETATM   15  O   UNL     1      43.544 -14.489   1.881  1.00  0.00    -0.267 OA
BRANCH  13  16
HETATM   16  C   UNL     1      42.873 -16.831   3.621  1.00  0.00     0.068 A 
HETATM   17  C   UNL     1      43.233 -16.958   4.979  1.00  0.00     0.095 A 
HETATM   18  C   UNL     1      43.923 -18.096   5.413  1.00  0.00     0.039 A 
HETATM   19  C   UNL     1      44.268 -19.096   4.503  1.00  0.00     0.003 A 
HETATM   20  C   UNL     1      43.929 -18.963   3.158  1.00  0.00     0.002 A 
HETATM   21  C   UNL     1      43.235 -17.835   2.718  1.00  0.00     0.032 A 
BRANCH  17  22
HETATM   22  O   UNL     1      42.835 -15.930   5.803  1.00  0.00    -0.354 OA
HETATM   23  C   UNL     1      43.882 -15.183   6.414  1.00  0.00     0.210 C 
ENDBRANCH  17  22
ENDBRANCH  13  16
ENDBRANCH  10  12
BRANCH   9  24
HETATM   24  C   UNL     1      41.236 -12.030   3.700  1.00  0.00    -0.017 A 
HETATM   25  C   UNL     1      42.301 -11.740   4.608  1.00  0.00    -0.017 A 
HETATM   26  C   UNL     1      41.973 -11.354   5.936  1.00  0.00    -0.025 A 
HETATM   27  C   UNL     1      43.679 -11.801   4.283  1.00  0.00     0.013 A 
HETATM   28  C   UNL     1      42.984 -11.029   6.855  1.00  0.00     0.012 A 
HETATM   29  C   UNL     1      40.635 -11.285   6.345  1.00  0.00     0.012 A 
HETATM   30  C   UNL     1      44.326 -11.088   6.496  1.00  0.00     0.001 A 
HETATM   31  C   UNL     1      44.674 -11.479   5.212  1.00  0.00     0.001 A 
HETATM   32  C   UNL     1      39.603 -11.593   5.469  1.00  0.00     0.002 A 
HETATM   33  C   UNL     1      39.899 -11.961   4.162  1.00  0.00     0.010 A 
ENDBRANCH   9  24
TORSDOF 4
ENDMDL
MODEL 5
REMARK VINA RESULT:      -8.6      2.243      4.886
REMARK  4 active torsions:
REMARK  status: ('A' for Active; 'I' for Inactive)
REMARK    1  A    between atoms: C_9  and  C_10 
REMARK    2  A    between atoms: C_20  and  C_21 
REMARK       I    between atoms: C_21  and  N_22 
REMARK    3  A    between atoms: N_22  and  C_23 
REMARK    4  A    between atoms: C_24  and  O_25 
ROOT
HETATM    1  C   UNL     1      42.728 -17.336   1.913  1.00  0.00     0.070 C 
HETATM    2  C   UNL     1      42.633 -16.524   3.181  1.00  0.00     0.037 C 
HETATM    3  N   UNL     1      43.569 -16.829   4.167  1.00  0.00    -0.192 N 
HETATM    4  C   UNL     1      43.411 -16.451   5.453  1.00  0.00     0.725 A 
HETATM    5  N   UNL     1      42.441 -15.537   5.770  1.00  0.00    -0.084 N 
HETATM    6  N   UNL     1      42.353 -15.356   7.104  1.00  0.00    -0.149 NA
HETATM    7  C   UNL     1      43.341 -16.155   7.524  1.00  0.00     0.275 A 
HETATM    8  N   UNL     1      44.016 -16.840   6.545  1.00  0.00    -0.054 NA
HETATM    9  C   UNL     1      41.573 -14.885   4.777  1.00  0.00     0.203 C 
HETATM   10  C   UNL     1      41.669 -15.603   3.437  1.00  0.00     0.062 C 
HETATM   11  H   UNL     1      44.198 -17.607   3.983  1.00  0.00     0.184 HD
ENDROOT
BRANCH  10  12
HETATM   12  C   UNL     1      40.530 -15.369   2.518  1.00  0.00     0.256 C 
HETATM   13  N   UNL     1      40.739 -14.341   1.633  1.00  0.00    -0.321 N 
HETATM   14  H   UNL     1      41.528 -13.719   1.782  1.00  0.00     0.169 HD
HETATM   15  O   UNL     1      39.533 -16.072   2.625  1.00  0.00    -0.267 OA
BRANCH  13  16
HETATM   16  C   UNL     1      39.993 -14.048   0.468  1.00  0.00     0.068 A 
HETATM   17  C   UNL     1      39.449 -12.751   0.357  1.00  0.00     0.095 A 
HETATM   18  C   UNL     1      38.772 -12.377  -0.809  1.00  0.00     0.039 A 
HETATM   19  C   UNL     1      38.620 -13.289  -1.854  1.00  0.00     0.003 A 
HETATM   20  C   UNL     1      39.141 -14.576  -1.739  1.00  0.00     0.002 A 
HETATM   21  C   UNL     1      39.824 -14.955  -0.582  1.00  0.00     0.032 A 
BRANCH  17  22
HETATM   22  O   UNL     1      39.665 -11.917   1.431  1.00  0.00    -0.354 OA
HETATM   23  C   UNL     1      38.516 -11.600   2.211  1.00  0.00     0.210 C 
ENDBRANCH  17  22
ENDBRANCH  13  16
ENDBRANCH  10  12
BRANCH   9  24
HETATM   24  C   UNL     1      41.948 -13.399   4.668  1.00  0.00    -0.017 A 
HETATM   25  C   UNL     1      41.108 -12.352   5.157  1.00  0.00    -0.017 A 
HETATM   26  C   UNL     1      41.576 -11.012   5.074  1.00  0.00    -0.025 A 
HETATM   27  C   UNL     1      39.828 -12.545   5.733  1.00  0.00     0.013 A 
HETATM   28  C   UNL     1      40.800  -9.952   5.570  1.00  0.00     0.012 A 
HETATM   29  C   UNL     1      42.824 -10.731   4.502  1.00  0.00     0.012 A 
HETATM   30  C   UNL     1      39.552 -10.182   6.141  1.00  0.00     0.001 A 
HETATM   31  C   UNL     1      39.064 -11.477   6.218  1.00  0.00     0.001 A 
HETATM   32  C   UNL     1      43.627 -11.748   4.003  1.00  0.00     0.002 A 
HETATM   33  C   UNL     1      43.194 -13.065   4.084  1.00  0.00     0.010 A 
ENDBRANCH   9  24
TORSDOF 4
ENDMDL
MODEL 6
REMARK VINA RESULT:      -8.3      3.133      6.849
REMARK  4 active torsions:
REMARK  status: ('A' for Active; 'I' for Inactive)
REMARK    1  A    between atoms: C_9  and  C_10 
REMARK    2  A    between atoms: C_20  and  C_21 
REMARK       I    between atoms: C_21  and  N_22 
REMARK    3  A    between atoms: N_22  and  C_23 
REMARK    4  A    between atoms: C_24  and  O_25 
ROOT
HETATM    1  C   UNL     1      39.066 -14.538  -2.104  1.00  0.00     0.070 C 
HETATM    2  C   UNL     1      39.693 -13.331  -1.452  1.00  0.00     0.037 C 
HETATM    3  N   UNL     1      39.635 -12.148  -2.185  1.00  0.00    -0.192 N 
HETATM    4  C   UNL     1      40.428 -11.090  -1.910  1.00  0.00     0.725 A 
HETATM    5  N   UNL     1      41.136 -11.069  -0.737  1.00  0.00    -0.084 N 
HETATM    6  N   UNL     1      41.952  -9.995  -0.677  1.00  0.00    -0.149 NA
HETATM    7  C   UNL     1      41.639  -9.385  -1.826  1.00  0.00     0.275 A 
HETATM    8  N   UNL     1      40.708 -10.020  -2.609  1.00  0.00    -0.054 NA
HETATM    9  C   UNL     1      41.054 -12.117   0.290  1.00  0.00     0.203 C 
HETATM   10  C   UNL     1      40.359 -13.353  -0.269  1.00  0.00     0.062 C 
HETATM   11  H   UNL     1      39.234 -12.201  -3.118  1.00  0.00     0.184 HD
ENDROOT
BRANCH  10  12
HETATM   12  C   UNL     1      40.629 -14.610   0.468  1.00  0.00     0.256 C 
HETATM   13  N   UNL     1      41.888 -14.672   1.010  1.00  0.00    -0.321 N 
HETATM   14  H   UNL     1      42.578 -13.982   0.725  1.00  0.00     0.169 HD
HETATM   15  O   UNL     1      39.750 -15.462   0.521  1.00  0.00    -0.267 OA
BRANCH  13  16
HETATM   16  C   UNL     1      42.358 -15.581   1.985  1.00  0.00     0.068 A 
HETATM   17  C   UNL     1      41.846 -15.450   3.293  1.00  0.00     0.095 A 
HETATM   18  C   UNL     1      42.212 -16.372   4.280  1.00  0.00     0.039 A 
HETATM   19  C   UNL     1      43.094 -17.409   3.978  1.00  0.00     0.003 A 
HETATM   20  C   UNL     1      43.615 -17.530   2.691  1.00  0.00     0.002 A 
HETATM   21  C   UNL     1      43.250 -16.619   1.698  1.00  0.00     0.032 A 
BRANCH  17  22
HETATM   22  O   UNL     1      40.970 -14.406   3.491  1.00  0.00    -0.354 OA
HETATM   23  C   UNL     1      40.660 -14.105   4.847  1.00  0.00     0.210 C 
ENDBRANCH  17  22
ENDBRANCH  13  16
ENDBRANCH  10  12
BRANCH   9  24
HETATM   24  C   UNL     1      40.337 -11.561   1.531  1.00  0.00    -0.017 A 
HETATM   25  C   UNL     1      41.034 -11.188   2.722  1.00  0.00    -0.017 A 
HETATM   26  C   UNL     1      40.290 -10.615   3.790  1.00  0.00    -0.025 A 
HETATM   27  C   UNL     1      42.428 -11.339   2.925  1.00  0.00     0.013 A 
HETATM   28  C   UNL     1      40.935 -10.204   4.968  1.00  0.00     0.012 A 
HETATM   29  C   UNL     1      38.904 -10.446   3.679  1.00  0.00     0.012 A 
HETATM   30  C   UNL     1      42.308 -10.357   5.126  1.00  0.00     0.001 A 
HETATM   31  C   UNL     1      43.054 -10.928   4.107  1.00  0.00     0.001 A 
HETATM   32  C   UNL     1      38.226 -10.834   2.531  1.00  0.00     0.002 A 
HETATM   33  C   UNL     1      38.934 -11.385   1.470  1.00  0.00     0.010 A 
ENDBRANCH   9  24
TORSDOF 4
ENDMDL
MODEL 7
REMARK VINA RESULT:      -7.9     16.068     19.338
REMARK  4 active torsions:
REMARK  status: ('A' for Active; 'I' for Inactive)
REMARK    1  A    between atoms: C_9  and  C_10 
REMARK    2  A    between atoms: C_20  and  C_21 
REMARK       I    between atoms: C_21  and  N_22 
REMARK    3  A    between atoms: N_22  and  C_23 
REMARK    4  A    between atoms: C_24  and  O_25 
ROOT
HETATM    1  C   UNL     1      47.726 -28.216   2.341  1.00  0.00     0.070 C 
HETATM    2  C   UNL     1      46.636 -28.868   1.529  1.00  0.00     0.037 C 
HETATM    3  N   UNL     1      45.340 -28.713   2.019  1.00  0.00    -0.192 N 
HETATM    4  C   UNL     1      44.319 -29.499   1.619  1.00  0.00     0.725 A 
HETATM    5  N   UNL     1      44.484 -30.311   0.527  1.00  0.00    -0.084 N 
HETATM    6  N   UNL     1      43.407 -31.100   0.335  1.00  0.00    -0.149 NA
HETATM    7  C   UNL     1      42.608 -30.668   1.318  1.00  0.00     0.275 A 
HETATM    8  N   UNL     1      43.127 -29.686   2.124  1.00  0.00    -0.054 NA
HETATM    9  C   UNL     1      45.708 -30.349  -0.288  1.00  0.00     0.203 C 
HETATM   10  C   UNL     1      46.847 -29.639   0.432  1.00  0.00     0.062 C 
HETATM   11  H   UNL     1      45.237 -28.229   2.908  1.00  0.00     0.184 HD
ENDROOT
BRANCH  10  12
HETATM   12  C   UNL     1      48.206 -30.008  -0.029  1.00  0.00     0.256 C 
HETATM   13  N   UNL     1      48.634 -31.226   0.435  1.00  0.00    -0.321 N 
HETATM   14  H   UNL     1      48.107 -31.681   1.175  1.00  0.00     0.169 HD
HETATM   15  O   UNL     1      48.817 -29.225  -0.746  1.00  0.00    -0.267 OA
BRANCH  13  16
HETATM   16  C   UNL     1      49.734 -31.983  -0.031  1.00  0.00     0.068 A 
HETATM   17  C   UNL     1      49.473 -32.977  -0.998  1.00  0.00     0.095 A 
HETATM   18  C   UNL     1      50.532 -33.701  -1.556  1.00  0.00     0.039 A 
HETATM   19  C   UNL     1      51.842 -33.454  -1.146  1.00  0.00     0.003 A 
HETATM   20  C   UNL     1      52.100 -32.486  -0.178  1.00  0.00     0.002 A 
HETATM   21  C   UNL     1      51.050 -31.753   0.378  1.00  0.00     0.032 A 
BRANCH  17  22
HETATM   22  O   UNL     1      48.151 -33.136  -1.350  1.00  0.00    -0.354 OA
HETATM   23  C   UNL     1      47.863 -34.247  -2.194  1.00  0.00     0.210 C 
ENDBRANCH  17  22
ENDBRANCH  13  16
ENDBRANCH  10  12
BRANCH   9  24
HETATM   24  C   UNL     1      45.421 -29.735  -1.668  1.00  0.00    -0.017 A 
HETATM   25  C   UNL     1      45.018 -30.518  -2.793  1.00  0.00    -0.017 A 
HETATM   26  C   UNL     1      44.706 -29.848  -4.008  1.00  0.00    -0.025 A 
HETATM   27  C   UNL     1      44.895 -31.929  -2.794  1.00  0.00     0.013 A 
HETATM   28  C   UNL     1      44.275 -30.571  -5.132  1.00  0.00     0.012 A 
HETATM   29  C   UNL     1      44.818 -28.454  -4.099  1.00  0.00     0.012 A 
HETATM   30  C   UNL     1      44.154 -31.957  -5.091  1.00  0.00     0.001 A 
HETATM   31  C   UNL     1      44.468 -32.636  -3.924  1.00  0.00     0.001 A 
HETATM   32  C   UNL     1      45.236 -27.699  -3.012  1.00  0.00     0.002 A 
HETATM   33  C   UNL     1      45.535 -28.331  -1.811  1.00  0.00     0.010 A 
ENDBRANCH   9  24
TORSDOF 4
ENDMDL
MODEL 8
REMARK VINA RESULT:      -7.9      2.306      5.041
REMARK  4 active torsions:
REMARK  status: ('A' for Active; 'I' for Inactive)
REMARK    1  A    between atoms: C_9  and  C_10 
REMARK    2  A    between atoms: C_20  and  C_21 
REMARK       I    between atoms: C_21  and  N_22 
REMARK    3  A    between atoms: N_22  and  C_23 
REMARK    4  A    between atoms: C_24  and  O_25 
ROOT
HETATM    1  C   UNL     1      43.445 -15.217   1.632  1.00  0.00     0.070 C 
HETATM    2  C   UNL     1      43.110 -14.996   3.085  1.00  0.00     0.037 C 
HETATM    3  N   UNL     1      43.521 -15.998   3.962  1.00  0.00    -0.192 N 
HETATM    4  C   UNL     1      43.013 -16.121   5.206  1.00  0.00     0.725 A 
HETATM    5  N   UNL     1      42.258 -15.102   5.727  1.00  0.00    -0.084 N 
HETATM    6  N   UNL     1      41.747 -15.436   6.930  1.00  0.00    -0.149 NA
HETATM    7  C   UNL     1      42.282 -16.651   7.095  1.00  0.00     0.275 A 
HETATM    8  N   UNL     1      43.067 -17.106   6.065  1.00  0.00    -0.054 NA
HETATM    9  C   UNL     1      41.998 -13.835   5.028  1.00  0.00     0.203 C 
HETATM   10  C   UNL     1      42.384 -13.950   3.559  1.00  0.00     0.062 C 
HETATM   11  H   UNL     1      43.956 -16.821   3.551  1.00  0.00     0.184 HD
ENDROOT
BRANCH  10  12
HETATM   12  C   UNL     1      41.749 -12.954   2.664  1.00  0.00     0.256 C 
HETATM   13  N   UNL     1      40.468 -13.280   2.298  1.00  0.00    -0.321 N 
HETATM   14  H   UNL     1      40.127 -14.218   2.491  1.00  0.00     0.169 HD
HETATM   15  O   UNL     1      42.395 -11.969   2.327  1.00  0.00    -0.267 OA
BRANCH  13  16
HETATM   16  C   UNL     1      39.505 -12.435   1.700  1.00  0.00     0.068 A 
HETATM   17  C   UNL     1      39.261 -12.605   0.321  1.00  0.00     0.095 A 
HETATM   18  C   UNL     1      38.262 -11.853  -0.307  1.00  0.00     0.039 A 
HETATM   19  C   UNL     1      37.519 -10.926   0.423  1.00  0.00     0.003 A 
HETATM   20  C   UNL     1      37.771 -10.743   1.781  1.00  0.00     0.002 A 
HETATM   21  C   UNL     1      38.761 -11.494   2.418  1.00  0.00     0.032 A 
BRANCH  17  22
HETATM   22  O   UNL     1      40.033 -13.554  -0.311  1.00  0.00    -0.354 OA
HETATM   23  C   UNL     1      40.247 -13.353  -1.704  1.00  0.00     0.210 C 
ENDBRANCH  17  22
ENDBRANCH  13  16
ENDBRANCH  10  12
BRANCH   9  24
HETATM   24  C   UNL     1      42.750 -12.697   5.737  1.00  0.00    -0.017 A 
HETATM   25  C   UNL     1      42.139 -11.442   6.046  1.00  0.00    -0.017 A 
HETATM   26  C   UNL     1      42.896 -10.480   6.768  1.00  0.00    -0.025 A 
HETATM   27  C   UNL     1      40.818 -11.077   5.689  1.00  0.00     0.013 A 
HETATM   28  C   UNL     1      42.329  -9.244   7.121  1.00  0.00     0.012 A 
HETATM   29  C   UNL     1      44.217 -10.754   7.145  1.00  0.00     0.012 A 
HETATM   30  C   UNL     1      41.023  -8.926   6.764  1.00  0.00     0.001 A 
HETATM   31  C   UNL     1      40.269  -9.840   6.044  1.00  0.00     0.001 A 
HETATM   32  C   UNL     1      44.817 -11.963   6.821  1.00  0.00     0.002 A 
HETATM   33  C   UNL     1      44.092 -12.923   6.125  1.00  0.00     0.010 A 
ENDBRANCH   9  24
TORSDOF 4
ENDMDL
MODEL 9
REMARK VINA RESULT:      -7.8      2.465      6.906
REMARK  4 active torsions:
REMARK  status: ('A' for Active; 'I' for Inactive)
REMARK    1  A    between atoms: C_9  and  C_10 
REMARK    2  A    between atoms: C_20  and  C_21 
REMARK       I    between atoms: C_21  and  N_22 
REMARK    3  A    between atoms: N_22  and  C_23 
REMARK    4  A    between atoms: C_24  and  O_25 
ROOT
HETATM    1  C   UNL     1      39.824 -14.955  -0.220  1.00  0.00     0.070 C 
HETATM    2  C   UNL     1      40.235 -13.559   0.174  1.00  0.00     0.037 C 
HETATM    3  N   UNL     1      40.229 -12.614  -0.850  1.00  0.00    -0.192 N 
HETATM    4  C   UNL     1      40.882 -11.437  -0.749  1.00  0.00     0.725 A 
HETATM    5  N   UNL     1      41.361 -11.037   0.471  1.00  0.00    -0.084 N 
HETATM    6  N   UNL     1      42.074  -9.896   0.368  1.00  0.00    -0.149 NA
HETATM    7  C   UNL     1      41.934  -9.636  -0.937  1.00  0.00     0.275 A 
HETATM    8  N   UNL     1      41.209 -10.553  -1.657  1.00  0.00    -0.054 NA
HETATM    9  C   UNL     1      41.166 -11.794   1.716  1.00  0.00     0.203 C 
HETATM   10  C   UNL     1      40.674 -13.203   1.409  1.00  0.00     0.062 C 
HETATM   11  H   UNL     1      40.010 -12.947  -1.786  1.00  0.00     0.184 HD
ENDROOT
BRANCH  10  12
HETATM   12  C   UNL     1      40.893 -14.193   2.489  1.00  0.00     0.256 C 
HETATM   13  N   UNL     1      42.216 -14.475   2.718  1.00  0.00    -0.321 N 
HETATM   14  H   UNL     1      42.908 -14.157   2.046  1.00  0.00     0.169 HD
HETATM   15  O   UNL     1      39.918 -14.669   3.057  1.00  0.00    -0.267 OA
BRANCH  13  16
HETATM   16  C   UNL     1      42.769 -15.142   3.835  1.00  0.00     0.068 A 
HETATM   17  C   UNL     1      43.169 -16.483   3.657  1.00  0.00     0.095 A 
HETATM   18  C   UNL     1      43.798 -17.167   4.703  1.00  0.00     0.039 A 
HETATM   19  C   UNL     1      44.017 -16.531   5.925  1.00  0.00     0.003 A 
HETATM   20  C   UNL     1      43.606 -15.213   6.109  1.00  0.00     0.002 A 
HETATM   21  C   UNL     1      42.984 -14.520   5.069  1.00  0.00     0.032 A 
BRANCH  17  22
HETATM   22  O   UNL     1      42.927 -17.019   2.412  1.00  0.00    -0.354 OA
HETATM   23  C   UNL     1      43.199 -18.409   2.271  1.00  0.00     0.210 C 
ENDBRANCH  17  22
ENDBRANCH  13  16
ENDBRANCH  10  12
BRANCH   9  24
HETATM   24  C   UNL     1      40.198 -11.029   2.633  1.00  0.00    -0.017 A 
HETATM   25  C   UNL     1      40.491 -10.750   4.004  1.00  0.00    -0.017 A 
HETATM   26  C   UNL     1      39.563  -9.973   4.750  1.00  0.00    -0.025 A 
HETATM   27  C   UNL     1      41.652 -11.187   4.688  1.00  0.00     0.013 A 
HETATM   28  C   UNL     1      39.821  -9.646   6.091  1.00  0.00     0.012 A 
HETATM   29  C   UNL     1      38.380  -9.515   4.154  1.00  0.00     0.012 A 
HETATM   30  C   UNL     1      40.979 -10.083   6.726  1.00  0.00     0.001 A 
HETATM   31  C   UNL     1      41.892 -10.857   6.026  1.00  0.00     0.001 A 
HETATM   32  C   UNL     1      38.086  -9.810   2.830  1.00  0.00     0.002 A 
HETATM   33  C   UNL     1      38.983 -10.559   2.078  1.00  0.00     0.010 A 
ENDBRANCH   9  24
TORSDOF 4
ENDMDL
MODEL 10
REMARK VINA RESULT:      -7.6      2.848      7.827
REMARK  4 active torsions:
REMARK  status: ('A' for Active; 'I' for Inactive)
REMARK    1  A    between atoms: C_9  and  C_10 
REMARK    2  A    between atoms: C_20  and  C_21 
REMARK       I    between atoms: C_21  and  N_22 
REMARK    3  A    between atoms: N_22  and  C_23 
REMARK    4  A    between atoms: C_24  and  O_25 
ROOT
HETATM    1  C   UNL     1      39.928 -16.014   2.040  1.00  0.00     0.070 C 
HETATM    2  C   UNL     1      39.974 -14.737   1.239  1.00  0.00     0.037 C 
HETATM    3  N   UNL     1      39.768 -14.874  -0.132  1.00  0.00    -0.192 N 
HETATM    4  C   UNL     1      40.111 -13.910  -1.013  1.00  0.00     0.725 A 
HETATM    5  N   UNL     1      40.440 -12.663  -0.549  1.00  0.00    -0.084 N 
HETATM    6  N   UNL     1      40.856 -11.861  -1.551  1.00  0.00    -0.149 NA
HETATM    7  C   UNL     1      40.696 -12.677  -2.600  1.00  0.00     0.275 A 
HETATM    8  N   UNL     1      40.239 -13.939  -2.314  1.00  0.00    -0.054 NA
HETATM    9  C   UNL     1      40.398 -12.279   0.870  1.00  0.00     0.203 C 
HETATM   10  C   UNL     1      40.275 -13.515   1.751  1.00  0.00     0.062 C 
HETATM   11  H   UNL     1      39.666 -15.820  -0.493  1.00  0.00     0.184 HD
ENDROOT
BRANCH  10  12
HETATM   12  C   UNL     1      40.696 -13.326   3.159  1.00  0.00     0.256 C 
HETATM   13  N   UNL     1      42.055 -13.370   3.338  1.00  0.00    -0.321 N 
HETATM   14  H   UNL     1      42.639 -13.703   2.576  1.00  0.00     0.169 HD
HETATM   15  O   UNL     1      39.833 -13.166   4.014  1.00  0.00    -0.267 OA
BRANCH  13  16
HETATM   16  C   UNL     1      42.784 -12.955   4.477  1.00  0.00     0.068 A 
HETATM   17  C   UNL     1      43.103 -13.940   5.435  1.00  0.00     0.095 A 
HETATM   18  C   UNL     1      43.892 -13.605   6.541  1.00  0.00     0.039 A 
HETATM   19  C   UNL     1      44.350 -12.298   6.705  1.00  0.00     0.003 A 
HETATM   20  C   UNL     1      44.021 -11.320   5.769  1.00  0.00     0.002 A 
HETATM   21  C   UNL     1      43.240 -11.647   4.659  1.00  0.00     0.032 A 
BRANCH  17  22
HETATM   22  O   UNL     1      42.620 -15.204   5.178  1.00  0.00    -0.354 OA
HETATM   23  C   UNL     1      43.542 -16.272   5.373  1.00  0.00     0.210 C 
ENDBRANCH  17  22
ENDBRANCH  13  16
ENDBRANCH  10  12
BRANCH   9  24
HETATM   24  C   UNL     1      39.245 -11.288   1.096  1.00  0.00    -0.017 A 
HETATM   25  C   UNL     1      39.396 -10.089   1.859  1.00  0.00    -0.017 A 
HETATM   26  C   UNL     1      38.289  -9.200   1.951  1.00  0.00    -0.025 A 
HETATM   27  C   UNL     1      40.579  -9.705   2.536  1.00  0.00     0.013 A 
HETATM   28  C   UNL     1      38.399  -7.995   2.663  1.00  0.00     0.012 A 
HETATM   29  C   UNL     1      37.075  -9.512   1.325  1.00  0.00     0.012 A 
HETATM   30  C   UNL     1      39.582  -7.646   3.305  1.00  0.00     0.001 A 
HETATM   31  C   UNL     1      40.671  -8.502   3.246  1.00  0.00     0.001 A 
HETATM   32  C   UNL     1      36.924 -10.691   0.607  1.00  0.00     0.002 A 
HETATM   33  C   UNL     1      37.995 -11.568   0.494  1.00  0.00     0.010 A 
ENDBRANCH   9  24
TORSDOF 4
ENDMDL
