MODEL 1
REMARK VINA RESULT:      -9.4      0.000      0.000
REMARK  7 active torsions:
REMARK  status: ('A' for Active; 'I' for Inactive)
REMARK    1  A    between atoms: C_4  and  C_5 
REMARK    2  A    between atoms: C_5  and  O_6 
REMARK    3  A    between atoms: C_5  and  C_7 
REMARK    4  A    between atoms: C_9  and  C_10 
REMARK    5  A    between atoms: C_10  and  N_11 
REMARK       I    between atoms: N_11  and  C_12 
REMARK    6  A    between atoms: C_12  and  C_13 
REMARK       I    between atoms: C_13  and  N_14 
REMARK    7  A    between atoms: N_14  and  C_15 
ROOT
HETATM    1  N   UNL     1      45.013  -9.628   7.950  1.00  0.00    -0.348 N 
HETATM    2  C   UNL     1      43.986 -10.020   7.131  1.00  0.00     0.310 C 
HETATM    3  O   UNL     1      42.894  -9.482   7.022  1.00  0.00    -0.262 OA
HETATM    4  H   UNL     1      45.817 -10.250   7.985  1.00  0.00     0.163 HD
ENDROOT
BRANCH   2   5
HETATM    5  C   UNL     1      44.315 -11.297   6.330  1.00  0.00     0.313 C 
HETATM    6  N   UNL     1      43.258 -12.182   6.288  1.00  0.00    -0.319 N 
HETATM    7  H   UNL     1      42.421 -11.863   6.772  1.00  0.00     0.169 HD
HETATM    8  O   UNL     1      45.436 -11.407   5.851  1.00  0.00    -0.262 OA
BRANCH   6   9
HETATM    9  C   UNL     1      43.240 -13.462   5.707  1.00  0.00     0.036 A 
HETATM   10  C   UNL     1      42.854 -13.704   4.389  1.00  0.00     0.039 A 
HETATM   11  C   UNL     1      42.907 -15.000   3.854  1.00  0.00    -0.028 A 
HETATM   12  C   UNL     1      43.331 -16.072   4.646  1.00  0.00     0.050 A 
HETATM   13  C   UNL     1      42.425 -15.265   2.457  1.00  0.00     0.050 C 
HETATM   14  N   UNL     1      43.396 -17.374   4.082  1.00  0.00    -0.317 N 
HETATM   15  C   UNL     1      43.662 -15.848   5.991  1.00  0.00    -0.028 A 
HETATM   16  C   UNL     1      43.303 -17.598   2.711  1.00  0.00     0.224 C 
HETATM   17  C   UNL     1      43.746 -18.506   4.934  1.00  0.00     0.132 C 
HETATM   18  O   UNL     1      43.377 -18.720   2.207  1.00  0.00    -0.273 OA
HETATM   19  C   UNL     1      43.242 -16.371   1.830  1.00  0.00     0.108 C 
HETATM   20  C   UNL     1      43.435 -18.282   6.405  1.00  0.00     0.025 C 
HETATM   21  C   UNL     1      44.082 -16.989   6.876  1.00  0.00     0.042 C 
HETATM   22  C   UNL     1      43.636 -14.541   6.505  1.00  0.00     0.039 A 
ENDBRANCH   6   9
ENDBRANCH   2   5
BRANCH   1  23
HETATM   23  C   UNL     1      44.879  -8.585   8.933  1.00  0.00     0.169 C 
BRANCH  23  24
HETATM   24  C   UNL     1      44.080  -9.138  10.067  1.00  0.00     0.001 A 
HETATM   25  S   UNL     1      42.598  -8.403  10.513  1.00  0.00    -0.095 SA
HETATM   26  C   UNL     1      42.261  -9.609  11.685  1.00  0.00     0.017 A 
HETATM   27  C   UNL     1      43.294 -10.523  11.768  1.00  0.00     0.018 A 
HETATM   28  C   UNL     1      44.343 -10.248  10.843  1.00  0.00     0.017 A 
BRANCH  26  29
HETATM   29  C   UNL     1      40.951  -9.581  12.425  1.00  0.00     0.198 C 
BRANCH  29  30
HETATM   30  C   UNL     1      40.949  -8.666  13.618  1.00  0.00     0.016 A 
HETATM   31  S   UNL     1      39.877  -7.322  13.656  1.00  0.00    -0.103 SA
HETATM   32  C   UNL     1      40.425  -6.841  15.201  1.00  0.00     0.050 A 
HETATM   33  C   UNL     1      41.405  -7.677  15.687  1.00  0.00     0.008 A 
HETATM   34  C   UNL     1      41.707  -8.728  14.775  1.00  0.00     0.018 A 
ENDBRANCH  29  30
BRANCH  29  35
HETATM   35  O   UNL     1      40.730 -10.910  12.904  1.00  0.00    -0.385 OA
HETATM   36  H   UNL     1      39.766 -11.034  12.915  1.00  0.00     0.210 HD
ENDBRANCH  29  35
ENDBRANCH  26  29
ENDBRANCH  23  24
ENDBRANCH   1  23
TORSDOF 7
ENDMDL
MODEL 2
REMARK VINA RESULT:      -9.2      2.391      2.784
REMARK  7 active torsions:
REMARK  status: ('A' for Active; 'I' for Inactive)
REMARK    1  A    between atoms: C_4  and  C_5 
REMARK    2  A    between atoms: C_5  and  O_6 
REMARK    3  A    between atoms: C_5  and  C_7 
REMARK    4  A    between atoms: C_9  and  C_10 
REMARK    5  A    between atoms: C_10  and  N_11 
REMARK       I    between atoms: N_11  and  C_12 
REMARK    6  A    between atoms: C_12  and  C_13 
REMARK       I    between atoms: C_13  and  N_14 
REMARK    7  A    between atoms: N_14  and  C_15 
ROOT
HETATM    1  N   UNL     1      40.274  -9.715   7.190  1.00  0.00    -0.348 N 
HETATM    2  C   UNL     1      39.591 -10.835   6.795  1.00  0.00     0.310 C 
HETATM    3  O   UNL     1      38.431 -11.115   7.061  1.00  0.00    -0.262 OA
HETATM    4  H   UNL     1      41.264  -9.692   6.958  1.00  0.00     0.163 HD
ENDROOT
BRANCH   2   5
HETATM    5  C   UNL     1      40.460 -11.803   5.964  1.00  0.00     0.313 C 
HETATM    6  N   UNL     1      40.251 -13.124   6.302  1.00  0.00    -0.319 N 
HETATM    7  H   UNL     1      39.553 -13.269   7.028  1.00  0.00     0.169 HD
HETATM    8  O   UNL     1      41.232 -11.327   5.143  1.00  0.00    -0.262 OA
BRANCH   6   9
HETATM    9  C   UNL     1      40.923 -14.250   5.795  1.00  0.00     0.036 A 
HETATM   10  C   UNL     1      40.816 -14.680   4.473  1.00  0.00     0.039 A 
HETATM   11  C   UNL     1      41.554 -15.783   4.016  1.00  0.00    -0.028 A 
HETATM   12  C   UNL     1      42.392 -16.480   4.892  1.00  0.00     0.050 A 
HETATM   13  C   UNL     1      41.382 -16.282   2.611  1.00  0.00     0.050 C 
HETATM   14  N   UNL     1      43.145 -17.583   4.409  1.00  0.00    -0.317 N 
HETATM   15  C   UNL     1      42.458 -16.093   6.239  1.00  0.00    -0.028 A 
HETATM   16  C   UNL     1      43.286 -17.851   3.050  1.00  0.00     0.224 C 
HETATM   17  C   UNL     1      43.946 -18.367   5.343  1.00  0.00     0.132 C 
HETATM   18  O   UNL     1      43.952 -18.793   2.615  1.00  0.00    -0.273 OA
HETATM   19  C   UNL     1      42.690 -16.839   2.097  1.00  0.00     0.108 C 
HETATM   20  C   UNL     1      43.449 -18.301   6.777  1.00  0.00     0.025 C 
HETATM   21  C   UNL     1      43.321 -16.850   7.212  1.00  0.00     0.042 C 
HETATM   22  C   UNL     1      41.741 -14.966   6.675  1.00  0.00     0.039 A 
ENDBRANCH   6   9
ENDBRANCH   2   5
BRANCH   1  23
HETATM   23  C   UNL     1      39.742  -8.762   8.128  1.00  0.00     0.169 C 
BRANCH  23  24
HETATM   24  C   UNL     1      39.947  -9.320   9.499  1.00  0.00     0.001 A 
HETATM   25  S   UNL     1      41.522  -9.392  10.170  1.00  0.00    -0.095 SA
HETATM   26  C   UNL     1      40.938  -9.961  11.679  1.00  0.00     0.017 A 
HETATM   27  C   UNL     1      39.569 -10.145  11.644  1.00  0.00     0.018 A 
HETATM   28  C   UNL     1      39.000  -9.783  10.389  1.00  0.00     0.017 A 
BRANCH  26  29
HETATM   29  C   UNL     1      41.898 -10.153  12.823  1.00  0.00     0.198 C 
BRANCH  29  30
HETATM   30  C   UNL     1      42.272  -8.874  13.519  1.00  0.00     0.016 A 
HETATM   31  S   UNL     1      41.410  -8.390  14.925  1.00  0.00    -0.103 SA
HETATM   32  C   UNL     1      42.361  -6.982  15.107  1.00  0.00     0.050 A 
HETATM   33  C   UNL     1      43.317  -6.872  14.123  1.00  0.00     0.008 A 
HETATM   34  C   UNL     1      43.265  -7.962  13.208  1.00  0.00     0.018 A 
ENDBRANCH  29  30
BRANCH  29  35
HETATM   35  O   UNL     1      43.092 -10.699  12.259  1.00  0.00    -0.385 OA
HETATM   36  H   UNL     1      43.181 -10.299  11.378  1.00  0.00     0.210 HD
ENDBRANCH  29  35
ENDBRANCH  26  29
ENDBRANCH  23  24
ENDBRANCH   1  23
TORSDOF 7
ENDMDL
MODEL 3
REMARK VINA RESULT:      -9.1      1.381      2.557
REMARK  7 active torsions:
REMARK  status: ('A' for Active; 'I' for Inactive)
REMARK    1  A    between atoms: C_4  and  C_5 
REMARK    2  A    between atoms: C_5  and  O_6 
REMARK    3  A    between atoms: C_5  and  C_7 
REMARK    4  A    between atoms: C_9  and  C_10 
REMARK    5  A    between atoms: C_10  and  N_11 
REMARK       I    between atoms: N_11  and  C_12 
REMARK    6  A    between atoms: C_12  and  C_13 
REMARK       I    between atoms: C_13  and  N_14 
REMARK    7  A    between atoms: N_14  and  C_15 
ROOT
HETATM    1  N   UNL     1      43.139  -9.887   7.748  1.00  0.00    -0.348 N 
HETATM    2  C   UNL     1      43.948 -10.884   8.225  1.00  0.00     0.310 C 
HETATM    3  O   UNL     1      44.370 -10.999   9.366  1.00  0.00    -0.262 OA
HETATM    4  H   UNL     1      42.964  -9.895   6.746  1.00  0.00     0.163 HD
ENDROOT
BRANCH   2   5
HETATM    5  C   UNL     1      44.348 -11.902   7.134  1.00  0.00     0.313 C 
HETATM    6  N   UNL     1      43.370 -12.849   6.912  1.00  0.00    -0.319 N 
HETATM    7  H   UNL     1      42.533 -12.733   7.479  1.00  0.00     0.169 HD
HETATM    8  O   UNL     1      45.450 -11.790   6.615  1.00  0.00    -0.262 OA
BRANCH   6   9
HETATM    9  C   UNL     1      43.435 -13.953   6.045  1.00  0.00     0.036 A 
HETATM   10  C   UNL     1      43.917 -15.205   6.426  1.00  0.00     0.039 A 
HETATM   11  C   UNL     1      43.907 -16.282   5.526  1.00  0.00    -0.028 A 
HETATM   12  C   UNL     1      43.430 -16.105   4.223  1.00  0.00     0.050 A 
HETATM   13  C   UNL     1      44.491 -17.606   5.921  1.00  0.00     0.050 C 
HETATM   14  N   UNL     1      43.410 -17.210   3.331  1.00  0.00    -0.317 N 
HETATM   15  C   UNL     1      43.001 -14.834   3.811  1.00  0.00    -0.028 A 
HETATM   16  C   UNL     1      43.604 -18.520   3.762  1.00  0.00     0.224 C 
HETATM   17  C   UNL     1      43.002 -17.004   1.946  1.00  0.00     0.132 C 
HETATM   18  O   UNL     1      43.571 -19.489   3.003  1.00  0.00    -0.273 OA
HETATM   19  C   UNL     1      43.726 -18.727   5.255  1.00  0.00     0.108 C 
HETATM   20  C   UNL     1      43.203 -15.579   1.456  1.00  0.00     0.025 C 
HETATM   21  C   UNL     1      42.520 -14.607   2.404  1.00  0.00     0.042 C 
HETATM   22  C   UNL     1      42.984 -13.774   4.733  1.00  0.00     0.039 A 
ENDBRANCH   6   9
ENDBRANCH   2   5
BRANCH   1  23
HETATM   23  C   UNL     1      42.791  -8.722   8.520  1.00  0.00     0.169 C 
BRANCH  23  24
HETATM   24  C   UNL     1      41.637  -9.092   9.394  1.00  0.00     0.001 A 
HETATM   25  S   UNL     1      41.863  -9.275  11.083  1.00  0.00    -0.095 SA
HETATM   26  C   UNL     1      40.190  -9.528  11.358  1.00  0.00     0.017 A 
HETATM   27  C   UNL     1      39.485  -9.528  10.170  1.00  0.00     0.018 A 
HETATM   28  C   UNL     1      40.318  -9.284   9.040  1.00  0.00     0.017 A 
BRANCH  26  29
HETATM   29  C   UNL     1      39.682  -9.675  12.768  1.00  0.00     0.198 C 
BRANCH  29  30
HETATM   30  C   UNL     1      40.281  -8.688  13.732  1.00  0.00     0.016 A 
HETATM   31  S   UNL     1      39.728  -7.060  13.732  1.00  0.00    -0.103 SA
HETATM   32  C   UNL     1      40.788  -6.629  15.002  1.00  0.00     0.050 A 
HETATM   33  C   UNL     1      41.552  -7.693  15.423  1.00  0.00     0.008 A 
HETATM   34  C   UNL     1      41.260  -8.879  14.692  1.00  0.00     0.018 A 
ENDBRANCH  29  30
BRANCH  29  35
HETATM   35  O   UNL     1      40.066 -10.982  13.200  1.00  0.00    -0.385 OA
HETATM   36  H   UNL     1      40.914 -11.171  12.765  1.00  0.00     0.210 HD
ENDBRANCH  29  35
ENDBRANCH  26  29
ENDBRANCH  23  24
ENDBRANCH   1  23
TORSDOF 7
ENDMDL
MODEL 4
REMARK VINA RESULT:      -8.9      2.305      3.381
REMARK  7 active torsions:
REMARK  status: ('A' for Active; 'I' for Inactive)
REMARK    1  A    between atoms: C_4  and  C_5 
REMARK    2  A    between atoms: C_5  and  O_6 
REMARK    3  A    between atoms: C_5  and  C_7 
REMARK    4  A    between atoms: C_9  and  C_10 
REMARK    5  A    between atoms: C_10  and  N_11 
REMARK       I    between atoms: N_11  and  C_12 
REMARK    6  A    between atoms: C_12  and  C_13 
REMARK       I    between atoms: C_13  and  N_14 
REMARK    7  A    between atoms: N_14  and  C_15 
ROOT
HETATM    1  N   UNL     1      40.402  -9.809   7.122  1.00  0.00    -0.348 N 
HETATM    2  C   UNL     1      39.818 -10.973   6.694  1.00  0.00     0.310 C 
HETATM    3  O   UNL     1      38.654 -11.307   6.856  1.00  0.00    -0.262 OA
HETATM    4  H   UNL     1      41.408  -9.738   6.985  1.00  0.00     0.163 HD
ENDROOT
BRANCH   2   5
HETATM    5  C   UNL     1      40.812 -11.910   5.975  1.00  0.00     0.313 C 
HETATM    6  N   UNL     1      40.538 -13.243   6.199  1.00  0.00    -0.319 N 
HETATM    7  H   UNL     1      39.723 -13.414   6.785  1.00  0.00     0.169 HD
HETATM    8  O   UNL     1      41.718 -11.404   5.326  1.00  0.00    -0.262 OA
BRANCH   6   9
HETATM    9  C   UNL     1      41.279 -14.352   5.756  1.00  0.00     0.036 A 
HETATM   10  C   UNL     1      41.999 -15.188   6.609  1.00  0.00     0.039 A 
HETATM   11  C   UNL     1      42.677 -16.310   6.110  1.00  0.00    -0.028 A 
HETATM   12  C   UNL     1      42.655 -16.592   4.740  1.00  0.00     0.050 A 
HETATM   13  C   UNL     1      43.506 -17.166   7.023  1.00  0.00     0.050 C 
HETATM   14  N   UNL     1      43.332 -17.743   4.253  1.00  0.00    -0.317 N 
HETATM   15  C   UNL     1      41.986 -15.723   3.866  1.00  0.00    -0.028 A 
HETATM   16  C   UNL     1      43.803 -18.744   5.099  1.00  0.00     0.224 C 
HETATM   17  C   UNL     1      43.389 -17.985   2.816  1.00  0.00     0.132 C 
HETATM   18  O   UNL     1      44.375 -19.756   4.689  1.00  0.00    -0.273 OA
HETATM   19  C   UNL     1      43.459 -18.606   6.564  1.00  0.00     0.108 C 
HETATM   20  C   UNL     1      43.243 -16.724   1.979  1.00  0.00     0.025 C 
HETATM   21  C   UNL     1      41.981 -15.981   2.384  1.00  0.00     0.042 C 
HETATM   22  C   UNL     1      41.283 -14.622   4.384  1.00  0.00     0.039 A 
ENDBRANCH   6   9
ENDBRANCH   2   5
BRANCH   1  23
HETATM   23  C   UNL     1      39.734  -8.866   7.981  1.00  0.00     0.169 C 
BRANCH  23  24
HETATM   24  C   UNL     1      39.994  -9.283   9.392  1.00  0.00     0.001 A 
HETATM   25  S   UNL     1      41.603  -9.499   9.942  1.00  0.00    -0.095 SA
HETATM   26  C   UNL     1      41.095  -9.798  11.552  1.00  0.00     0.017 A 
HETATM   27  C   UNL     1      39.717  -9.787  11.649  1.00  0.00     0.018 A 
HETATM   28  C   UNL     1      39.083  -9.497  10.406  1.00  0.00     0.017 A 
BRANCH  26  29
HETATM   29  C   UNL     1      42.127  -9.989  12.633  1.00  0.00     0.198 C 
BRANCH  29  30
HETATM   30  C   UNL     1      42.349  -8.767  13.480  1.00  0.00     0.016 A 
HETATM   31  S   UNL     1      41.340  -8.486  14.844  1.00  0.00    -0.103 SA
HETATM   32  C   UNL     1      42.169  -7.046  15.245  1.00  0.00     0.050 A 
HETATM   33  C   UNL     1      43.191  -6.774  14.365  1.00  0.00     0.008 A 
HETATM   34  C   UNL     1      43.295  -7.766  13.348  1.00  0.00     0.018 A 
ENDBRANCH  29  30
BRANCH  29  35
HETATM   35  O   UNL     1      43.358 -10.278  11.967  1.00  0.00    -0.385 OA
HETATM   36  H   UNL     1      43.357 -11.237  11.807  1.00  0.00     0.210 HD
ENDBRANCH  29  35
ENDBRANCH  26  29
ENDBRANCH  23  24
ENDBRANCH   1  23
TORSDOF 7
ENDMDL
MODEL 5
REMARK VINA RESULT:      -8.6      3.542     10.894
REMARK  7 active torsions:
REMARK  status: ('A' for Active; 'I' for Inactive)
REMARK    1  A    between atoms: C_4  and  C_5 
REMARK    2  A    between atoms: C_5  and  O_6 
REMARK    3  A    between atoms: C_5  and  C_7 
REMARK    4  A    between atoms: C_9  and  C_10 
REMARK    5  A    between atoms: C_10  and  N_11 
REMARK       I    between atoms: N_11  and  C_12 
REMARK    6  A    between atoms: C_12  and  C_13 
REMARK       I    between atoms: C_13  and  N_14 
REMARK    7  A    between atoms: N_14  and  C_15 
ROOT
HETATM    1  N   UNL     1      43.554 -10.716   6.059  1.00  0.00    -0.348 N 
HETATM    2  C   UNL     1      44.369 -11.346   6.963  1.00  0.00     0.310 C 
HETATM    3  O   UNL     1      45.062 -12.331   6.758  1.00  0.00    -0.262 OA
HETATM    4  H   UNL     1      42.974  -9.966   6.429  1.00  0.00     0.163 HD
ENDROOT
BRANCH   2   5
HETATM    5  C   UNL     1      44.317 -10.701   8.365  1.00  0.00     0.313 C 
HETATM    6  N   UNL     1      43.163  -9.975   8.570  1.00  0.00    -0.319 N 
HETATM    7  H   UNL     1      42.515  -9.981   7.786  1.00  0.00     0.169 HD
HETATM    8  O   UNL     1      45.270 -10.869   9.114  1.00  0.00    -0.262 OA
BRANCH   6   9
HETATM    9  C   UNL     1      42.828  -9.208   9.700  1.00  0.00     0.036 A 
HETATM   10  C   UNL     1      42.402  -9.761  10.908  1.00  0.00     0.039 A 
HETATM   11  C   UNL     1      42.131  -8.943  12.015  1.00  0.00    -0.028 A 
HETATM   12  C   UNL     1      42.268  -7.554  11.913  1.00  0.00     0.050 A 
HETATM   13  C   UNL     1      41.607  -9.538  13.289  1.00  0.00     0.050 C 
HETATM   14  N   UNL     1      42.007  -6.743  13.049  1.00  0.00    -0.317 N 
HETATM   15  C   UNL     1      42.636  -6.984  10.685  1.00  0.00    -0.028 A 
HETATM   16  C   UNL     1      41.869  -7.273  14.329  1.00  0.00     0.224 C 
HETATM   17  C   UNL     1      42.057  -5.290  12.918  1.00  0.00     0.132 C 
HETATM   18  O   UNL     1      41.663  -6.579  15.326  1.00  0.00    -0.273 OA
HETATM   19  C   UNL     1      42.124  -8.756  14.475  1.00  0.00     0.108 C 
HETATM   20  C   UNL     1      41.803  -4.797  11.502  1.00  0.00     0.025 C 
HETATM   21  C   UNL     1      42.751  -5.492  10.537  1.00  0.00     0.042 C 
HETATM   22  C   UNL     1      42.936  -7.818   9.595  1.00  0.00     0.039 A 
ENDBRANCH   6   9
ENDBRANCH   2   5
BRANCH   1  23
HETATM   23  C   UNL     1      43.284 -11.242   4.747  1.00  0.00     0.169 C 
BRANCH  23  24
HETATM   24  C   UNL     1      42.296 -12.352   4.904  1.00  0.00     0.001 A 
HETATM   25  S   UNL     1      42.315 -13.677   3.817  1.00  0.00    -0.095 SA
HETATM   26  C   UNL     1      41.092 -14.507   4.687  1.00  0.00     0.017 A 
HETATM   27  C   UNL     1      40.643 -13.754   5.755  1.00  0.00     0.018 A 
HETATM   28  C   UNL     1      41.330 -12.512   5.876  1.00  0.00     0.017 A 
BRANCH  26  29
HETATM   29  C   UNL     1      40.685 -15.893   4.258  1.00  0.00     0.198 C 
BRANCH  29  30
HETATM   30  C   UNL     1      41.833 -16.741   3.785  1.00  0.00     0.016 A 
HETATM   31  S   UNL     1      43.033 -17.245   4.908  1.00  0.00    -0.103 SA
HETATM   32  C   UNL     1      43.894 -18.103   3.706  1.00  0.00     0.050 A 
HETATM   33  C   UNL     1      43.291 -18.013   2.473  1.00  0.00     0.008 A 
HETATM   34  C   UNL     1      42.103 -17.228   2.518  1.00  0.00     0.018 A 
ENDBRANCH  29  30
BRANCH  29  35
HETATM   35  O   UNL     1      39.792 -15.726   3.153  1.00  0.00    -0.385 OA
HETATM   36  H   UNL     1      39.677 -14.767   3.044  1.00  0.00     0.210 HD
ENDBRANCH  29  35
ENDBRANCH  26  29
ENDBRANCH  23  24
ENDBRANCH   1  23
TORSDOF 7
ENDMDL
MODEL 6
REMARK VINA RESULT:      -8.5      1.838      2.315
REMARK  7 active torsions:
REMARK  status: ('A' for Active; 'I' for Inactive)
REMARK    1  A    between atoms: C_4  and  C_5 
REMARK    2  A    between atoms: C_5  and  O_6 
REMARK    3  A    between atoms: C_5  and  C_7 
REMARK    4  A    between atoms: C_9  and  C_10 
REMARK    5  A    between atoms: C_10  and  N_11 
REMARK       I    between atoms: N_11  and  C_12 
REMARK    6  A    between atoms: C_12  and  C_13 
REMARK       I    between atoms: C_13  and  N_14 
REMARK    7  A    between atoms: N_14  and  C_15 
ROOT
HETATM    1  N   UNL     1      44.001  -9.351   8.282  1.00  0.00    -0.348 N 
HETATM    2  C   UNL     1      44.765 -10.487   8.206  1.00  0.00     0.310 C 
HETATM    3  O   UNL     1      45.628 -10.840   8.995  1.00  0.00    -0.262 OA
HETATM    4  H   UNL     1      43.397  -9.166   7.485  1.00  0.00     0.163 HD
ENDROOT
BRANCH   2   5
HETATM    5  C   UNL     1      44.461 -11.327   6.947  1.00  0.00     0.313 C 
HETATM    6  N   UNL     1      43.205 -11.896   6.981  1.00  0.00    -0.319 N 
HETATM    7  H   UNL     1      42.662 -11.671   7.812  1.00  0.00     0.169 HD
HETATM    8  O   UNL     1      45.331 -11.423   6.091  1.00  0.00    -0.262 OA
BRANCH   6   9
HETATM    9  C   UNL     1      42.639 -12.770   6.038  1.00  0.00     0.036 A 
HETATM   10  C   UNL     1      41.458 -12.499   5.347  1.00  0.00     0.039 A 
HETATM   11  C   UNL     1      40.972 -13.391   4.379  1.00  0.00    -0.028 A 
HETATM   12  C   UNL     1      41.660 -14.579   4.109  1.00  0.00     0.050 A 
HETATM   13  C   UNL     1      39.666 -13.126   3.690  1.00  0.00     0.050 C 
HETATM   14  N   UNL     1      41.164 -15.462   3.114  1.00  0.00    -0.317 N 
HETATM   15  C   UNL     1      42.815 -14.891   4.843  1.00  0.00    -0.028 A 
HETATM   16  C   UNL     1      40.169 -15.088   2.214  1.00  0.00     0.224 C 
HETATM   17  C   UNL     1      41.827 -16.744   2.899  1.00  0.00     0.132 C 
HETATM   18  O   UNL     1      39.743 -15.837   1.333  1.00  0.00    -0.273 OA
HETATM   19  C   UNL     1      39.715 -13.647   2.271  1.00  0.00     0.108 C 
HETATM   20  C   UNL     1      42.586 -17.249   4.115  1.00  0.00     0.025 C 
HETATM   21  C   UNL     1      43.551 -16.180   4.601  1.00  0.00     0.042 C 
HETATM   22  C   UNL     1      43.309 -13.972   5.785  1.00  0.00     0.039 A 
ENDBRANCH   6   9
ENDBRANCH   2   5
BRANCH   1  23
HETATM   23  C   UNL     1      44.232  -8.315   9.255  1.00  0.00     0.169 C 
BRANCH  23  24
HETATM   24  C   UNL     1      43.391  -8.628  10.450  1.00  0.00     0.001 A 
HETATM   25  S   UNL     1      41.716  -8.269  10.439  1.00  0.00    -0.095 SA
HETATM   26  C   UNL     1      41.471  -9.000  11.971  1.00  0.00     0.017 A 
HETATM   27  C   UNL     1      42.662  -9.458  12.500  1.00  0.00     0.018 A 
HETATM   28  C   UNL     1      43.768  -9.237  11.629  1.00  0.00     0.017 A 
BRANCH  26  29
HETATM   29  C   UNL     1      40.076  -9.103  12.531  1.00  0.00     0.198 C 
BRANCH  29  30
HETATM   30  C   UNL     1      39.650  -7.896  13.319  1.00  0.00     0.016 A 
HETATM   31  S   UNL     1      38.155  -7.129  12.956  1.00  0.00    -0.103 SA
HETATM   32  C   UNL     1      38.375  -5.964  14.187  1.00  0.00     0.050 A 
HETATM   33  C   UNL     1      39.559  -6.144  14.865  1.00  0.00     0.008 A 
HETATM   34  C   UNL     1      40.293  -7.257  14.365  1.00  0.00     0.018 A 
ENDBRANCH  29  30
BRANCH  29  35
HETATM   35  O   UNL     1      40.082 -10.218  13.425  1.00  0.00    -0.385 OA
HETATM   36  H   UNL     1      40.412 -10.974  12.909  1.00  0.00     0.210 HD
ENDBRANCH  29  35
ENDBRANCH  26  29
ENDBRANCH  23  24
ENDBRANCH   1  23
TORSDOF 7
ENDMDL
MODEL 7
REMARK VINA RESULT:      -8.4      3.987     11.442
REMARK  7 active torsions:
REMARK  status: ('A' for Active; 'I' for Inactive)
REMARK    1  A    between atoms: C_4  and  C_5 
REMARK    2  A    between atoms: C_5  and  O_6 
REMARK    3  A    between atoms: C_5  and  C_7 
REMARK    4  A    between atoms: C_9  and  C_10 
REMARK    5  A    between atoms: C_10  and  N_11 
REMARK       I    between atoms: N_11  and  C_12 
REMARK    6  A    between atoms: C_12  and  C_13 
REMARK       I    between atoms: C_13  and  N_14 
REMARK    7  A    between atoms: N_14  and  C_15 
ROOT
HETATM    1  N   UNL     1      40.515 -11.197   6.195  1.00  0.00    -0.348 N 
HETATM    2  C   UNL     1      39.478 -10.736   6.965  1.00  0.00     0.310 C 
HETATM    3  O   UNL     1      38.304 -11.062   6.877  1.00  0.00    -0.262 OA
HETATM    4  H   UNL     1      41.414 -10.744   6.342  1.00  0.00     0.163 HD
ENDROOT
BRANCH   2   5
HETATM    5  C   UNL     1      39.924  -9.676   7.995  1.00  0.00     0.313 C 
HETATM    6  N   UNL     1      39.741 -10.095   9.296  1.00  0.00    -0.319 N 
HETATM    7  H   UNL     1      39.359 -11.034   9.388  1.00  0.00     0.169 HD
HETATM    8  O   UNL     1      40.354  -8.609   7.578  1.00  0.00    -0.262 OA
BRANCH   6   9
HETATM    9  C   UNL     1      39.974  -9.357  10.470  1.00  0.00     0.036 A 
HETATM   10  C   UNL     1      41.118  -9.500  11.255  1.00  0.00     0.039 A 
HETATM   11  C   UNL     1      41.314  -8.696  12.388  1.00  0.00    -0.028 A 
HETATM   12  C   UNL     1      40.351  -7.751  12.756  1.00  0.00     0.050 A 
HETATM   13  C   UNL     1      42.513  -8.903  13.268  1.00  0.00     0.050 C 
HETATM   14  N   UNL     1      40.574  -6.933  13.895  1.00  0.00    -0.317 N 
HETATM   15  C   UNL     1      39.168  -7.643  12.008  1.00  0.00    -0.028 A 
HETATM   16  C   UNL     1      41.816  -6.846  14.519  1.00  0.00     0.224 C 
HETATM   17  C   UNL     1      39.528  -6.015  14.334  1.00  0.00     0.132 C 
HETATM   18  O   UNL     1      42.029  -6.126  15.496  1.00  0.00    -0.273 OA
HETATM   19  C   UNL     1      42.957  -7.582  13.854  1.00  0.00     0.108 C 
HETATM   20  C   UNL     1      38.131  -6.434  13.907  1.00  0.00     0.025 C 
HETATM   21  C   UNL     1      38.098  -6.663  12.404  1.00  0.00     0.042 C 
HETATM   22  C   UNL     1      39.000  -8.431  10.857  1.00  0.00     0.039 A 
ENDBRANCH   6   9
ENDBRANCH   2   5
BRANCH   1  23
HETATM   23  C   UNL     1      40.323 -12.040   5.045  1.00  0.00     0.169 C 
BRANCH  23  24
HETATM   24  C   UNL     1      40.843 -13.397   5.392  1.00  0.00     0.001 A 
HETATM   25  S   UNL     1      42.335 -13.937   4.747  1.00  0.00    -0.095 SA
HETATM   26  C   UNL     1      42.296 -15.388   5.660  1.00  0.00     0.017 A 
HETATM   27  C   UNL     1      41.132 -15.477   6.400  1.00  0.00     0.018 A 
HETATM   28  C   UNL     1      40.293 -14.336   6.241  1.00  0.00     0.017 A 
BRANCH  26  29
HETATM   29  C   UNL     1      43.466 -16.334   5.603  1.00  0.00     0.198 C 
BRANCH  29  30
HETATM   30  C   UNL     1      43.448 -17.247   4.409  1.00  0.00     0.016 A 
HETATM   31  S   UNL     1      44.385 -18.688   4.429  1.00  0.00    -0.103 SA
HETATM   32  C   UNL     1      43.859 -19.133   2.865  1.00  0.00     0.050 A 
HETATM   33  C   UNL     1      42.990 -18.210   2.329  1.00  0.00     0.008 A 
HETATM   34  C   UNL     1      42.754 -17.124   3.218  1.00  0.00     0.018 A 
ENDBRANCH  29  30
BRANCH  29  35
HETATM   35  O   UNL     1      43.377 -17.154   6.771  1.00  0.00    -0.385 OA
HETATM   36  H   UNL     1      42.922 -17.968   6.493  1.00  0.00     0.210 HD
ENDBRANCH  29  35
ENDBRANCH  26  29
ENDBRANCH  23  24
ENDBRANCH   1  23
TORSDOF 7
ENDMDL
MODEL 8
REMARK VINA RESULT:      -8.3      6.676      9.585
REMARK  7 active torsions:
REMARK  status: ('A' for Active; 'I' for Inactive)
REMARK    1  A    between atoms: C_4  and  C_5 
REMARK    2  A    between atoms: C_5  and  O_6 
REMARK    3  A    between atoms: C_5  and  C_7 
REMARK    4  A    between atoms: C_9  and  C_10 
REMARK    5  A    between atoms: C_10  and  N_11 
REMARK       I    between atoms: N_11  and  C_12 
REMARK    6  A    between atoms: C_12  and  C_13 
REMARK       I    between atoms: C_13  and  N_14 
REMARK    7  A    between atoms: N_14  and  C_15 
ROOT
HETATM    1  N   UNL     1      41.060 -10.961   3.622  1.00  0.00    -0.348 N 
HETATM    2  C   UNL     1      42.210 -11.668   3.390  1.00  0.00     0.310 C 
HETATM    3  O   UNL     1      43.179 -11.295   2.745  1.00  0.00    -0.262 OA
HETATM    4  H   UNL     1      40.315 -11.465   4.099  1.00  0.00     0.163 HD
ENDROOT
BRANCH   2   5
HETATM    5  C   UNL     1      42.179 -13.081   4.012  1.00  0.00     0.313 C 
HETATM    6  N   UNL     1      42.935 -13.988   3.301  1.00  0.00    -0.319 N 
HETATM    7  H   UNL     1      43.410 -13.599   2.489  1.00  0.00     0.169 HD
HETATM    8  O   UNL     1      41.500 -13.256   5.015  1.00  0.00    -0.262 OA
BRANCH   6   9
HETATM    9  C   UNL     1      43.069 -15.366   3.548  1.00  0.00     0.036 A 
HETATM   10  C   UNL     1      42.917 -16.343   2.565  1.00  0.00     0.039 A 
HETATM   11  C   UNL     1      43.115 -17.699   2.866  1.00  0.00    -0.028 A 
HETATM   12  C   UNL     1      43.447 -18.090   4.167  1.00  0.00     0.050 A 
HETATM   13  C   UNL     1      42.882 -18.751   1.820  1.00  0.00     0.050 C 
HETATM   14  N   UNL     1      43.661 -19.465   4.450  1.00  0.00    -0.317 N 
HETATM   15  C   UNL     1      43.541 -17.120   5.177  1.00  0.00    -0.028 A 
HETATM   16  C   UNL     1      43.806 -20.419   3.446  1.00  0.00     0.224 C 
HETATM   17  C   UNL     1      43.915 -19.882   5.825  1.00  0.00     0.132 C 
HETATM   18  O   UNL     1      44.011 -21.612   3.676  1.00  0.00    -0.273 OA
HETATM   19  C   UNL     1      43.839 -19.903   2.025  1.00  0.00     0.108 C 
HETATM   20  C   UNL     1      43.356 -18.925   6.865  1.00  0.00     0.025 C 
HETATM   21  C   UNL     1      43.859 -17.517   6.592  1.00  0.00     0.042 C 
HETATM   22  C   UNL     1      43.375 -15.763   4.854  1.00  0.00     0.039 A 
ENDBRANCH   6   9
ENDBRANCH   2   5
BRANCH   1  23
HETATM   23  C   UNL     1      40.771  -9.702   2.987  1.00  0.00     0.169 C 
BRANCH  23  24
HETATM   24  C   UNL     1      39.849  -9.977   1.844  1.00  0.00     0.001 A 
HETATM   25  S   UNL     1      40.398  -9.783   0.232  1.00  0.00    -0.095 SA
HETATM   26  C   UNL     1      38.931 -10.384  -0.422  1.00  0.00     0.017 A 
HETATM   27  C   UNL     1      38.022 -10.673   0.578  1.00  0.00     0.018 A 
HETATM   28  C   UNL     1      38.547 -10.432   1.881  1.00  0.00     0.017 A 
BRANCH  26  29
HETATM   29  C   UNL     1      38.801 -10.565  -1.912  1.00  0.00     0.198 C 
BRANCH  29  30
HETATM   30  C   UNL     1      38.666 -12.000  -2.337  1.00  0.00     0.016 A 
HETATM   31  S   UNL     1      40.076 -12.961  -2.540  1.00  0.00    -0.103 SA
HETATM   32  C   UNL     1      39.160 -14.337  -2.974  1.00  0.00     0.050 A 
HETATM   33  C   UNL     1      37.808 -14.081  -2.971  1.00  0.00     0.008 A 
HETATM   34  C   UNL     1      37.523 -12.735  -2.604  1.00  0.00     0.018 A 
ENDBRANCH  29  30
BRANCH  29  35
HETATM   35  O   UNL     1      40.009 -10.060  -2.485  1.00  0.00    -0.385 OA
HETATM   36  H   UNL     1      40.602  -9.872  -1.739  1.00  0.00     0.210 HD
ENDBRANCH  29  35
ENDBRANCH  26  29
ENDBRANCH  23  24
ENDBRANCH   1  23
TORSDOF 7
ENDMDL
MODEL 9
REMARK VINA RESULT:      -8.3      3.886     11.494
REMARK  7 active torsions:
REMARK  status: ('A' for Active; 'I' for Inactive)
REMARK    1  A    between atoms: C_4  and  C_5 
REMARK    2  A    between atoms: C_5  and  O_6 
REMARK    3  A    between atoms: C_5  and  C_7 
REMARK    4  A    between atoms: C_9  and  C_10 
REMARK    5  A    between atoms: C_10  and  N_11 
REMARK       I    between atoms: N_11  and  C_12 
REMARK    6  A    between atoms: C_12  and  C_13 
REMARK       I    between atoms: C_13  and  N_14 
REMARK    7  A    between atoms: N_14  and  C_15 
ROOT
HETATM    1  N   UNL     1      40.626 -10.594   7.053  1.00  0.00    -0.348 N 
HETATM    2  C   UNL     1      39.343 -10.265   7.403  1.00  0.00     0.310 C 
HETATM    3  O   UNL     1      38.371 -10.231   6.664  1.00  0.00    -0.262 OA
HETATM    4  H   UNL     1      41.331 -10.475   7.778  1.00  0.00     0.163 HD
ENDROOT
BRANCH   2   5
HETATM    5  C   UNL     1      39.211  -9.878   8.892  1.00  0.00     0.313 C 
HETATM    6  N   UNL     1      39.968  -8.774   9.220  1.00  0.00    -0.319 N 
HETATM    7  H   UNL     1      40.486  -8.370   8.442  1.00  0.00     0.169 HD
HETATM    8  O   UNL     1      38.499 -10.570   9.608  1.00  0.00    -0.262 OA
BRANCH   6   9
HETATM    9  C   UNL     1      40.133  -8.200  10.493  1.00  0.00     0.036 A 
HETATM   10  C   UNL     1      39.171  -7.399  11.107  1.00  0.00     0.039 A 
HETATM   11  C   UNL     1      39.375  -6.898  12.402  1.00  0.00    -0.028 A 
HETATM   12  C   UNL     1      40.561  -7.183  13.087  1.00  0.00     0.050 A 
HETATM   13  C   UNL     1      38.367  -5.980  13.029  1.00  0.00     0.050 C 
HETATM   14  N   UNL     1      40.743  -6.683  14.404  1.00  0.00    -0.317 N 
HETATM   15  C   UNL     1      41.561  -7.936  12.454  1.00  0.00    -0.028 A 
HETATM   16  C   UNL     1      39.698  -6.138  15.146  1.00  0.00     0.224 C 
HETATM   17  C   UNL     1      42.017  -6.899  15.082  1.00  0.00     0.132 C 
HETATM   18  O   UNL     1      39.838  -5.718  16.297  1.00  0.00    -0.273 OA
HETATM   19  C   UNL     1      38.322  -6.205  14.524  1.00  0.00     0.108 C 
HETATM   20  C   UNL     1      43.186  -7.106  14.132  1.00  0.00     0.025 C 
HETATM   21  C   UNL     1      42.862  -8.223  13.153  1.00  0.00     0.042 C 
HETATM   22  C   UNL     1      41.329  -8.459  11.171  1.00  0.00     0.039 A 
ENDBRANCH   6   9
ENDBRANCH   2   5
BRANCH   1  23
HETATM   23  C   UNL     1      41.039 -10.802   5.690  1.00  0.00     0.169 C 
BRANCH  23  24
HETATM   24  C   UNL     1      41.556 -12.200   5.586  1.00  0.00     0.001 A 
HETATM   25  S   UNL     1      40.490 -13.527   5.785  1.00  0.00    -0.095 SA
HETATM   26  C   UNL     1      41.713 -14.667   5.404  1.00  0.00     0.017 A 
HETATM   27  C   UNL     1      42.925 -14.041   5.186  1.00  0.00     0.018 A 
HETATM   28  C   UNL     1      42.837 -12.623   5.297  1.00  0.00     0.017 A 
BRANCH  26  29
HETATM   29  C   UNL     1      41.364 -16.129   5.311  1.00  0.00     0.198 C 
BRANCH  29  30
HETATM   30  C   UNL     1      42.364 -16.943   4.539  1.00  0.00     0.016 A 
HETATM   31  S   UNL     1      43.573 -17.826   5.384  1.00  0.00    -0.103 SA
HETATM   32  C   UNL     1      44.236 -18.439   3.933  1.00  0.00     0.050 A 
HETATM   33  C   UNL     1      43.562 -17.985   2.823  1.00  0.00     0.008 A 
HETATM   34  C   UNL     1      42.483 -17.123   3.172  1.00  0.00     0.018 A 
ENDBRANCH  29  30
BRANCH  29  35
HETATM   35  O   UNL     1      40.120 -16.201   4.610  1.00  0.00    -0.385 OA
HETATM   36  H   UNL     1      39.623 -15.405   4.863  1.00  0.00     0.210 HD
ENDBRANCH  29  35
ENDBRANCH  26  29
ENDBRANCH  23  24
ENDBRANCH   1  23
TORSDOF 7
ENDMDL
MODEL 10
REMARK VINA RESULT:      -8.2      3.631     10.792
REMARK  7 active torsions:
REMARK  status: ('A' for Active; 'I' for Inactive)
REMARK    1  A    between atoms: C_4  and  C_5 
REMARK    2  A    between atoms: C_5  and  O_6 
REMARK    3  A    between atoms: C_5  and  C_7 
REMARK    4  A    between atoms: C_9  and  C_10 
REMARK    5  A    between atoms: C_10  and  N_11 
REMARK       I    between atoms: N_11  and  C_12 
REMARK    6  A    between atoms: C_12  and  C_13 
REMARK       I    between atoms: C_13  and  N_14 
REMARK    7  A    between atoms: N_14  and  C_15 
ROOT
HETATM    1  N   UNL     1      43.730 -10.789   5.986  1.00  0.00    -0.348 N 
HETATM    2  C   UNL     1      44.799 -11.063   6.798  1.00  0.00     0.310 C 
HETATM    3  O   UNL     1      45.787 -11.720   6.507  1.00  0.00    -0.262 OA
HETATM    4  H   UNL     1      42.948 -10.307   6.424  1.00  0.00     0.163 HD
ENDROOT
BRANCH   2   5
HETATM    5  C   UNL     1      44.638 -10.473   8.216  1.00  0.00     0.313 C 
HETATM    6  N   UNL     1      43.535  -9.652   8.325  1.00  0.00    -0.319 N 
HETATM    7  H   UNL     1      42.986  -9.567   7.472  1.00  0.00     0.169 HD
HETATM    8  O   UNL     1      45.478 -10.757   9.059  1.00  0.00    -0.262 OA
BRANCH   6   9
HETATM    9  C   UNL     1      43.137  -8.904   9.446  1.00  0.00     0.036 A 
HETATM   10  C   UNL     1      43.087  -7.511   9.465  1.00  0.00     0.039 A 
HETATM   11  C   UNL     1      42.630  -6.825  10.600  1.00  0.00    -0.028 A 
HETATM   12  C   UNL     1      42.238  -7.534  11.740  1.00  0.00     0.050 A 
HETATM   13  C   UNL     1      42.645  -5.324  10.638  1.00  0.00     0.050 C 
HETATM   14  N   UNL     1      41.762  -6.824  12.875  1.00  0.00    -0.317 N 
HETATM   15  C   UNL     1      42.344  -8.933  11.754  1.00  0.00    -0.028 A 
HETATM   16  C   UNL     1      41.425  -5.474  12.822  1.00  0.00     0.224 C 
HETATM   17  C   UNL     1      41.442  -7.557  14.095  1.00  0.00     0.132 C 
HETATM   18  O   UNL     1      40.992  -4.851  13.793  1.00  0.00    -0.273 OA
HETATM   19  C   UNL     1      41.483  -4.817  11.462  1.00  0.00     0.108 C 
HETATM   20  C   UNL     1      42.186  -8.876  14.227  1.00  0.00     0.025 C 
HETATM   21  C   UNL     1      41.966  -9.718  12.980  1.00  0.00     0.042 C 
HETATM   22  C   UNL     1      42.770  -9.609  10.598  1.00  0.00     0.039 A 
ENDBRANCH   6   9
ENDBRANCH   2   5
BRANCH   1  23
HETATM   23  C   UNL     1      43.557 -11.387   4.688  1.00  0.00     0.169 C 
BRANCH  23  24
HETATM   24  C   UNL     1      42.733 -12.621   4.870  1.00  0.00     0.001 A 
HETATM   25  S   UNL     1      42.629 -13.778   3.610  1.00  0.00    -0.095 SA
HETATM   26  C   UNL     1      41.709 -14.858   4.573  1.00  0.00     0.017 A 
HETATM   27  C   UNL     1      41.441 -14.313   5.814  1.00  0.00     0.018 A 
HETATM   28  C   UNL     1      42.024 -13.024   5.983  1.00  0.00     0.017 A 
BRANCH  26  29
HETATM   29  C   UNL     1      41.344 -16.213   4.027  1.00  0.00     0.198 C 
BRANCH  29  30
HETATM   30  C   UNL     1      42.510 -17.155   3.915  1.00  0.00     0.016 A 
HETATM   31  S   UNL     1      42.867 -17.886   2.400  1.00  0.00    -0.103 SA
HETATM   32  C   UNL     1      44.213 -18.720   3.043  1.00  0.00     0.050 A 
HETATM   33  C   UNL     1      44.395 -18.457   4.382  1.00  0.00     0.008 A 
HETATM   34  C   UNL     1      43.413 -17.555   4.884  1.00  0.00     0.018 A 
ENDBRANCH  29  30
BRANCH  29  35
HETATM   35  O   UNL     1      40.842 -15.993   2.706  1.00  0.00    -0.385 OA
HETATM   36  H   UNL     1      40.509 -16.853   2.399  1.00  0.00     0.210 HD
ENDBRANCH  29  35
ENDBRANCH  26  29
ENDBRANCH  23  24
ENDBRANCH   1  23
TORSDOF 7
ENDMDL
