MODEL 1
REMARK VINA RESULT:      -8.7      0.000      0.000
REMARK  2 active torsions:
REMARK  status: ('A' for Active; 'I' for Inactive)
REMARK    1  A    between atoms: C_10  and  C_11 
REMARK    2  A    between atoms: C_12  and  O_13 
ROOT
HETATM    1  C   UNL     1      36.714 -13.085  -3.143  1.00  0.00     0.076 C 
HETATM    2  C   UNL     1      37.904 -12.590  -2.423  1.00  0.00     0.050 A 
HETATM    3  O   UNL     1      38.309 -13.313  -1.342  1.00  0.00    -0.312 OA
HETATM    4  C   UNL     1      39.405 -12.684  -0.805  1.00  0.00     0.121 A 
HETATM    5  C   UNL     1      40.073 -13.162   0.362  1.00  0.00     0.163 A 
HETATM    6  N   UNL     1      41.058 -12.568   0.995  1.00  0.00    -0.221 NA
HETATM    7  C   UNL     1      41.357 -13.367   2.094  1.00  0.00     0.149 A 
HETATM    8  C   UNL     1      40.539 -14.489   2.089  1.00  0.00     0.046 A 
HETATM    9  C   UNL     1      40.380 -15.698   2.944  1.00  0.00     0.070 C 
HETATM   10  C   UNL     1      41.095 -15.718   4.302  1.00  0.00     0.045 C 
HETATM   11  C   UNL     1      41.398 -14.341   4.916  1.00  0.00     0.132 C 
HETATM   12  N   UNL     1      42.435 -13.562   4.281  1.00  0.00    -0.355 N 
HETATM   13  C   UNL     1      42.411 -12.985   3.036  1.00  0.00     0.272 C 
HETATM   14  O   UNL     1      43.290 -12.168   2.765  1.00  0.00    -0.266 OA
HETATM   15  N   UNL     1      39.739 -14.330   0.978  1.00  0.00    -0.340 N 
HETATM   16  H   UNL     1      39.013 -14.956   0.658  1.00  0.00     0.167 HD
HETATM   17  C   UNL     1      39.693 -11.566  -1.567  1.00  0.00     0.043 A 
HETATM   18  C   UNL     1      38.733 -11.507  -2.605  1.00  0.00     0.035 A 
HETATM   19  H   UNL     1      43.171 -13.180   4.860  1.00  0.00     0.162 HD
ENDROOT
BRANCH  10  20
HETATM   20  C   UNL     1      42.246 -16.730   4.332  1.00  0.00    -0.019 A 
HETATM   21  C   UNL     1      42.782 -17.180   5.562  1.00  0.00     0.074 A 
HETATM   22  C   UNL     1      43.844 -18.093   5.573  1.00  0.00     0.037 A 
HETATM   23  C   UNL     1      44.363 -18.592   4.379  1.00  0.00     0.003 A 
HETATM   24  C   UNL     1      43.816 -18.193   3.167  1.00  0.00     0.001 A 
HETATM   25  C   UNL     1      42.762 -17.277   3.144  1.00  0.00     0.010 A 
BRANCH  21  26
HETATM   26  O   UNL     1      42.206 -16.671   6.699  1.00  0.00    -0.355 OA
HETATM   27  C   UNL     1      43.072 -16.092   7.669  1.00  0.00     0.210 C 
ENDBRANCH  21  26
ENDBRANCH  10  20
TORSDOF 2
ENDMDL
MODEL 2
REMARK VINA RESULT:      -8.7      4.270      7.352
REMARK  2 active torsions:
REMARK  status: ('A' for Active; 'I' for Inactive)
REMARK    1  A    between atoms: C_10  and  C_11 
REMARK    2  A    between atoms: C_12  and  O_13 
ROOT
HETATM    1  C   UNL     1      43.948 -20.948   4.756  1.00  0.00     0.076 C 
HETATM    2  C   UNL     1      43.802 -19.683   4.009  1.00  0.00     0.050 A 
HETATM    3  O   UNL     1      43.749 -18.540   4.747  1.00  0.00    -0.312 OA
HETATM    4  C   UNL     1      43.593 -17.488   3.878  1.00  0.00     0.121 A 
HETATM    5  C   UNL     1      43.474 -16.136   4.317  1.00  0.00     0.163 A 
HETATM    6  N   UNL     1      43.221 -15.091   3.565  1.00  0.00    -0.221 NA
HETATM    7  C   UNL     1      43.148 -13.997   4.422  1.00  0.00     0.149 A 
HETATM    8  C   UNL     1      43.399 -14.411   5.725  1.00  0.00     0.046 A 
HETATM    9  C   UNL     1      43.489 -13.749   7.056  1.00  0.00     0.070 C 
HETATM   10  C   UNL     1      43.004 -12.298   7.173  1.00  0.00     0.045 C 
HETATM   11  C   UNL     1      41.959 -11.859   6.134  1.00  0.00     0.132 C 
HETATM   12  N   UNL     1      42.425 -11.688   4.777  1.00  0.00    -0.355 N 
HETATM   13  C   UNL     1      42.860 -12.656   3.909  1.00  0.00     0.272 C 
HETATM   14  O   UNL     1      42.995 -12.348   2.725  1.00  0.00    -0.266 OA
HETATM   15  N   UNL     1      43.603 -15.770   5.624  1.00  0.00    -0.340 N 
HETATM   16  H   UNL     1      43.807 -16.412   6.377  1.00  0.00     0.167 HD
HETATM   17  C   UNL     1      43.562 -17.981   2.585  1.00  0.00     0.043 A 
HETATM   18  C   UNL     1      43.698 -19.387   2.669  1.00  0.00     0.035 A 
HETATM   19  H   UNL     1      42.206 -10.824   4.300  1.00  0.00     0.162 HD
ENDROOT
BRANCH  10  20
HETATM   20  C   UNL     1      44.161 -11.321   7.409  1.00  0.00    -0.019 A 
HETATM   21  C   UNL     1      43.992 -10.186   8.236  1.00  0.00     0.074 A 
HETATM   22  C   UNL     1      45.054  -9.294   8.431  1.00  0.00     0.037 A 
HETATM   23  C   UNL     1      46.296  -9.530   7.840  1.00  0.00     0.003 A 
HETATM   24  C   UNL     1      46.487 -10.664   7.063  1.00  0.00     0.001 A 
HETATM   25  C   UNL     1      45.433 -11.556   6.857  1.00  0.00     0.010 A 
BRANCH  21  26
HETATM   26  O   UNL     1      42.755 -10.029   8.809  1.00  0.00    -0.355 OA
HETATM   27  C   UNL     1      42.712  -9.641  10.177  1.00  0.00     0.210 C 
ENDBRANCH  21  26
ENDBRANCH  10  20
TORSDOF 2
ENDMDL
MODEL 3
REMARK VINA RESULT:      -8.0      4.655      7.546
REMARK  2 active torsions:
REMARK  status: ('A' for Active; 'I' for Inactive)
REMARK    1  A    between atoms: C_10  and  C_11 
REMARK    2  A    between atoms: C_12  and  O_13 
ROOT
HETATM    1  C   UNL     1      43.934 -20.603   1.525  1.00  0.00     0.076 C 
HETATM    2  C   UNL     1      43.876 -20.111   2.916  1.00  0.00     0.050 A 
HETATM    3  O   UNL     1      43.609 -18.786   3.084  1.00  0.00    -0.312 OA
HETATM    4  C   UNL     1      43.620 -18.526   4.433  1.00  0.00     0.121 A 
HETATM    5  C   UNL     1      43.401 -17.222   4.968  1.00  0.00     0.163 A 
HETATM    6  N   UNL     1      43.496 -16.871   6.229  1.00  0.00    -0.221 NA
HETATM    7  C   UNL     1      43.247 -15.502   6.276  1.00  0.00     0.149 A 
HETATM    8  C   UNL     1      42.964 -15.038   4.998  1.00  0.00     0.046 A 
HETATM    9  C   UNL     1      42.603 -13.725   4.395  1.00  0.00     0.070 C 
HETATM   10  C   UNL     1      42.750 -12.468   5.265  1.00  0.00     0.045 C 
HETATM   11  C   UNL     1      43.773 -12.566   6.408  1.00  0.00     0.132 C 
HETATM   12  N   UNL     1      43.417 -13.407   7.527  1.00  0.00    -0.355 N 
HETATM   13  C   UNL     1      43.289 -14.773   7.546  1.00  0.00     0.272 C 
HETATM   14  O   UNL     1      43.208 -15.327   8.641  1.00  0.00    -0.266 OA
HETATM   15  N   UNL     1      43.069 -16.151   4.193  1.00  0.00    -0.340 N 
HETATM   16  H   UNL     1      42.934 -16.193   3.193  1.00  0.00     0.167 HD
HETATM   17  C   UNL     1      43.884 -19.703   5.111  1.00  0.00     0.043 A 
HETATM   18  C   UNL     1      44.045 -20.719   4.139  1.00  0.00     0.035 A 
HETATM   19  H   UNL     1      43.492 -13.022   8.459  1.00  0.00     0.162 HD
ENDROOT
BRANCH  10  20
HETATM   20  C   UNL     1      41.393 -11.861   5.634  1.00  0.00    -0.019 A 
HETATM   21  C   UNL     1      41.300 -10.533   6.114  1.00  0.00     0.074 A 
HETATM   22  C   UNL     1      40.055  -9.997   6.462  1.00  0.00     0.037 A 
HETATM   23  C   UNL     1      38.891 -10.750   6.310  1.00  0.00     0.003 A 
HETATM   24  C   UNL     1      38.963 -12.039   5.799  1.00  0.00     0.001 A 
HETATM   25  C   UNL     1      40.201 -12.585   5.455  1.00  0.00     0.010 A 
BRANCH  21  26
HETATM   26  O   UNL     1      42.480  -9.838   6.211  1.00  0.00    -0.355 OA
HETATM   27  C   UNL     1      42.729  -9.139   7.425  1.00  0.00     0.210 C 
ENDBRANCH  21  26
ENDBRANCH  10  20
TORSDOF 2
ENDMDL
MODEL 4
REMARK VINA RESULT:      -7.9      3.652      7.579
REMARK  2 active torsions:
REMARK  status: ('A' for Active; 'I' for Inactive)
REMARK    1  A    between atoms: C_10  and  C_11 
REMARK    2  A    between atoms: C_12  and  O_13 
ROOT
HETATM    1  C   UNL     1      43.877 -20.585   1.624  1.00  0.00     0.076 C 
HETATM    2  C   UNL     1      43.864 -19.959   2.961  1.00  0.00     0.050 A 
HETATM    3  O   UNL     1      43.558 -18.633   3.013  1.00  0.00    -0.312 OA
HETATM    4  C   UNL     1      43.620 -18.241   4.328  1.00  0.00     0.121 A 
HETATM    5  C   UNL     1      43.379 -16.898   4.743  1.00  0.00     0.163 A 
HETATM    6  N   UNL     1      43.517 -16.421   5.958  1.00  0.00    -0.221 NA
HETATM    7  C   UNL     1      43.223 -15.063   5.883  1.00  0.00     0.149 A 
HETATM    8  C   UNL     1      42.868 -14.735   4.580  1.00  0.00     0.046 A 
HETATM    9  C   UNL     1      42.436 -13.500   3.871  1.00  0.00     0.070 C 
HETATM   10  C   UNL     1      42.577 -12.160   4.606  1.00  0.00     0.045 C 
HETATM   11  C   UNL     1      43.652 -12.113   5.704  1.00  0.00     0.132 C 
HETATM   12  N   UNL     1      43.376 -12.850   6.915  1.00  0.00    -0.355 N 
HETATM   13  C   UNL     1      43.296 -14.210   7.072  1.00  0.00     0.272 C 
HETATM   14  O   UNL     1      43.283 -14.656   8.219  1.00  0.00    -0.266 OA
HETATM   15  N   UNL     1      42.976 -15.919   3.884  1.00  0.00    -0.340 N 
HETATM   16  H   UNL     1      42.799 -16.064   2.900  1.00  0.00     0.167 HD
HETATM   17  C   UNL     1      43.954 -19.337   5.103  1.00  0.00     0.043 A 
HETATM   18  C   UNL     1      44.108 -20.439   4.228  1.00  0.00     0.035 A 
HETATM   19  H   UNL     1      43.477 -12.373   7.800  1.00  0.00     0.162 HD
ENDROOT
BRANCH  10  20
HETATM   20  C   UNL     1      41.217 -11.561   4.978  1.00  0.00    -0.019 A 
HETATM   21  C   UNL     1      40.724 -10.414   4.311  1.00  0.00     0.074 A 
HETATM   22  C   UNL     1      39.486  -9.869   4.672  1.00  0.00     0.037 A 
HETATM   23  C   UNL     1      38.712 -10.465   5.667  1.00  0.00     0.003 A 
HETATM   24  C   UNL     1      39.163 -11.616   6.299  1.00  0.00     0.001 A 
HETATM   25  C   UNL     1      40.399 -12.164   5.951  1.00  0.00     0.010 A 
BRANCH  21  26
HETATM   26  O   UNL     1      41.522  -9.896   3.322  1.00  0.00    -0.355 OA
HETATM   27  C   UNL     1      40.911  -9.608   2.070  1.00  0.00     0.210 C 
ENDBRANCH  21  26
ENDBRANCH  10  20
TORSDOF 2
ENDMDL
MODEL 5
REMARK VINA RESULT:      -7.8     10.757     14.670
REMARK  2 active torsions:
REMARK  status: ('A' for Active; 'I' for Inactive)
REMARK    1  A    between atoms: C_10  and  C_11 
REMARK    2  A    between atoms: C_12  and  O_13 
ROOT
HETATM    1  C   UNL     1      42.297  -4.796  19.607  1.00  0.00     0.076 C 
HETATM    2  C   UNL     1      41.764  -5.970  18.886  1.00  0.00     0.050 A 
HETATM    3  O   UNL     1      42.044  -6.049  17.556  1.00  0.00    -0.312 OA
HETATM    4  C   UNL     1      41.448  -7.188  17.071  1.00  0.00     0.121 A 
HETATM    5  C   UNL     1      41.517  -7.570  15.698  1.00  0.00     0.163 A 
HETATM    6  N   UNL     1      40.895  -8.580  15.137  1.00  0.00    -0.221 NA
HETATM    7  C   UNL     1      41.217  -8.538  13.784  1.00  0.00     0.149 A 
HETATM    8  C   UNL     1      42.088  -7.482  13.547  1.00  0.00     0.046 A 
HETATM    9  C   UNL     1      42.798  -6.931  12.360  1.00  0.00     0.070 C 
HETATM   10  C   UNL     1      42.387  -7.443  10.972  1.00  0.00     0.045 C 
HETATM   11  C   UNL     1      40.954  -7.988  10.861  1.00  0.00     0.132 C 
HETATM   12  N   UNL     1      40.689  -9.253  11.506  1.00  0.00    -0.355 N 
HETATM   13  C   UNL     1      40.672  -9.526  12.850  1.00  0.00     0.272 C 
HETATM   14  O   UNL     1      40.199 -10.602  13.212  1.00  0.00    -0.266 OA
HETATM   15  N   UNL     1      42.259  -6.889  14.779  1.00  0.00    -0.340 N 
HETATM   16  H   UNL     1      42.827  -6.081  14.991  1.00  0.00     0.167 HD
HETATM   17  C   UNL     1      40.802  -7.830  18.113  1.00  0.00     0.043 A 
HETATM   18  C   UNL     1      41.007  -7.051  19.277  1.00  0.00     0.035 A 
HETATM   19  H   UNL     1      40.236  -9.980  10.967  1.00  0.00     0.162 HD
ENDROOT
BRANCH  10  20
HETATM   20  C   UNL     1      43.480  -8.305  10.330  1.00  0.00    -0.019 A 
HETATM   21  C   UNL     1      43.871  -8.093   8.986  1.00  0.00     0.074 A 
HETATM   22  C   UNL     1      44.860  -8.898   8.408  1.00  0.00     0.037 A 
HETATM   23  C   UNL     1      45.492  -9.892   9.154  1.00  0.00     0.003 A 
HETATM   24  C   UNL     1      45.149 -10.080  10.486  1.00  0.00     0.001 A 
HETATM   25  C   UNL     1      44.159  -9.288  11.071  1.00  0.00     0.010 A 
BRANCH  21  26
HETATM   26  O   UNL     1      43.230  -7.080   8.318  1.00  0.00    -0.355 OA
HETATM   27  C   UNL     1      42.272  -7.449   7.334  1.00  0.00     0.210 C 
ENDBRANCH  21  26
ENDBRANCH  10  20
TORSDOF 2
ENDMDL
MODEL 6
REMARK VINA RESULT:      -7.5      2.214      7.875
REMARK  2 active torsions:
REMARK  status: ('A' for Active; 'I' for Inactive)
REMARK    1  A    between atoms: C_10  and  C_11 
REMARK    2  A    between atoms: C_12  and  O_13 
ROOT
HETATM    1  C   UNL     1      43.455 -20.146   1.946  1.00  0.00     0.076 C 
HETATM    2  C   UNL     1      43.461 -18.827   2.610  1.00  0.00     0.050 A 
HETATM    3  O   UNL     1      42.844 -17.808   1.952  1.00  0.00    -0.312 OA
HETATM    4  C   UNL     1      42.978 -16.674   2.716  1.00  0.00     0.121 A 
HETATM    5  C   UNL     1      42.466 -15.406   2.310  1.00  0.00     0.163 A 
HETATM    6  N   UNL     1      42.638 -14.261   2.928  1.00  0.00    -0.221 NA
HETATM    7  C   UNL     1      42.006 -13.295   2.151  1.00  0.00     0.149 A 
HETATM    8  C   UNL     1      41.413 -13.900   1.050  1.00  0.00     0.046 A 
HETATM    9  C   UNL     1      40.595 -13.443  -0.107  1.00  0.00     0.070 C 
HETATM   10  C   UNL     1      40.492 -11.933  -0.364  1.00  0.00     0.045 C 
HETATM   11  C   UNL     1      41.656 -11.085   0.174  1.00  0.00     0.132 C 
HETATM   12  N   UNL     1      41.735 -10.926   1.608  1.00  0.00    -0.355 N 
HETATM   13  C   UNL     1      42.019 -11.885   2.546  1.00  0.00     0.272 C 
HETATM   14  O   UNL     1      42.269 -11.511   3.691  1.00  0.00    -0.266 OA
HETATM   15  N   UNL     1      41.720 -15.237   1.181  1.00  0.00    -0.340 N 
HETATM   16  H   UNL     1      41.457 -15.986   0.556  1.00  0.00     0.167 HD
HETATM   17  C   UNL     1      43.674 -16.995   3.868  1.00  0.00     0.043 A 
HETATM   18  C   UNL     1      43.982 -18.374   3.801  1.00  0.00     0.035 A 
HETATM   19  H   UNL     1      41.829  -9.991   1.982  1.00  0.00     0.162 HD
ENDROOT
BRANCH  10  20
HETATM   20  C   UNL     1      39.086 -11.395  -0.078  1.00  0.00    -0.019 A 
HETATM   21  C   UNL     1      38.404 -10.607  -1.035  1.00  0.00     0.074 A 
HETATM   22  C   UNL     1      37.126 -10.109  -0.754  1.00  0.00     0.037 A 
HETATM   23  C   UNL     1      36.499 -10.408   0.455  1.00  0.00     0.003 A 
HETATM   24  C   UNL     1      37.139 -11.217   1.385  1.00  0.00     0.001 A 
HETATM   25  C   UNL     1      38.416 -11.713   1.117  1.00  0.00     0.010 A 
BRANCH  21  26
HETATM   26  O   UNL     1      39.066 -10.375  -2.215  1.00  0.00    -0.355 OA
HETATM   27  C   UNL     1      38.278 -10.066  -3.358  1.00  0.00     0.210 C 
ENDBRANCH  21  26
ENDBRANCH  10  20
TORSDOF 2
ENDMDL
MODEL 7
REMARK VINA RESULT:      -7.5      4.376      6.367
REMARK  2 active torsions:
REMARK  status: ('A' for Active; 'I' for Inactive)
REMARK    1  A    between atoms: C_10  and  C_11 
REMARK    2  A    between atoms: C_12  and  O_13 
ROOT
HETATM    1  C   UNL     1      38.277  -6.423   7.146  1.00  0.00     0.076 C 
HETATM    2  C   UNL     1      39.671  -6.911   7.155  1.00  0.00     0.050 A 
HETATM    3  O   UNL     1      39.865  -8.214   6.809  1.00  0.00    -0.312 OA
HETATM    4  C   UNL     1      41.210  -8.474   6.899  1.00  0.00     0.121 A 
HETATM    5  C   UNL     1      41.766  -9.760   6.629  1.00  0.00     0.163 A 
HETATM    6  N   UNL     1      43.019 -10.117   6.790  1.00  0.00    -0.221 NA
HETATM    7  C   UNL     1      43.090 -11.465   6.450  1.00  0.00     0.149 A 
HETATM    8  C   UNL     1      41.837 -11.908   6.045  1.00  0.00     0.046 A 
HETATM    9  C   UNL     1      41.268 -13.193   5.551  1.00  0.00     0.070 C 
HETATM   10  C   UNL     1      42.131 -14.456   5.672  1.00  0.00     0.045 C 
HETATM   11  C   UNL     1      43.197 -14.431   6.779  1.00  0.00     0.132 C 
HETATM   12  N   UNL     1      44.335 -13.567   6.564  1.00  0.00    -0.355 N 
HETATM   13  C   UNL     1      44.356 -12.196   6.532  1.00  0.00     0.272 C 
HETATM   14  O   UNL     1      45.452 -11.638   6.570  1.00  0.00    -0.266 OA
HETATM   15  N   UNL     1      41.022 -10.804   6.168  1.00  0.00    -0.340 N 
HETATM   16  H   UNL     1      40.033 -10.753   5.965  1.00  0.00     0.167 HD
HETATM   17  C   UNL     1      41.861  -7.318   7.292  1.00  0.00     0.043 A 
HETATM   18  C   UNL     1      40.876  -6.316   7.454  1.00  0.00     0.035 A 
HETATM   19  H   UNL     1      45.261 -13.957   6.678  1.00  0.00     0.162 HD
ENDROOT
BRANCH  10  20
HETATM   20  C   UNL     1      42.600 -14.967   4.306  1.00  0.00    -0.019 A 
HETATM   21  C   UNL     1      42.765 -16.353   4.069  1.00  0.00     0.074 A 
HETATM   22  C   UNL     1      43.209 -16.804   2.820  1.00  0.00     0.037 A 
HETATM   23  C   UNL     1      43.461 -15.901   1.788  1.00  0.00     0.003 A 
HETATM   24  C   UNL     1      43.260 -14.543   1.993  1.00  0.00     0.001 A 
HETATM   25  C   UNL     1      42.824 -14.081   3.237  1.00  0.00     0.010 A 
BRANCH  21  26
HETATM   26  O   UNL     1      42.471 -17.188   5.118  1.00  0.00    -0.355 OA
HETATM   27  C   UNL     1      43.523 -18.005   5.618  1.00  0.00     0.210 C 
ENDBRANCH  21  26
ENDBRANCH  10  20
TORSDOF 2
ENDMDL
MODEL 8
REMARK VINA RESULT:      -7.4      4.011      6.018
REMARK  2 active torsions:
REMARK  status: ('A' for Active; 'I' for Inactive)
REMARK    1  A    between atoms: C_10  and  C_11 
REMARK    2  A    between atoms: C_12  and  O_13 
ROOT
HETATM    1  C   UNL     1      40.382 -13.412  -1.787  1.00  0.00     0.076 C 
HETATM    2  C   UNL     1      40.325 -14.021  -0.443  1.00  0.00     0.050 A 
HETATM    3  O   UNL     1      40.963 -13.353   0.558  1.00  0.00    -0.312 OA
HETATM    4  C   UNL     1      40.813 -14.085   1.710  1.00  0.00     0.121 A 
HETATM    5  C   UNL     1      41.382 -13.686   2.956  1.00  0.00     0.163 A 
HETATM    6  N   UNL     1      41.372 -14.375   4.073  1.00  0.00    -0.221 NA
HETATM    7  C   UNL     1      42.082 -13.622   5.005  1.00  0.00     0.149 A 
HETATM    8  C   UNL     1      42.497 -12.432   4.421  1.00  0.00     0.046 A 
HETATM    9  C   UNL     1      43.248 -11.227   4.871  1.00  0.00     0.070 C 
HETATM   10  C   UNL     1      43.965 -11.291   6.227  1.00  0.00     0.045 C 
HETATM   11  C   UNL     1      44.353 -12.699   6.709  1.00  0.00     0.132 C 
HETATM   12  N   UNL     1      43.273 -13.557   7.140  1.00  0.00    -0.355 N 
HETATM   13  C   UNL     1      42.281 -14.110   6.371  1.00  0.00     0.272 C 
HETATM   14  O   UNL     1      41.592 -14.997   6.874  1.00  0.00    -0.266 OA
HETATM   15  N   UNL     1      42.036 -12.502   3.124  1.00  0.00    -0.340 N 
HETATM   16  H   UNL     1      42.156 -11.810   2.398  1.00  0.00     0.167 HD
HETATM   17  C   UNL     1      40.063 -15.212   1.426  1.00  0.00     0.043 A 
HETATM   18  C   UNL     1      39.748 -15.170   0.047  1.00  0.00     0.035 A 
HETATM   19  H   UNL     1      43.352 -14.011   8.040  1.00  0.00     0.162 HD
ENDROOT
BRANCH  10  20
HETATM   20  C   UNL     1      43.304 -10.386   7.272  1.00  0.00    -0.019 A 
HETATM   21  C   UNL     1      44.052  -9.867   8.355  1.00  0.00     0.074 A 
HETATM   22  C   UNL     1      43.431  -9.053   9.311  1.00  0.00     0.037 A 
HETATM   23  C   UNL     1      42.082  -8.719   9.190  1.00  0.00     0.003 A 
HETATM   24  C   UNL     1      41.349  -9.186   8.107  1.00  0.00     0.001 A 
HETATM   25  C   UNL     1      41.957 -10.003   7.153  1.00  0.00     0.010 A 
BRANCH  21  26
HETATM   26  O   UNL     1      45.380 -10.210   8.399  1.00  0.00    -0.355 OA
HETATM   27  C   UNL     1      46.329  -9.194   8.097  1.00  0.00     0.210 C 
ENDBRANCH  21  26
ENDBRANCH  10  20
TORSDOF 2
ENDMDL
MODEL 9
REMARK VINA RESULT:      -7.4      6.586      8.909
REMARK  2 active torsions:
REMARK  status: ('A' for Active; 'I' for Inactive)
REMARK    1  A    between atoms: C_10  and  C_11 
REMARK    2  A    between atoms: C_12  and  O_13 
ROOT
HETATM    1  C   UNL     1      39.616 -13.736   2.816  1.00  0.00     0.076 C 
HETATM    2  C   UNL     1      40.910 -13.616   3.517  1.00  0.00     0.050 A 
HETATM    3  O   UNL     1      40.986 -12.680   4.504  1.00  0.00    -0.312 OA
HETATM    4  C   UNL     1      42.262 -12.710   5.012  1.00  0.00     0.121 A 
HETATM    5  C   UNL     1      42.699 -11.836   6.051  1.00  0.00     0.163 A 
HETATM    6  N   UNL     1      43.920 -11.731   6.519  1.00  0.00    -0.221 NA
HETATM    7  C   UNL     1      43.887 -10.726   7.481  1.00  0.00     0.149 A 
HETATM    8  C   UNL     1      42.590 -10.244   7.606  1.00  0.00     0.046 A 
HETATM    9  C   UNL     1      41.908  -9.222   8.446  1.00  0.00     0.070 C 
HETATM   10  C   UNL     1      42.782  -8.261   9.263  1.00  0.00     0.045 C 
HETATM   11  C   UNL     1      44.202  -8.028   8.720  1.00  0.00     0.132 C 
HETATM   12  N   UNL     1      45.133  -9.125   8.847  1.00  0.00    -0.355 N 
HETATM   13  C   UNL     1      45.101 -10.334   8.202  1.00  0.00     0.272 C 
HETATM   14  O   UNL     1      46.104 -11.045   8.263  1.00  0.00    -0.266 OA
HETATM   15  N   UNL     1      41.862 -10.969   6.687  1.00  0.00    -0.340 N 
HETATM   16  H   UNL     1      40.874 -10.885   6.493  1.00  0.00     0.167 HD
HETATM   17  C   UNL     1      42.982 -13.684   4.344  1.00  0.00     0.043 A 
HETATM   18  C   UNL     1      42.116 -14.266   3.388  1.00  0.00     0.035 A 
HETATM   19  H   UNL     1      46.038  -8.940   9.259  1.00  0.00     0.162 HD
ENDROOT
BRANCH  10  20
HETATM   20  C   UNL     1      42.678  -8.526  10.768  1.00  0.00    -0.019 A 
HETATM   21  C   UNL     1      42.564  -7.455  11.686  1.00  0.00     0.074 A 
HETATM   22  C   UNL     1      42.486  -7.712  13.060  1.00  0.00     0.037 A 
HETATM   23  C   UNL     1      42.487  -9.022  13.538  1.00  0.00     0.003 A 
HETATM   24  C   UNL     1      42.553 -10.083  12.645  1.00  0.00     0.001 A 
HETATM   25  C   UNL     1      42.639  -9.838  11.273  1.00  0.00     0.010 A 
BRANCH  21  26
HETATM   26  O   UNL     1      42.540  -6.192  11.147  1.00  0.00    -0.355 OA
HETATM   27  C   UNL     1      42.144  -5.124  12.000  1.00  0.00     0.210 C 
ENDBRANCH  21  26
ENDBRANCH  10  20
TORSDOF 2
ENDMDL
MODEL 10
REMARK VINA RESULT:      -7.4      2.552      3.384
REMARK  2 active torsions:
REMARK  status: ('A' for Active; 'I' for Inactive)
REMARK    1  A    between atoms: C_10  and  C_11 
REMARK    2  A    between atoms: C_12  and  O_13 
ROOT
HETATM    1  C   UNL     1      41.338  -9.099  -4.261  1.00  0.00     0.076 C 
HETATM    2  C   UNL     1      40.694  -9.295  -2.947  1.00  0.00     0.050 A 
HETATM    3  O   UNL     1      40.958 -10.467  -2.305  1.00  0.00    -0.312 OA
HETATM    4  C   UNL     1      40.256 -10.464  -1.124  1.00  0.00     0.121 A 
HETATM    5  C   UNL     1      40.282 -11.558  -0.210  1.00  0.00     0.163 A 
HETATM    6  N   UNL     1      39.566 -11.678   0.883  1.00  0.00    -0.221 NA
HETATM    7  C   UNL     1      39.883 -12.919   1.427  1.00  0.00     0.149 A 
HETATM    8  C   UNL     1      40.847 -13.538   0.641  1.00  0.00     0.046 A 
HETATM    9  C   UNL     1      41.599 -14.823   0.689  1.00  0.00     0.070 C 
HETATM   10  C   UNL     1      41.134 -15.892   1.687  1.00  0.00     0.045 C 
HETATM   11  C   UNL     1      39.656 -15.819   2.102  1.00  0.00     0.132 C 
HETATM   12  N   UNL     1      39.278 -14.723   2.964  1.00  0.00    -0.355 N 
HETATM   13  C   UNL     1      39.243 -13.386   2.659  1.00  0.00     0.272 C 
HETATM   14  O   UNL     1      38.674 -12.632   3.448  1.00  0.00    -0.266 OA
HETATM   15  N   UNL     1      41.079 -12.650  -0.386  1.00  0.00    -0.340 N 
HETATM   16  H   UNL     1      41.721 -12.767  -1.158  1.00  0.00     0.167 HD
HETATM   17  C   UNL     1      39.559  -9.273  -1.025  1.00  0.00     0.043 A 
HETATM   18  C   UNL     1      39.842  -8.522  -2.191  1.00  0.00     0.035 A 
HETATM   19  H   UNL     1      38.757 -14.933   3.805  1.00  0.00     0.162 HD
ENDROOT
BRANCH  10  20
HETATM   20  C   UNL     1      42.139 -16.091   2.827  1.00  0.00    -0.019 A 
HETATM   21  C   UNL     1      42.818 -17.322   2.987  1.00  0.00     0.074 A 
HETATM   22  C   UNL     1      43.721 -17.494   4.043  1.00  0.00     0.037 A 
HETATM   23  C   UNL     1      43.987 -16.448   4.927  1.00  0.00     0.003 A 
HETATM   24  C   UNL     1      43.361 -15.221   4.754  1.00  0.00     0.001 A 
HETATM   25  C   UNL     1      42.453 -15.042   3.709  1.00  0.00     0.010 A 
BRANCH  21  26
HETATM   26  O   UNL     1      42.532 -18.299   2.066  1.00  0.00    -0.355 OA
HETATM   27  C   UNL     1      43.209 -19.543   2.200  1.00  0.00     0.210 C 
ENDBRANCH  21  26
ENDBRANCH  10  20
TORSDOF 2
ENDMDL
