MODEL 1
REMARK VINA RESULT:      -8.0      0.000      0.000
REMARK  5 active torsions:
REMARK  status: ('A' for Active; 'I' for Inactive)
REMARK    1  A    between atoms: C_4  and  N_5 
REMARK    2  A    between atoms: C_6  and  O_7 
REMARK    3  A    between atoms: C_6  and  C_8 
REMARK       I    between atoms: C_8  and  N_9 
REMARK    4  A    between atoms: N_9  and  C_10 
REMARK    5  A    between atoms: C_10  and  C_11 
ROOT
HETATM    1  N   UNL     1      43.878 -11.432   5.216  1.00  0.00    -0.254 N 
HETATM    2  C   UNL     1      43.328 -11.709   6.554  1.00  0.00     0.256 C 
HETATM    3  C   UNL     1      44.030 -10.920   7.638  1.00  0.00     0.035 A 
HETATM    4  C   UNL     1      45.369 -10.601   7.433  1.00  0.00     0.048 A 
HETATM    5  N   UNL     1      45.950 -10.945   6.217  1.00  0.00    -0.308 N 
HETATM    6  C   UNL     1      45.258 -11.304   5.088  1.00  0.00     0.330 C 
HETATM    7  O   UNL     1      45.906 -11.406   4.048  1.00  0.00    -0.246 OA
HETATM    8  C   UNL     1      43.436 -10.591   8.867  1.00  0.00     0.034 A 
HETATM    9  C   UNL     1      44.183  -9.948   9.852  1.00  0.00     0.011 A 
HETATM   10 BR   UNL     1      43.375  -9.500  11.501  1.00  0.00    -0.051 Br
HETATM   11  C   UNL     1      45.526  -9.640   9.636  1.00  0.00     0.021 A 
HETATM   12  C   UNL     1      46.126  -9.975   8.422  1.00  0.00     0.031 A 
HETATM   13  H   UNL     1      46.926 -10.733   6.044  1.00  0.00     0.170 HD
ENDROOT
BRANCH   2  14
HETATM   14  O   UNL     1      41.940 -11.367   6.631  1.00  0.00    -0.359 OA
HETATM   15  H   UNL     1      41.546 -11.779   5.835  1.00  0.00     0.213 HD
ENDBRANCH   2  14
BRANCH   2  16
HETATM   16  C   UNL     1      43.435 -13.268   6.836  1.00  0.00     0.279 C 
HETATM   17  N   UNL     1      42.265 -13.996   6.863  1.00  0.00    -0.352 N 
HETATM   18  H   UNL     1      41.377 -13.539   6.697  1.00  0.00     0.162 HD
HETATM   19  O   UNL     1      44.532 -13.799   7.039  1.00  0.00    -0.268 OA
BRANCH  17  20
HETATM   20  C   UNL     1      42.280 -15.436   6.950  1.00  0.00     0.168 C 
BRANCH  20  21
HETATM   21  C   UNL     1      42.363 -16.000   5.567  1.00  0.00     0.000 A 
HETATM   22  S   UNL     1      40.972 -16.027   4.561  1.00  0.00    -0.105 SA
HETATM   23  C   UNL     1      41.836 -16.752   3.276  1.00  0.00     0.050 A 
HETATM   24  C   UNL     1      43.155 -16.970   3.598  1.00  0.00     0.008 A 
HETATM   25  C   UNL     1      43.461 -16.538   4.922  1.00  0.00     0.017 A 
ENDBRANCH  20  21
ENDBRANCH  17  20
ENDBRANCH   2  16
BRANCH   1  26
HETATM   26  C   UNL     1      43.064 -11.639   4.053  1.00  0.00     0.042 A 
HETATM   27  C   UNL     1      42.964 -12.893   3.437  1.00  0.00     0.030 A 
HETATM   28  C   UNL     1      42.198 -13.066   2.279  1.00  0.00     0.002 A 
HETATM   29  C   UNL     1      41.530 -11.984   1.712  1.00  0.00     0.000 A 
HETATM   30  C   UNL     1      41.635 -10.727   2.298  1.00  0.00     0.002 A 
HETATM   31  C   UNL     1      42.402 -10.556   3.454  1.00  0.00     0.030 A 
ENDBRANCH   1  26
TORSDOF 5
ENDMDL
MODEL 2
REMARK VINA RESULT:      -7.7      4.172      6.601
REMARK  5 active torsions:
REMARK  status: ('A' for Active; 'I' for Inactive)
REMARK    1  A    between atoms: C_4  and  N_5 
REMARK    2  A    between atoms: C_6  and  O_7 
REMARK    3  A    between atoms: C_6  and  C_8 
REMARK       I    between atoms: C_8  and  N_9 
REMARK    4  A    between atoms: N_9  and  C_10 
REMARK    5  A    between atoms: C_10  and  C_11 
ROOT
HETATM    1  N   UNL     1      41.622 -15.465   4.272  1.00  0.00    -0.254 N 
HETATM    2  C   UNL     1      41.569 -14.224   3.481  1.00  0.00     0.256 C 
HETATM    3  C   UNL     1      41.140 -13.032   4.308  1.00  0.00     0.035 A 
HETATM    4  C   UNL     1      40.283 -13.271   5.378  1.00  0.00     0.048 A 
HETATM    5  N   UNL     1      39.949 -14.588   5.674  1.00  0.00    -0.308 N 
HETATM    6  C   UNL     1      40.610 -15.693   5.201  1.00  0.00     0.330 C 
HETATM    7  O   UNL     1      40.304 -16.778   5.694  1.00  0.00    -0.246 OA
HETATM    8  C   UNL     1      41.474 -11.706   3.990  1.00  0.00     0.034 A 
HETATM    9  C   UNL     1      40.956 -10.656   4.748  1.00  0.00     0.011 A 
HETATM   10 BR   UNL     1      41.416  -8.874   4.320  1.00  0.00    -0.051 Br
HETATM   11  C   UNL     1      40.093 -10.910   5.813  1.00  0.00     0.021 A 
HETATM   12  C   UNL     1      39.748 -12.224   6.127  1.00  0.00     0.031 A 
HETATM   13  H   UNL     1      39.319 -14.791   6.442  1.00  0.00     0.170 HD
ENDROOT
BRANCH   2  14
HETATM   14  O   UNL     1      42.851 -13.901   2.929  1.00  0.00    -0.359 OA
HETATM   15  H   UNL     1      42.642 -13.450   2.085  1.00  0.00     0.213 HD
ENDBRANCH   2  14
BRANCH   2  16
HETATM   16  C   UNL     1      40.583 -14.442   2.256  1.00  0.00     0.279 C 
HETATM   17  N   UNL     1      40.982 -13.979   1.021  1.00  0.00    -0.352 N 
HETATM   18  H   UNL     1      41.881 -13.525   0.913  1.00  0.00     0.162 HD
HETATM   19  O   UNL     1      39.490 -14.995   2.417  1.00  0.00    -0.268 OA
BRANCH  17  20
HETATM   20  C   UNL     1      40.226 -14.276  -0.171  1.00  0.00     0.168 C 
BRANCH  20  21
HETATM   21  C   UNL     1      40.487 -13.207  -1.185  1.00  0.00     0.000 A 
HETATM   22  S   UNL     1      40.817 -11.600  -0.679  1.00  0.00    -0.105 SA
HETATM   23  C   UNL     1      40.990 -11.059  -2.292  1.00  0.00     0.050 A 
HETATM   24  C   UNL     1      40.803 -12.075  -3.200  1.00  0.00     0.008 A 
HETATM   25  C   UNL     1      40.511 -13.316  -2.563  1.00  0.00     0.017 A 
ENDBRANCH  20  21
ENDBRANCH  17  20
ENDBRANCH   2  16
BRANCH   1  26
HETATM   26  C   UNL     1      42.471 -16.543   3.855  1.00  0.00     0.042 A 
HETATM   27  C   UNL     1      42.218 -17.270   2.685  1.00  0.00     0.030 A 
HETATM   28  C   UNL     1      43.035 -18.345   2.316  1.00  0.00     0.002 A 
HETATM   29  C   UNL     1      44.109 -18.717   3.120  1.00  0.00     0.000 A 
HETATM   30  C   UNL     1      44.363 -18.021   4.296  1.00  0.00     0.002 A 
HETATM   31  C   UNL     1      43.545 -16.948   4.663  1.00  0.00     0.030 A 
ENDBRANCH   1  26
TORSDOF 5
ENDMDL
MODEL 3
REMARK VINA RESULT:      -7.3      3.506      6.396
REMARK  5 active torsions:
REMARK  status: ('A' for Active; 'I' for Inactive)
REMARK    1  A    between atoms: C_4  and  N_5 
REMARK    2  A    between atoms: C_6  and  O_7 
REMARK    3  A    between atoms: C_6  and  C_8 
REMARK       I    between atoms: C_8  and  N_9 
REMARK    4  A    between atoms: N_9  and  C_10 
REMARK    5  A    between atoms: C_10  and  C_11 
ROOT
HETATM    1  N   UNL     1      43.680 -12.579   5.017  1.00  0.00    -0.254 N 
HETATM    2  C   UNL     1      43.128 -13.924   5.255  1.00  0.00     0.256 C 
HETATM    3  C   UNL     1      43.252 -14.819   4.041  1.00  0.00     0.035 A 
HETATM    4  C   UNL     1      43.219 -14.210   2.791  1.00  0.00     0.048 A 
HETATM    5  N   UNL     1      43.166 -12.822   2.734  1.00  0.00    -0.308 N 
HETATM    6  C   UNL     1      43.438 -11.981   3.784  1.00  0.00     0.330 C 
HETATM    7  O   UNL     1      43.519 -10.780   3.528  1.00  0.00    -0.246 OA
HETATM    8  C   UNL     1      43.291 -16.221   4.112  1.00  0.00     0.034 A 
HETATM    9  C   UNL     1      43.307 -16.977   2.941  1.00  0.00     0.011 A 
HETATM   10 BR   UNL     1      43.369 -18.863   3.042  1.00  0.00    -0.051 Br
HETATM   11  C   UNL     1      43.267 -16.354   1.694  1.00  0.00     0.021 A 
HETATM   12  C   UNL     1      43.215 -14.962   1.617  1.00  0.00     0.031 A 
HETATM   13  H   UNL     1      43.132 -12.352   1.837  1.00  0.00     0.170 HD
ENDROOT
BRANCH   2  14
HETATM   14  O   UNL     1      43.809 -14.587   6.326  1.00  0.00    -0.359 OA
HETATM   15  H   UNL     1      43.443 -15.495   6.318  1.00  0.00     0.213 HD
ENDBRANCH   2  14
BRANCH   2  16
HETATM   16  C   UNL     1      41.609 -13.781   5.694  1.00  0.00     0.279 C 
HETATM   17  N   UNL     1      40.865 -12.776   5.115  1.00  0.00    -0.352 N 
HETATM   18  H   UNL     1      41.286 -12.163   4.427  1.00  0.00     0.162 HD
HETATM   19  O   UNL     1      41.122 -14.541   6.538  1.00  0.00    -0.268 OA
BRANCH  17  20
HETATM   20  C   UNL     1      39.443 -12.675   5.332  1.00  0.00     0.168 C 
BRANCH  20  21
HETATM   21  C   UNL     1      38.998 -11.294   4.967  1.00  0.00     0.000 A 
HETATM   22  S   UNL     1      38.976 -10.801   3.322  1.00  0.00    -0.105 SA
HETATM   23  C   UNL     1      38.393  -9.246   3.729  1.00  0.00     0.050 A 
HETATM   24  C   UNL     1      38.215  -9.099   5.086  1.00  0.00     0.008 A 
HETATM   25  C   UNL     1      38.565 -10.281   5.802  1.00  0.00     0.017 A 
ENDBRANCH  20  21
ENDBRANCH  17  20
ENDBRANCH   2  16
BRANCH   1  26
HETATM   26  C   UNL     1      44.134 -11.787   6.123  1.00  0.00     0.042 A 
HETATM   27  C   UNL     1      43.240 -11.099   6.953  1.00  0.00     0.030 A 
HETATM   28  C   UNL     1      43.705 -10.298   8.003  1.00  0.00     0.002 A 
HETATM   29  C   UNL     1      45.073 -10.165   8.230  1.00  0.00     0.000 A 
HETATM   30  C   UNL     1      45.976 -10.825   7.403  1.00  0.00     0.002 A 
HETATM   31  C   UNL     1      45.509 -11.622   6.354  1.00  0.00     0.030 A 
ENDBRANCH   1  26
TORSDOF 5
ENDMDL
MODEL 4
REMARK VINA RESULT:      -7.3      3.860      5.920
REMARK  5 active torsions:
REMARK  status: ('A' for Active; 'I' for Inactive)
REMARK    1  A    between atoms: C_4  and  N_5 
REMARK    2  A    between atoms: C_6  and  O_7 
REMARK    3  A    between atoms: C_6  and  C_8 
REMARK       I    between atoms: C_8  and  N_9 
REMARK    4  A    between atoms: N_9  and  C_10 
REMARK    5  A    between atoms: C_10  and  C_11 
ROOT
HETATM    1  N   UNL     1      43.745  -9.686  10.007  1.00  0.00    -0.254 N 
HETATM    2  C   UNL     1      42.895  -8.488   9.899  1.00  0.00     0.256 C 
HETATM    3  C   UNL     1      42.826  -7.713  11.196  1.00  0.00     0.035 A 
HETATM    4  C   UNL     1      42.952  -8.433  12.379  1.00  0.00     0.048 A 
HETATM    5  N   UNL     1      43.221  -9.795  12.298  1.00  0.00    -0.308 N 
HETATM    6  C   UNL     1      43.665 -10.443  11.173  1.00  0.00     0.330 C 
HETATM    7  O   UNL     1      44.024 -11.612  11.310  1.00  0.00    -0.246 OA
HETATM    8  C   UNL     1      42.541  -6.340  11.265  1.00  0.00     0.034 A 
HETATM    9  C   UNL     1      42.398  -5.719  12.505  1.00  0.00     0.011 A 
HETATM   10 BR   UNL     1      42.022  -3.870  12.591  1.00  0.00    -0.051 Br
HETATM   11  C   UNL     1      42.519  -6.455  13.684  1.00  0.00     0.021 A 
HETATM   12  C   UNL     1      42.791  -7.821  13.622  1.00  0.00     0.031 A 
HETATM   13  H   UNL     1      43.308 -10.346  13.144  1.00  0.00     0.170 HD
ENDROOT
BRANCH   2  14
HETATM   14  O   UNL     1      43.391  -7.584   8.905  1.00  0.00    -0.359 OA
HETATM   15  H   UNL     1      42.772  -7.689   8.154  1.00  0.00     0.213 HD
ENDBRANCH   2  14
BRANCH   2  16
HETATM   16  C   UNL     1      41.444  -8.933   9.433  1.00  0.00     0.279 C 
HETATM   17  N   UNL     1      41.053  -8.605   8.153  1.00  0.00    -0.352 N 
HETATM   18  H   UNL     1      41.684  -8.105   7.540  1.00  0.00     0.162 HD
HETATM   19  O   UNL     1      40.692  -9.540  10.204  1.00  0.00    -0.268 OA
BRANCH  17  20
HETATM   20  C   UNL     1      39.821  -9.108   7.594  1.00  0.00     0.168 C 
BRANCH  20  21
HETATM   21  C   UNL     1      40.148 -10.153   6.574  1.00  0.00     0.000 A 
HETATM   22  S   UNL     1      41.200  -9.786   5.268  1.00  0.00    -0.105 SA
HETATM   23  C   UNL     1      41.067 -11.368   4.632  1.00  0.00     0.050 A 
HETATM   24  C   UNL     1      40.242 -12.164   5.394  1.00  0.00     0.008 A 
HETATM   25  C   UNL     1      39.710 -11.463   6.516  1.00  0.00     0.017 A 
ENDBRANCH  20  21
ENDBRANCH  17  20
ENDBRANCH   2  16
BRANCH   1  26
HETATM   26  C   UNL     1      44.355 -10.239   8.832  1.00  0.00     0.042 A 
HETATM   27  C   UNL     1      43.636 -11.042   7.937  1.00  0.00     0.030 A 
HETATM   28  C   UNL     1      44.259 -11.605   6.818  1.00  0.00     0.002 A 
HETATM   29  C   UNL     1      45.615 -11.385   6.585  1.00  0.00     0.000 A 
HETATM   30  C   UNL     1      46.348 -10.608   7.474  1.00  0.00     0.002 A 
HETATM   31  C   UNL     1      45.724 -10.047   8.592  1.00  0.00     0.030 A 
ENDBRANCH   1  26
TORSDOF 5
ENDMDL
MODEL 5
REMARK VINA RESULT:      -7.2      3.951      7.316
REMARK  5 active torsions:
REMARK  status: ('A' for Active; 'I' for Inactive)
REMARK    1  A    between atoms: C_4  and  N_5 
REMARK    2  A    between atoms: C_6  and  O_7 
REMARK    3  A    between atoms: C_6  and  C_8 
REMARK       I    between atoms: C_8  and  N_9 
REMARK    4  A    between atoms: N_9  and  C_10 
REMARK    5  A    between atoms: C_10  and  C_11 
ROOT
HETATM    1  N   UNL     1      41.268 -14.337   2.982  1.00  0.00    -0.254 N 
HETATM    2  C   UNL     1      40.595 -13.047   2.755  1.00  0.00     0.256 C 
HETATM    3  C   UNL     1      40.020 -12.936   1.360  1.00  0.00     0.035 A 
HETATM    4  C   UNL     1      40.672 -13.625   0.343  1.00  0.00     0.048 A 
HETATM    5  N   UNL     1      41.748 -14.439   0.681  1.00  0.00    -0.308 N 
HETATM    6  C   UNL     1      42.046 -14.859   1.952  1.00  0.00     0.330 C 
HETATM    7  O   UNL     1      42.923 -15.716   2.063  1.00  0.00    -0.246 OA
HETATM    8  C   UNL     1      38.942 -12.099   1.029  1.00  0.00     0.034 A 
HETATM    9  C   UNL     1      38.535 -11.979  -0.299  1.00  0.00     0.011 A 
HETATM   10 BR   UNL     1      37.078 -10.858  -0.736  1.00  0.00    -0.051 Br
HETATM   11  C   UNL     1      39.202 -12.670  -1.310  1.00  0.00     0.021 A 
HETATM   12  C   UNL     1      40.282 -13.493  -0.989  1.00  0.00     0.031 A 
HETATM   13  H   UNL     1      42.247 -14.946  -0.042  1.00  0.00     0.170 HD
ENDROOT
BRANCH   2  14
HETATM   14  O   UNL     1      39.505 -12.859   3.665  1.00  0.00    -0.359 OA
HETATM   15  H   UNL     1      39.472 -13.693   4.176  1.00  0.00     0.213 HD
ENDBRANCH   2  14
BRANCH   2  16
HETATM   16  C   UNL     1      41.631 -11.876   3.031  1.00  0.00     0.279 C 
HETATM   17  N   UNL     1      41.437 -11.099   4.153  1.00  0.00    -0.352 N 
HETATM   18  H   UNL     1      40.661 -11.288   4.775  1.00  0.00     0.162 HD
HETATM   19  O   UNL     1      42.567 -11.666   2.252  1.00  0.00    -0.268 OA
BRANCH  17  20
HETATM   20  C   UNL     1      42.416 -10.123   4.567  1.00  0.00     0.168 C 
BRANCH  20  21
HETATM   21  C   UNL     1      43.299 -10.739   5.606  1.00  0.00     0.000 A 
HETATM   22  S   UNL     1      42.939 -10.540   7.273  1.00  0.00    -0.105 SA
HETATM   23  C   UNL     1      44.297 -11.466   7.743  1.00  0.00     0.050 A 
HETATM   24  C   UNL     1      45.013 -11.920   6.659  1.00  0.00     0.008 A 
HETATM   25  C   UNL     1      44.438 -11.500   5.424  1.00  0.00     0.017 A 
ENDBRANCH  20  21
ENDBRANCH  17  20
ENDBRANCH   2  16
BRANCH   1  26
HETATM   26  C   UNL     1      41.403 -14.849   4.315  1.00  0.00     0.042 A 
HETATM   27  C   UNL     1      42.391 -14.376   5.189  1.00  0.00     0.030 A 
HETATM   28  C   UNL     1      42.533 -14.917   6.472  1.00  0.00     0.002 A 
HETATM   29  C   UNL     1      41.697 -15.947   6.895  1.00  0.00     0.000 A 
HETATM   30  C   UNL     1      40.724 -16.442   6.034  1.00  0.00     0.002 A 
HETATM   31  C   UNL     1      40.585 -15.902   4.752  1.00  0.00     0.030 A 
ENDBRANCH   1  26
TORSDOF 5
ENDMDL
MODEL 6
REMARK VINA RESULT:      -7.2      4.002      6.814
REMARK  5 active torsions:
REMARK  status: ('A' for Active; 'I' for Inactive)
REMARK    1  A    between atoms: C_4  and  N_5 
REMARK    2  A    between atoms: C_6  and  O_7 
REMARK    3  A    between atoms: C_6  and  C_8 
REMARK       I    between atoms: C_8  and  N_9 
REMARK    4  A    between atoms: N_9  and  C_10 
REMARK    5  A    between atoms: C_10  and  C_11 
ROOT
HETATM    1  N   UNL     1      41.161 -12.655   3.700  1.00  0.00    -0.254 N 
HETATM    2  C   UNL     1      41.404 -13.304   2.401  1.00  0.00     0.256 C 
HETATM    3  C   UNL     1      40.587 -12.686   1.288  1.00  0.00     0.035 A 
HETATM    4  C   UNL     1      39.356 -12.135   1.627  1.00  0.00     0.048 A 
HETATM    5  N   UNL     1      38.993 -12.106   2.969  1.00  0.00    -0.308 N 
HETATM    6  C   UNL     1      39.853 -12.299   4.021  1.00  0.00     0.330 C 
HETATM    7  O   UNL     1      39.415 -12.068   5.147  1.00  0.00    -0.246 OA
HETATM    8  C   UNL     1      40.959 -12.734  -0.066  1.00  0.00     0.034 A 
HETATM    9  C   UNL     1      40.102 -12.226  -1.041  1.00  0.00     0.011 A 
HETATM   10 BR   UNL     1      40.612 -12.286  -2.860  1.00  0.00    -0.051 Br
HETATM   11  C   UNL     1      38.867 -11.683  -0.688  1.00  0.00     0.021 A 
HETATM   12  C   UNL     1      38.487 -11.644   0.653  1.00  0.00     0.031 A 
HETATM   13  H   UNL     1      38.097 -11.720   3.244  1.00  0.00     0.170 HD
ENDROOT
BRANCH   2  14
HETATM   14  O   UNL     1      42.778 -13.196   2.012  1.00  0.00    -0.359 OA
HETATM   15  H   UNL     1      42.847 -12.303   1.617  1.00  0.00     0.213 HD
ENDBRANCH   2  14
BRANCH   2  16
HETATM   16  C   UNL     1      41.085 -14.853   2.538  1.00  0.00     0.279 C 
HETATM   17  N   UNL     1      42.026 -15.746   2.072  1.00  0.00    -0.352 N 
HETATM   18  H   UNL     1      42.891 -15.408   1.668  1.00  0.00     0.162 HD
HETATM   19  O   UNL     1      40.019 -15.237   3.032  1.00  0.00    -0.268 OA
BRANCH  17  20
HETATM   20  C   UNL     1      41.893 -17.163   2.302  1.00  0.00     0.168 C 
BRANCH  20  21
HETATM   21  C   UNL     1      42.931 -17.590   3.291  1.00  0.00     0.000 A 
HETATM   22  S   UNL     1      43.886 -18.986   2.992  1.00  0.00    -0.105 SA
HETATM   23  C   UNL     1      44.745 -18.791   4.458  1.00  0.00     0.050 A 
HETATM   24  C   UNL     1      44.320 -17.688   5.163  1.00  0.00     0.008 A 
HETATM   25  C   UNL     1      43.271 -16.995   4.491  1.00  0.00     0.017 A 
ENDBRANCH  20  21
ENDBRANCH  17  20
ENDBRANCH   2  16
BRANCH   1  26
HETATM   26  C   UNL     1      42.161 -12.711   4.727  1.00  0.00     0.042 A 
HETATM   27  C   UNL     1      42.234 -13.783   5.626  1.00  0.00     0.030 A 
HETATM   28  C   UNL     1      43.193 -13.800   6.646  1.00  0.00     0.002 A 
HETATM   29  C   UNL     1      44.084 -12.739   6.789  1.00  0.00     0.000 A 
HETATM   30  C   UNL     1      44.013 -11.658   5.918  1.00  0.00     0.002 A 
HETATM   31  C   UNL     1      43.054 -11.642   4.901  1.00  0.00     0.030 A 
ENDBRANCH   1  26
TORSDOF 5
ENDMDL
MODEL 7
REMARK VINA RESULT:      -7.1      3.213      6.042
REMARK  5 active torsions:
REMARK  status: ('A' for Active; 'I' for Inactive)
REMARK    1  A    between atoms: C_4  and  N_5 
REMARK    2  A    between atoms: C_6  and  O_7 
REMARK    3  A    between atoms: C_6  and  C_8 
REMARK       I    between atoms: C_8  and  N_9 
REMARK    4  A    between atoms: N_9  and  C_10 
REMARK    5  A    between atoms: C_10  and  C_11 
ROOT
HETATM    1  N   UNL     1      40.648 -12.862   4.530  1.00  0.00    -0.254 N 
HETATM    2  C   UNL     1      41.909 -13.502   4.116  1.00  0.00     0.256 C 
HETATM    3  C   UNL     1      42.186 -14.776   4.883  1.00  0.00     0.035 A 
HETATM    4  C   UNL     1      41.700 -14.859   6.184  1.00  0.00     0.048 A 
HETATM    5  N   UNL     1      40.921 -13.812   6.665  1.00  0.00    -0.308 N 
HETATM    6  C   UNL     1      40.338 -12.843   5.887  1.00  0.00     0.330 C 
HETATM    7  O   UNL     1      39.537 -12.093   6.441  1.00  0.00    -0.246 OA
HETATM    8  C   UNL     1      42.986 -15.820   4.390  1.00  0.00     0.034 A 
HETATM    9  C   UNL     1      43.273 -16.918   5.199  1.00  0.00     0.011 A 
HETATM   10 BR   UNL     1      44.344 -18.323   4.528  1.00  0.00    -0.051 Br
HETATM   11  C   UNL     1      42.786 -16.985   6.504  1.00  0.00     0.021 A 
HETATM   12  C   UNL     1      42.001 -15.946   7.003  1.00  0.00     0.031 A 
HETATM   13  H   UNL     1      40.561 -13.842   7.612  1.00  0.00     0.170 HD
ENDROOT
BRANCH   2  14
HETATM   14  O   UNL     1      41.885 -13.854   2.728  1.00  0.00    -0.359 OA
HETATM   15  H   UNL     1      41.936 -14.832   2.727  1.00  0.00     0.213 HD
ENDBRANCH   2  14
BRANCH   2  16
HETATM   16  C   UNL     1      43.094 -12.463   4.306  1.00  0.00     0.279 C 
HETATM   17  N   UNL     1      43.654 -12.351   5.561  1.00  0.00    -0.352 N 
HETATM   18  H   UNL     1      43.314 -12.926   6.323  1.00  0.00     0.162 HD
HETATM   19  O   UNL     1      43.486 -11.771   3.360  1.00  0.00    -0.268 OA
BRANCH  17  20
HETATM   20  C   UNL     1      44.835 -11.556   5.787  1.00  0.00     0.168 C 
BRANCH  20  21
HETATM   21  C   UNL     1      44.742 -10.930   7.143  1.00  0.00     0.000 A 
HETATM   22  S   UNL     1      43.230 -10.367   7.731  1.00  0.00    -0.105 SA
HETATM   23  C   UNL     1      43.923  -9.851   9.207  1.00  0.00     0.050 A 
HETATM   24  C   UNL     1      45.275 -10.100   9.257  1.00  0.00     0.008 A 
HETATM   25  C   UNL     1      45.750 -10.722   8.066  1.00  0.00     0.017 A 
ENDBRANCH  20  21
ENDBRANCH  17  20
ENDBRANCH   2  16
BRANCH   1  26
HETATM   26  C   UNL     1      39.956 -11.993   3.623  1.00  0.00     0.042 A 
HETATM   27  C   UNL     1      40.232 -10.621   3.560  1.00  0.00     0.030 A 
HETATM   28  C   UNL     1      39.517  -9.783   2.698  1.00  0.00     0.002 A 
HETATM   29  C   UNL     1      38.506 -10.303   1.893  1.00  0.00     0.000 A 
HETATM   30  C   UNL     1      38.204 -11.659   1.957  1.00  0.00     0.002 A 
HETATM   31  C   UNL     1      38.919 -12.494   2.821  1.00  0.00     0.030 A 
ENDBRANCH   1  26
TORSDOF 5
ENDMDL
MODEL 8
REMARK VINA RESULT:      -7.1     17.609     19.478
REMARK  5 active torsions:
REMARK  status: ('A' for Active; 'I' for Inactive)
REMARK    1  A    between atoms: C_4  and  N_5 
REMARK    2  A    between atoms: C_6  and  O_7 
REMARK    3  A    between atoms: C_6  and  C_8 
REMARK       I    between atoms: C_8  and  N_9 
REMARK    4  A    between atoms: N_9  and  C_10 
REMARK    5  A    between atoms: C_10  and  C_11 
ROOT
HETATM    1  N   UNL     1      45.658 -30.016   1.137  1.00  0.00    -0.254 N 
HETATM    2  C   UNL     1      44.657 -30.445   0.146  1.00  0.00     0.256 C 
HETATM    3  C   UNL     1      44.847 -29.767  -1.194  1.00  0.00     0.035 A 
HETATM    4  C   UNL     1      45.394 -28.488  -1.192  1.00  0.00     0.048 A 
HETATM    5  N   UNL     1      45.812 -27.951   0.020  1.00  0.00    -0.308 N 
HETATM    6  C   UNL     1      46.009 -28.669   1.173  1.00  0.00     0.330 C 
HETATM    7  O   UNL     1      46.548 -28.080   2.109  1.00  0.00    -0.246 OA
HETATM    8  C   UNL     1      44.408 -30.316  -2.410  1.00  0.00     0.034 A 
HETATM    9  C   UNL     1      44.534 -29.584  -3.589  1.00  0.00     0.011 A 
HETATM   10 BR   UNL     1      43.949 -30.330  -5.224  1.00  0.00    -0.051 Br
HETATM   11  C   UNL     1      45.077 -28.299  -3.573  1.00  0.00     0.021 A 
HETATM   12  C   UNL     1      45.504 -27.744  -2.366  1.00  0.00     0.031 A 
HETATM   13  H   UNL     1      46.206 -27.017   0.052  1.00  0.00     0.170 HD
ENDROOT
BRANCH   2  14
HETATM   14  O   UNL     1      44.729 -31.855  -0.093  1.00  0.00    -0.359 OA
HETATM   15  H   UNL     1      44.276 -32.253   0.679  1.00  0.00     0.213 HD
ENDBRANCH   2  14
BRANCH   2  16
HETATM   16  C   UNL     1      43.208 -30.149   0.724  1.00  0.00     0.279 C 
HETATM   17  N   UNL     1      42.454 -31.223   1.145  1.00  0.00    -0.352 N 
HETATM   18  H   UNL     1      42.830 -32.162   1.089  1.00  0.00     0.162 HD
HETATM   19  O   UNL     1      42.774 -28.993   0.776  1.00  0.00    -0.268 OA
BRANCH  17  20
HETATM   20  C   UNL     1      41.199 -31.035   1.830  1.00  0.00     0.168 C 
BRANCH  20  21
HETATM   21  C   UNL     1      41.398 -31.319   3.285  1.00  0.00     0.000 A 
HETATM   22  S   UNL     1      41.778 -32.910   3.809  1.00  0.00    -0.105 SA
HETATM   23  C   UNL     1      41.842 -32.424   5.448  1.00  0.00     0.050 A 
HETATM   24  C   UNL     1      41.581 -31.081   5.599  1.00  0.00     0.008 A 
HETATM   25  C   UNL     1      41.324 -30.442   4.351  1.00  0.00     0.017 A 
ENDBRANCH  20  21
ENDBRANCH  17  20
ENDBRANCH   2  16
BRANCH   1  26
HETATM   26  C   UNL     1      45.986 -30.873   2.239  1.00  0.00     0.042 A 
HETATM   27  C   UNL     1      45.140 -31.004   3.348  1.00  0.00     0.030 A 
HETATM   28  C   UNL     1      45.497 -31.814   4.432  1.00  0.00     0.002 A 
HETATM   29  C   UNL     1      46.712 -32.495   4.429  1.00  0.00     0.000 A 
HETATM   30  C   UNL     1      47.573 -32.360   3.346  1.00  0.00     0.002 A 
HETATM   31  C   UNL     1      47.215 -31.550   2.264  1.00  0.00     0.030 A 
ENDBRANCH   1  26
TORSDOF 5
ENDMDL
MODEL 9
REMARK VINA RESULT:      -6.9      5.590      8.975
REMARK  5 active torsions:
REMARK  status: ('A' for Active; 'I' for Inactive)
REMARK    1  A    between atoms: C_4  and  N_5 
REMARK    2  A    between atoms: C_6  and  O_7 
REMARK    3  A    between atoms: C_6  and  C_8 
REMARK       I    between atoms: C_8  and  N_9 
REMARK    4  A    between atoms: N_9  and  C_10 
REMARK    5  A    between atoms: C_10  and  C_11 
ROOT
HETATM    1  N   UNL     1      40.290  -8.776  12.633  1.00  0.00    -0.254 N 
HETATM    2  C   UNL     1      41.105  -8.353  11.482  1.00  0.00     0.256 C 
HETATM    3  C   UNL     1      40.455  -8.698  10.160  1.00  0.00     0.035 A 
HETATM    4  C   UNL     1      39.638  -9.823  10.122  1.00  0.00     0.048 A 
HETATM    5  N   UNL     1      39.400 -10.505  11.310  1.00  0.00    -0.308 N 
HETATM    6  C   UNL     1      39.651 -10.010  12.565  1.00  0.00     0.330 C 
HETATM    7  O   UNL     1      39.222 -10.663  13.516  1.00  0.00    -0.246 OA
HETATM    8  C   UNL     1      40.715  -8.009   8.964  1.00  0.00     0.034 A 
HETATM    9  C   UNL     1      40.150  -8.450   7.769  1.00  0.00     0.011 A 
HETATM   10 BR   UNL     1      40.497  -7.514   6.164  1.00  0.00    -0.051 Br
HETATM   11  C   UNL     1      39.339  -9.584   7.744  1.00  0.00     0.021 A 
HETATM   12  C   UNL     1      39.086 -10.280   8.926  1.00  0.00     0.031 A 
HETATM   13  H   UNL     1      38.816 -11.334  11.311  1.00  0.00     0.170 HD
ENDROOT
BRANCH   2  14
HETATM   14  O   UNL     1      41.314  -6.937  11.480  1.00  0.00    -0.359 OA
HETATM   15  H   UNL     1      41.166  -6.670  12.410  1.00  0.00     0.213 HD
ENDBRANCH   2  14
BRANCH   2  16
HETATM   16  C   UNL     1      42.537  -9.029  11.595  1.00  0.00     0.279 C 
HETATM   17  N   UNL     1      42.712 -10.264  11.009  1.00  0.00    -0.352 N 
HETATM   18  H   UNL     1      41.945 -10.708  10.518  1.00  0.00     0.162 HD
HETATM   19  O   UNL     1      43.454  -8.467  12.203  1.00  0.00    -0.268 OA
BRANCH  17  20
HETATM   20  C   UNL     1      44.016 -10.876  10.923  1.00  0.00     0.168 C 
BRANCH  20  21
HETATM   21  C   UNL     1      44.683 -10.410   9.667  1.00  0.00     0.000 A 
HETATM   22  S   UNL     1      44.280 -11.125   8.159  1.00  0.00    -0.105 SA
HETATM   23  C   UNL     1      45.375 -10.118   7.316  1.00  0.00     0.050 A 
HETATM   24  C   UNL     1      46.035  -9.254   8.158  1.00  0.00     0.008 A 
HETATM   25  C   UNL     1      45.638  -9.422   9.517  1.00  0.00     0.017 A 
ENDBRANCH  20  21
ENDBRANCH  17  20
ENDBRANCH   2  16
BRANCH   1  26
HETATM   26  C   UNL     1      40.439  -8.112  13.896  1.00  0.00     0.042 A 
HETATM   27  C   UNL     1      41.347  -8.564  14.863  1.00  0.00     0.030 A 
HETATM   28  C   UNL     1      41.449  -7.927  16.105  1.00  0.00     0.002 A 
HETATM   29  C   UNL     1      40.634  -6.837  16.404  1.00  0.00     0.000 A 
HETATM   30  C   UNL     1      39.713  -6.389  15.464  1.00  0.00     0.002 A 
HETATM   31  C   UNL     1      39.612  -7.027  14.224  1.00  0.00     0.030 A 
ENDBRANCH   1  26
TORSDOF 5
ENDMDL
MODEL 10
REMARK VINA RESULT:      -6.9      2.683      3.534
REMARK  5 active torsions:
REMARK  status: ('A' for Active; 'I' for Inactive)
REMARK    1  A    between atoms: C_4  and  N_5 
REMARK    2  A    between atoms: C_6  and  O_7 
REMARK    3  A    between atoms: C_6  and  C_8 
REMARK       I    between atoms: C_8  and  N_9 
REMARK    4  A    between atoms: N_9  and  C_10 
REMARK    5  A    between atoms: C_10  and  C_11 
ROOT
HETATM    1  N   UNL     1      41.356 -13.196   3.669  1.00  0.00    -0.254 N 
HETATM    2  C   UNL     1      40.573 -12.982   4.898  1.00  0.00     0.256 C 
HETATM    3  C   UNL     1      41.004 -11.739   5.646  1.00  0.00     0.035 A 
HETATM    4  C   UNL     1      42.337 -11.355   5.534  1.00  0.00     0.048 A 
HETATM    5  N   UNL     1      43.162 -12.078   4.680  1.00  0.00    -0.308 N 
HETATM    6  C   UNL     1      42.725 -12.948   3.713  1.00  0.00     0.330 C 
HETATM    7  O   UNL     1      43.569 -13.374   2.925  1.00  0.00    -0.246 OA
HETATM    8  C   UNL     1      40.164 -11.026   6.516  1.00  0.00     0.034 A 
HETATM    9  C   UNL     1      40.667  -9.948   7.243  1.00  0.00     0.011 A 
HETATM   10 BR   UNL     1      39.529  -8.988   8.406  1.00  0.00    -0.051 Br
HETATM   11  C   UNL     1      42.007  -9.579   7.127  1.00  0.00     0.021 A 
HETATM   12  C   UNL     1      42.850 -10.290   6.273  1.00  0.00     0.031 A 
HETATM   13  H   UNL     1      44.140 -11.826   4.586  1.00  0.00     0.170 HD
ENDROOT
BRANCH   2  14
HETATM   14  O   UNL     1      39.179 -12.825   4.610  1.00  0.00    -0.359 OA
HETATM   15  H   UNL     1      39.070 -13.223   3.722  1.00  0.00     0.213 HD
ENDBRANCH   2  14
BRANCH   2  16
HETATM   16  C   UNL     1      40.710 -14.267   5.820  1.00  0.00     0.279 C 
HETATM   17  N   UNL     1      41.911 -14.944   5.802  1.00  0.00    -0.352 N 
HETATM   18  H   UNL     1      42.672 -14.615   5.221  1.00  0.00     0.162 HD
HETATM   19  O   UNL     1      39.763 -14.648   6.516  1.00  0.00    -0.268 OA
BRANCH  17  20
HETATM   20  C   UNL     1      42.178 -16.021   6.724  1.00  0.00     0.168 C 
BRANCH  20  21
HETATM   21  C   UNL     1      42.917 -17.101   6.000  1.00  0.00     0.000 A 
HETATM   22  S   UNL     1      43.517 -16.824   4.415  1.00  0.00    -0.105 SA
HETATM   23  C   UNL     1      44.176 -18.399   4.319  1.00  0.00     0.050 A 
HETATM   24  C   UNL     1      43.949 -19.125   5.465  1.00  0.00     0.008 A 
HETATM   25  C   UNL     1      43.221 -18.377   6.437  1.00  0.00     0.017 A 
ENDBRANCH  20  21
ENDBRANCH  17  20
ENDBRANCH   2  16
BRANCH   1  26
HETATM   26  C   UNL     1      40.798 -13.958   2.590  1.00  0.00     0.042 A 
HETATM   27  C   UNL     1      40.548 -15.331   2.710  1.00  0.00     0.030 A 
HETATM   28  C   UNL     1      40.042 -16.066   1.632  1.00  0.00     0.002 A 
HETATM   29  C   UNL     1      39.789 -15.440   0.413  1.00  0.00     0.000 A 
HETATM   30  C   UNL     1      40.050 -14.082   0.270  1.00  0.00     0.002 A 
HETATM   31  C   UNL     1      40.558 -13.350   1.348  1.00  0.00     0.030 A 
ENDBRANCH   1  26
TORSDOF 5
ENDMDL
