MODEL 1
REMARK VINA RESULT:      -9.7      0.000      0.000
REMARK  8 active torsions:
REMARK  status: ('A' for Active; 'I' for Inactive)
REMARK    1  A    between atoms: O_2  and  C_3 
REMARK    2  A    between atoms: C_5  and  C_6 
REMARK    3  A    between atoms: N_7  and  N_8 
REMARK    4  A    between atoms: C_19  and  C_20 
REMARK       I    between atoms: C_20  and  N_21 
REMARK    5  A    between atoms: N_21  and  C_22 
REMARK    6  A    between atoms: C_22  and  C_23 
REMARK    7  A    between atoms: C_23  and  C_24 
REMARK    8  A    between atoms: C_31  and  N_32 
ROOT
HETATM    1  N   UNL     1      40.466 -14.632   2.723  1.00  0.00    -0.197 N 
HETATM    2  C   UNL     1      41.364 -15.631   3.074  1.00  0.00     0.183 A 
HETATM    3  C   UNL     1      42.066 -15.175   4.184  1.00  0.00     0.125 A 
HETATM    4  N   UNL     1      43.102 -15.880   4.710  1.00  0.00    -0.242 NA
HETATM    5  C   UNL     1      43.342 -17.055   4.110  1.00  0.00     0.086 A 
HETATM    6  C   UNL     1      42.598 -17.513   2.990  1.00  0.00     0.088 A 
HETATM    7  N   UNL     1      41.600 -16.804   2.436  1.00  0.00    -0.225 NA
HETATM    8  C   UNL     1      44.372 -17.844   4.605  1.00  0.00     0.034 A 
HETATM    9  C   UNL     1      44.691 -19.073   4.028  1.00  0.00     0.002 A 
HETATM   10  C   UNL     1      43.964 -19.524   2.936  1.00  0.00     0.002 A 
HETATM   11  C   UNL     1      42.926 -18.741   2.428  1.00  0.00     0.034 A 
HETATM   12  C   UNL     1      41.562 -13.904   4.552  1.00  0.00     0.110 C 
HETATM   13  C   UNL     1      40.465 -13.679   3.738  1.00  0.00     0.143 C 
ENDROOT
BRANCH  12  14
HETATM   14  C   UNL     1      42.118 -12.927   5.471  1.00  0.00     0.257 C 
HETATM   15  N   UNL     1      43.497 -12.859   5.430  1.00  0.00    -0.356 N 
HETATM   16  H   UNL     1      43.960 -13.607   4.920  1.00  0.00     0.162 HD
HETATM   17  O   UNL     1      41.431 -12.122   6.092  1.00  0.00    -0.267 OA
BRANCH  15  18
HETATM   18  C   UNL     1      44.117 -11.551   5.342  1.00  0.00     0.127 C 
BRANCH  18  19
HETATM   19  C   UNL     1      45.390 -11.456   6.203  1.00  0.00     0.053 C 
BRANCH  19  20
HETATM   20  C   UNL     1      45.221 -10.734   7.531  1.00  0.00    -0.082 C 
HETATM   21  C   UNL     1      44.130 -11.224   8.457  1.00  0.00     0.034 C 
HETATM   22  C   UNL     1      43.833 -10.270   9.622  1.00  0.00     0.005 C 
HETATM   23  C   UNL     1      45.116  -9.720  10.235  1.00  0.00     0.004 C 
HETATM   24  C   UNL     1      45.950  -8.985   9.189  1.00  0.00     0.027 C 
HETATM   25  C   UNL     1      46.027  -9.712   7.877  1.00  0.00    -0.024 C 
ENDBRANCH  19  20
ENDBRANCH  18  19
ENDBRANCH  15  18
ENDBRANCH  12  14
BRANCH  13  26
HETATM   26  N   UNL     1      39.594 -12.639   3.713  1.00  0.00    -0.383 N 
HETATM   27  H   UNL     1      39.779 -11.793   4.252  1.00  0.00     0.157 HD
HETATM   28  H   UNL     1      38.632 -12.778   3.412  1.00  0.00     0.157 HD
ENDBRANCH  13  26
BRANCH   1  29
HETATM   29  N   UNL     1      39.775 -14.395   1.561  1.00  0.00    -0.176 NA
HETATM   30  C   UNL     1      40.437 -14.545   0.461  1.00  0.00     0.150 C 
BRANCH  30  31
HETATM   31  C   UNL     1      39.887 -14.044  -0.817  1.00  0.00    -0.014 A 
HETATM   32  C   UNL     1      40.212 -12.756  -1.263  1.00  0.00     0.049 A 
HETATM   33  C   UNL     1      39.826 -12.345  -2.537  1.00  0.00     0.069 A 
HETATM   34  C   UNL     1      39.091 -13.218  -3.344  1.00  0.00     0.037 A 
HETATM   35  C   UNL     1      38.758 -14.498  -2.895  1.00  0.00     0.004 A 
HETATM   36  C   UNL     1      39.163 -14.918  -1.628  1.00  0.00     0.013 A 
BRANCH  33  37
HETATM   37  O   UNL     1      40.116 -11.136  -3.108  1.00  0.00    -0.356 OA
HETATM   38  C   UNL     1      40.817 -10.199  -2.296  1.00  0.00     0.210 C 
ENDBRANCH  33  37
ENDBRANCH  30  31
ENDBRANCH   1  29
TORSDOF 8
ENDMDL
MODEL 2
REMARK VINA RESULT:      -9.6      2.421      6.851
REMARK  8 active torsions:
REMARK  status: ('A' for Active; 'I' for Inactive)
REMARK    1  A    between atoms: O_2  and  C_3 
REMARK    2  A    between atoms: C_5  and  C_6 
REMARK    3  A    between atoms: N_7  and  N_8 
REMARK    4  A    between atoms: C_19  and  C_20 
REMARK       I    between atoms: C_20  and  N_21 
REMARK    5  A    between atoms: N_21  and  C_22 
REMARK    6  A    between atoms: C_22  and  C_23 
REMARK    7  A    between atoms: C_23  and  C_24 
REMARK    8  A    between atoms: C_31  and  N_32 
ROOT
HETATM    1  N   UNL     1      41.990 -13.820   1.322  1.00  0.00    -0.197 N 
HETATM    2  C   UNL     1      40.965 -13.589   0.416  1.00  0.00     0.183 A 
HETATM    3  C   UNL     1      40.354 -12.397   0.789  1.00  0.00     0.125 A 
HETATM    4  N   UNL     1      39.236 -11.942   0.164  1.00  0.00    -0.242 NA
HETATM    5  C   UNL     1      38.820 -12.701  -0.861  1.00  0.00     0.086 A 
HETATM    6  C   UNL     1      39.472 -13.904  -1.241  1.00  0.00     0.088 A 
HETATM    7  N   UNL     1      40.552 -14.384  -0.601  1.00  0.00    -0.225 NA
HETATM    8  C   UNL     1      37.696 -12.290  -1.565  1.00  0.00     0.034 A 
HETATM    9  C   UNL     1      37.195 -13.031  -2.636  1.00  0.00     0.002 A 
HETATM   10  C   UNL     1      37.832 -14.206  -3.011  1.00  0.00     0.002 A 
HETATM   11  C   UNL     1      38.962 -14.630  -2.311  1.00  0.00     0.034 A 
HETATM   12  C   UNL     1      41.041 -11.863   1.907  1.00  0.00     0.110 C 
HETATM   13  C   UNL     1      42.145 -12.676   2.099  1.00  0.00     0.143 C 
ENDROOT
BRANCH  12  14
HETATM   14  C   UNL     1      40.645 -10.788   2.799  1.00  0.00     0.257 C 
HETATM   15  N   UNL     1      39.437 -11.015   3.429  1.00  0.00    -0.356 N 
HETATM   16  H   UNL     1      38.889 -11.790   3.064  1.00  0.00     0.162 HD
HETATM   17  O   UNL     1      41.387  -9.857   3.099  1.00  0.00    -0.267 OA
BRANCH  15  18
HETATM   18  C   UNL     1      39.358 -10.798   4.861  1.00  0.00     0.127 C 
BRANCH  18  19
HETATM   19  C   UNL     1      39.708 -12.068   5.659  1.00  0.00     0.053 C 
BRANCH  19  20
HETATM   20  C   UNL     1      41.179 -12.231   6.004  1.00  0.00    -0.082 C 
HETATM   21  C   UNL     1      41.969 -10.975   6.302  1.00  0.00     0.034 C 
HETATM   22  C   UNL     1      43.487 -11.194   6.345  1.00  0.00     0.005 C 
HETATM   23  C   UNL     1      43.846 -12.475   7.090  1.00  0.00     0.004 C 
HETATM   24  C   UNL     1      43.185 -13.689   6.442  1.00  0.00     0.027 C 
HETATM   25  C   UNL     1      41.753 -13.448   6.061  1.00  0.00    -0.024 C 
ENDBRANCH  19  20
ENDBRANCH  18  19
ENDBRANCH  15  18
ENDBRANCH  12  14
BRANCH  13  26
HETATM   26  N   UNL     1      43.155 -12.579   2.999  1.00  0.00    -0.383 N 
HETATM   27  H   UNL     1      43.348 -13.342   3.648  1.00  0.00     0.157 HD
HETATM   28  H   UNL     1      43.542 -11.671   3.246  1.00  0.00     0.157 HD
ENDBRANCH  13  26
BRANCH   1  29
HETATM   29  N   UNL     1      42.689 -14.960   1.635  1.00  0.00    -0.176 NA
HETATM   30  C   UNL     1      42.105 -15.785   2.441  1.00  0.00     0.150 C 
BRANCH  30  31
HETATM   31  C   UNL     1      42.870 -16.886   3.067  1.00  0.00    -0.014 A 
HETATM   32  C   UNL     1      42.983 -16.956   4.462  1.00  0.00     0.049 A 
HETATM   33  C   UNL     1      43.564 -18.076   5.054  1.00  0.00     0.069 A 
HETATM   34  C   UNL     1      44.055 -19.102   4.243  1.00  0.00     0.037 A 
HETATM   35  C   UNL     1      43.951 -19.027   2.852  1.00  0.00     0.004 A 
HETATM   36  C   UNL     1      43.350 -17.917   2.258  1.00  0.00     0.013 A 
BRANCH  33  37
HETATM   37  O   UNL     1      43.696 -18.290   6.399  1.00  0.00    -0.356 OA
HETATM   38  C   UNL     1      43.585 -17.146   7.240  1.00  0.00     0.210 C 
ENDBRANCH  33  37
ENDBRANCH  30  31
ENDBRANCH   1  29
TORSDOF 8
ENDMDL
MODEL 3
REMARK VINA RESULT:      -9.5      1.721      2.925
REMARK  8 active torsions:
REMARK  status: ('A' for Active; 'I' for Inactive)
REMARK    1  A    between atoms: O_2  and  C_3 
REMARK    2  A    between atoms: C_5  and  C_6 
REMARK    3  A    between atoms: N_7  and  N_8 
REMARK    4  A    between atoms: C_19  and  C_20 
REMARK       I    between atoms: C_20  and  N_21 
REMARK    5  A    between atoms: N_21  and  C_22 
REMARK    6  A    between atoms: C_22  and  C_23 
REMARK    7  A    between atoms: C_23  and  C_24 
REMARK    8  A    between atoms: C_31  and  N_32 
ROOT
HETATM    1  N   UNL     1      40.298 -14.822   2.729  1.00  0.00    -0.197 N 
HETATM    2  C   UNL     1      41.220 -15.784   3.117  1.00  0.00     0.183 A 
HETATM    3  C   UNL     1      41.699 -15.406   4.367  1.00  0.00     0.125 A 
HETATM    4  N   UNL     1      42.704 -16.086   4.980  1.00  0.00    -0.242 NA
HETATM    5  C   UNL     1      43.140 -17.164   4.311  1.00  0.00     0.086 A 
HETATM    6  C   UNL     1      42.621 -17.545   3.045  1.00  0.00     0.088 A 
HETATM    7  N   UNL     1      41.658 -16.855   2.412  1.00  0.00    -0.225 NA
HETATM    8  C   UNL     1      44.151 -17.924   4.883  1.00  0.00     0.034 A 
HETATM    9  C   UNL     1      44.666 -19.053   4.244  1.00  0.00     0.002 A 
HETATM   10  C   UNL     1      44.159 -19.429   3.009  1.00  0.00     0.002 A 
HETATM   11  C   UNL     1      43.142 -18.673   2.422  1.00  0.00     0.034 A 
HETATM   12  C   UNL     1      41.030 -14.227   4.775  1.00  0.00     0.110 C 
HETATM   13  C   UNL     1      40.054 -13.993   3.821  1.00  0.00     0.143 C 
ENDROOT
BRANCH  12  14
HETATM   14  C   UNL     1      41.348 -13.322   5.865  1.00  0.00     0.257 C 
HETATM   15  N   UNL     1      42.690 -13.304   6.189  1.00  0.00    -0.356 N 
HETATM   16  H   UNL     1      43.254 -14.041   5.773  1.00  0.00     0.162 HD
HETATM   17  O   UNL     1      40.540 -12.526   6.334  1.00  0.00    -0.267 OA
BRANCH  15  18
HETATM   18  C   UNL     1      43.341 -12.017   6.347  1.00  0.00     0.127 C 
BRANCH  18  19
HETATM   19  C   UNL     1      43.874 -11.471   5.010  1.00  0.00     0.053 C 
BRANCH  19  20
HETATM   20  C   UNL     1      42.823 -10.869   4.091  1.00  0.00    -0.082 C 
HETATM   21  C   UNL     1      42.659 -11.485   2.719  1.00  0.00     0.034 C 
HETATM   22  C   UNL     1      41.804 -10.646   1.761  1.00  0.00     0.005 C 
HETATM   23  C   UNL     1      40.570 -10.085   2.459  1.00  0.00     0.004 C 
HETATM   24  C   UNL     1      40.963  -9.227   3.659  1.00  0.00     0.027 C 
HETATM   25  C   UNL     1      42.052  -9.840   4.492  1.00  0.00    -0.024 C 
ENDBRANCH  19  20
ENDBRANCH  18  19
ENDBRANCH  15  18
ENDBRANCH  12  14
BRANCH  13  26
HETATM   26  N   UNL     1      39.105 -13.026   3.761  1.00  0.00    -0.383 N 
HETATM   27  H   UNL     1      38.116 -13.271   3.695  1.00  0.00     0.157 HD
HETATM   28  H   UNL     1      39.351 -12.077   3.491  1.00  0.00     0.157 HD
ENDBRANCH  13  26
BRANCH   1  29
HETATM   29  N   UNL     1      39.773 -14.507   1.500  1.00  0.00    -0.176 NA
HETATM   30  C   UNL     1      40.625 -14.314   0.547  1.00  0.00     0.150 C 
BRANCH  30  31
HETATM   31  C   UNL     1      40.194 -13.695  -0.726  1.00  0.00    -0.014 A 
HETATM   32  C   UNL     1      40.735 -12.465  -1.125  1.00  0.00     0.049 A 
HETATM   33  C   UNL     1      40.452 -11.963  -2.393  1.00  0.00     0.069 A 
HETATM   34  C   UNL     1      39.605 -12.682  -3.241  1.00  0.00     0.037 A 
HETATM   35  C   UNL     1      39.058 -13.903  -2.838  1.00  0.00     0.004 A 
HETATM   36  C   UNL     1      39.358 -14.417  -1.577  1.00  0.00     0.013 A 
BRANCH  33  37
HETATM   37  O   UNL     1      40.949 -10.802  -2.922  1.00  0.00    -0.356 OA
HETATM   38  C   UNL     1      39.999  -9.898  -3.476  1.00  0.00     0.210 C 
ENDBRANCH  33  37
ENDBRANCH  30  31
ENDBRANCH   1  29
TORSDOF 8
ENDMDL
MODEL 4
REMARK VINA RESULT:      -9.4      3.116      7.610
REMARK  8 active torsions:
REMARK  status: ('A' for Active; 'I' for Inactive)
REMARK    1  A    between atoms: O_2  and  C_3 
REMARK    2  A    between atoms: C_5  and  C_6 
REMARK    3  A    between atoms: N_7  and  N_8 
REMARK    4  A    between atoms: C_19  and  C_20 
REMARK       I    between atoms: C_20  and  N_21 
REMARK    5  A    between atoms: N_21  and  C_22 
REMARK    6  A    between atoms: C_22  and  C_23 
REMARK    7  A    between atoms: C_23  and  C_24 
REMARK    8  A    between atoms: C_31  and  N_32 
ROOT
HETATM    1  N   UNL     1      41.839 -13.142   5.597  1.00  0.00    -0.197 N 
HETATM    2  C   UNL     1      42.635 -12.219   6.261  1.00  0.00     0.183 A 
HETATM    3  C   UNL     1      41.798 -11.195   6.691  1.00  0.00     0.125 A 
HETATM    4  N   UNL     1      42.289 -10.075   7.285  1.00  0.00    -0.242 NA
HETATM    5  C   UNL     1      43.618 -10.075   7.466  1.00  0.00     0.086 A 
HETATM    6  C   UNL     1      44.453 -11.142   7.040  1.00  0.00     0.088 A 
HETATM    7  N   UNL     1      43.982 -12.234   6.414  1.00  0.00    -0.225 NA
HETATM    8  C   UNL     1      44.193  -8.974   8.087  1.00  0.00     0.034 A 
HETATM    9  C   UNL     1      45.569  -8.893   8.302  1.00  0.00     0.002 A 
HETATM   10  C   UNL     1      46.386  -9.936   7.889  1.00  0.00     0.002 A 
HETATM   11  C   UNL     1      45.822 -11.048   7.263  1.00  0.00     0.034 A 
HETATM   12  C   UNL     1      40.466 -11.514   6.331  1.00  0.00     0.110 C 
HETATM   13  C   UNL     1      40.508 -12.798   5.814  1.00  0.00     0.143 C 
ENDROOT
BRANCH  12  14
HETATM   14  C   UNL     1      39.287 -10.667   6.335  1.00  0.00     0.257 C 
HETATM   15  N   UNL     1      39.478  -9.457   5.698  1.00  0.00    -0.356 N 
HETATM   16  H   UNL     1      40.443  -9.225   5.475  1.00  0.00     0.162 HD
HETATM   17  O   UNL     1      38.184 -11.054   6.710  1.00  0.00    -0.267 OA
BRANCH  15  18
HETATM   18  C   UNL     1      38.481  -9.020   4.741  1.00  0.00     0.127 C 
BRANCH  18  19
HETATM   19  C   UNL     1      39.060  -8.896   3.319  1.00  0.00     0.053 C 
BRANCH  19  20
HETATM   20  C   UNL     1      39.900 -10.076   2.857  1.00  0.00    -0.082 C 
HETATM   21  C   UNL     1      39.168 -11.285   2.315  1.00  0.00     0.034 C 
HETATM   22  C   UNL     1      40.056 -12.525   2.155  1.00  0.00     0.005 C 
HETATM   23  C   UNL     1      41.413 -12.169   1.558  1.00  0.00     0.004 C 
HETATM   24  C   UNL     1      42.139 -11.144   2.427  1.00  0.00     0.027 C 
HETATM   25  C   UNL     1      41.245 -10.038   2.909  1.00  0.00    -0.024 C 
ENDBRANCH  19  20
ENDBRANCH  18  19
ENDBRANCH  15  18
ENDBRANCH  12  14
BRANCH  13  26
HETATM   26  N   UNL     1      39.503 -13.594   5.371  1.00  0.00    -0.383 N 
HETATM   27  H   UNL     1      39.680 -14.311   4.666  1.00  0.00     0.157 HD
HETATM   28  H   UNL     1      38.532 -13.321   5.500  1.00  0.00     0.157 HD
ENDBRANCH  13  26
BRANCH   1  29
HETATM   29  N   UNL     1      42.152 -14.146   4.713  1.00  0.00    -0.176 NA
HETATM   30  C   UNL     1      42.389 -15.307   5.229  1.00  0.00     0.150 C 
BRANCH  30  31
HETATM   31  C   UNL     1      43.009 -16.374   4.412  1.00  0.00    -0.014 A 
HETATM   32  C   UNL     1      43.691 -17.427   5.037  1.00  0.00     0.049 A 
HETATM   33  C   UNL     1      44.134 -18.510   4.281  1.00  0.00     0.069 A 
HETATM   34  C   UNL     1      43.917 -18.516   2.900  1.00  0.00     0.037 A 
HETATM   35  C   UNL     1      43.246 -17.461   2.277  1.00  0.00     0.004 A 
HETATM   36  C   UNL     1      42.783 -16.386   3.035  1.00  0.00     0.013 A 
BRANCH  33  37
HETATM   37  O   UNL     1      44.770 -19.619   4.770  1.00  0.00    -0.356 OA
HETATM   38  C   UNL     1      43.938 -20.681   5.224  1.00  0.00     0.210 C 
ENDBRANCH  33  37
ENDBRANCH  30  31
ENDBRANCH   1  29
TORSDOF 8
ENDMDL
MODEL 5
REMARK VINA RESULT:      -9.3      1.713      8.743
REMARK  8 active torsions:
REMARK  status: ('A' for Active; 'I' for Inactive)
REMARK    1  A    between atoms: O_2  and  C_3 
REMARK    2  A    between atoms: C_5  and  C_6 
REMARK    3  A    between atoms: N_7  and  N_8 
REMARK    4  A    between atoms: C_19  and  C_20 
REMARK       I    between atoms: C_20  and  N_21 
REMARK    5  A    between atoms: N_21  and  C_22 
REMARK    6  A    between atoms: C_22  and  C_23 
REMARK    7  A    between atoms: C_23  and  C_24 
REMARK    8  A    between atoms: C_31  and  N_32 
ROOT
HETATM    1  N   UNL     1      42.719 -13.164   3.808  1.00  0.00    -0.197 N 
HETATM    2  C   UNL     1      42.902 -14.510   3.529  1.00  0.00     0.183 A 
HETATM    3  C   UNL     1      42.199 -14.782   2.360  1.00  0.00     0.125 A 
HETATM    4  N   UNL     1      42.087 -16.046   1.874  1.00  0.00    -0.242 NA
HETATM    5  C   UNL     1      42.751 -16.977   2.576  1.00  0.00     0.086 A 
HETATM    6  C   UNL     1      43.482 -16.675   3.755  1.00  0.00     0.088 A 
HETATM    7  N   UNL     1      43.563 -15.435   4.268  1.00  0.00    -0.225 NA
HETATM    8  C   UNL     1      42.703 -18.291   2.129  1.00  0.00     0.034 A 
HETATM    9  C   UNL     1      43.357 -19.317   2.811  1.00  0.00     0.002 A 
HETATM   10  C   UNL     1      44.074 -19.024   3.961  1.00  0.00     0.002 A 
HETATM   11  C   UNL     1      44.130 -17.708   4.422  1.00  0.00     0.034 A 
HETATM   12  C   UNL     1      41.618 -13.580   1.888  1.00  0.00     0.110 C 
HETATM   13  C   UNL     1      42.101 -12.575   2.708  1.00  0.00     0.143 C 
ENDROOT
BRANCH  12  14
HETATM   14  C   UNL     1      40.606 -13.391   0.865  1.00  0.00     0.257 C 
HETATM   15  N   UNL     1      40.791 -14.191  -0.246  1.00  0.00    -0.356 N 
HETATM   16  H   UNL     1      41.690 -14.664  -0.302  1.00  0.00     0.162 HD
HETATM   17  O   UNL     1      39.592 -12.721   1.039  1.00  0.00    -0.267 OA
BRANCH  15  18
HETATM   18  C   UNL     1      39.652 -14.925  -0.762  1.00  0.00     0.127 C 
BRANCH  18  19
HETATM   19  C   UNL     1      39.335 -14.549  -2.221  1.00  0.00     0.053 C 
BRANCH  19  20
HETATM   20  C   UNL     1      39.103 -13.068  -2.472  1.00  0.00    -0.082 C 
HETATM   21  C   UNL     1      40.262 -12.263  -3.019  1.00  0.00     0.034 C 
HETATM   22  C   UNL     1      40.044 -10.746  -2.962  1.00  0.00     0.005 C 
HETATM   23  C   UNL     1      38.630 -10.368  -3.388  1.00  0.00     0.004 C 
HETATM   24  C   UNL     1      37.591 -11.055  -2.505  1.00  0.00     0.027 C 
HETATM   25  C   UNL     1      37.906 -12.498  -2.236  1.00  0.00    -0.024 C 
ENDBRANCH  19  20
ENDBRANCH  18  19
ENDBRANCH  15  18
ENDBRANCH  12  14
BRANCH  13  26
HETATM   26  N   UNL     1      41.900 -11.235   2.659  1.00  0.00    -0.383 N 
HETATM   27  H   UNL     1      41.188 -10.838   2.044  1.00  0.00     0.157 HD
HETATM   28  H   UNL     1      42.615 -10.592   2.991  1.00  0.00     0.157 HD
ENDBRANCH  13  26
BRANCH   1  29
HETATM   29  N   UNL     1      42.894 -12.440   4.963  1.00  0.00    -0.176 NA
HETATM   30  C   UNL     1      43.985 -11.751   5.045  1.00  0.00     0.150 C 
BRANCH  30  31
HETATM   31  C   UNL     1      44.409 -11.176   6.340  1.00  0.00    -0.014 A 
HETATM   32  C   UNL     1      43.448 -10.814   7.294  1.00  0.00     0.049 A 
HETATM   33  C   UNL     1      43.850 -10.424   8.570  1.00  0.00     0.069 A 
HETATM   34  C   UNL     1      45.214 -10.372   8.871  1.00  0.00     0.037 A 
HETATM   35  C   UNL     1      46.172 -10.723   7.916  1.00  0.00     0.004 A 
HETATM   36  C   UNL     1      45.770 -11.134   6.646  1.00  0.00     0.013 A 
BRANCH  33  37
HETATM   37  O   UNL     1      43.017 -10.090   9.603  1.00  0.00    -0.356 OA
HETATM   38  C   UNL     1      43.480 -10.390  10.916  1.00  0.00     0.210 C 
ENDBRANCH  33  37
ENDBRANCH  30  31
ENDBRANCH   1  29
TORSDOF 8
ENDMDL
MODEL 6
REMARK VINA RESULT:      -9.1      2.305      8.014
REMARK  8 active torsions:
REMARK  status: ('A' for Active; 'I' for Inactive)
REMARK    1  A    between atoms: O_2  and  C_3 
REMARK    2  A    between atoms: C_5  and  C_6 
REMARK    3  A    between atoms: N_7  and  N_8 
REMARK    4  A    between atoms: C_19  and  C_20 
REMARK       I    between atoms: C_20  and  N_21 
REMARK    5  A    between atoms: N_21  and  C_22 
REMARK    6  A    between atoms: C_22  and  C_23 
REMARK    7  A    between atoms: C_23  and  C_24 
REMARK    8  A    between atoms: C_31  and  N_32 
ROOT
HETATM    1  N   UNL     1      42.115 -13.891   5.643  1.00  0.00    -0.197 N 
HETATM    2  C   UNL     1      42.628 -12.778   6.293  1.00  0.00     0.183 A 
HETATM    3  C   UNL     1      41.865 -11.686   5.892  1.00  0.00     0.125 A 
HETATM    4  N   UNL     1      42.181 -10.419   6.269  1.00  0.00    -0.242 NA
HETATM    5  C   UNL     1      43.236 -10.327   7.092  1.00  0.00     0.086 A 
HETATM    6  C   UNL     1      43.989 -11.457   7.508  1.00  0.00     0.088 A 
HETATM    7  N   UNL     1      43.710 -12.709   7.106  1.00  0.00    -0.225 NA
HETATM    8  C   UNL     1      43.608  -9.066   7.539  1.00  0.00     0.034 A 
HETATM    9  C   UNL     1      44.701  -8.886   8.388  1.00  0.00     0.002 A 
HETATM   10  C   UNL     1      45.435  -9.989   8.798  1.00  0.00     0.002 A 
HETATM   11  C   UNL     1      45.073 -11.262   8.355  1.00  0.00     0.034 A 
HETATM   12  C   UNL     1      40.842 -12.139   5.025  1.00  0.00     0.110 C 
HETATM   13  C   UNL     1      40.921 -13.522   5.031  1.00  0.00     0.143 C 
ENDROOT
BRANCH  12  14
HETATM   14  C   UNL     1      39.962 -11.370   4.163  1.00  0.00     0.257 C 
HETATM   15  N   UNL     1      40.570 -10.261   3.608  1.00  0.00    -0.356 N 
HETATM   16  H   UNL     1      41.474 -10.011   4.002  1.00  0.00     0.162 HD
HETATM   17  O   UNL     1      38.848 -11.758   3.822  1.00  0.00    -0.267 OA
BRANCH  15  18
HETATM   18  C   UNL     1      40.411 -10.031   2.185  1.00  0.00     0.127 C 
BRANCH  18  19
HETATM   19  C   UNL     1      41.458 -10.798   1.355  1.00  0.00     0.053 C 
BRANCH  19  20
HETATM   20  C   UNL     1      41.008 -12.157   0.843  1.00  0.00    -0.082 C 
HETATM   21  C   UNL     1      41.687 -13.380   1.419  1.00  0.00     0.034 C 
HETATM   22  C   UNL     1      41.394 -14.673   0.646  1.00  0.00     0.005 C 
HETATM   23  C   UNL     1      39.923 -14.772   0.260  1.00  0.00     0.004 C 
HETATM   24  C   UNL     1      39.499 -13.576  -0.590  1.00  0.00     0.027 C 
HETATM   25  C   UNL     1      40.028 -12.269  -0.074  1.00  0.00    -0.024 C 
ENDBRANCH  19  20
ENDBRANCH  18  19
ENDBRANCH  15  18
ENDBRANCH  12  14
BRANCH  13  26
HETATM   26  N   UNL     1      40.142 -14.444   4.412  1.00  0.00    -0.383 N 
HETATM   27  H   UNL     1      39.168 -14.237   4.188  1.00  0.00     0.157 HD
HETATM   28  H   UNL     1      40.401 -15.428   4.421  1.00  0.00     0.157 HD
ENDBRANCH  13  26
BRANCH   1  29
HETATM   29  N   UNL     1      42.650 -15.134   5.406  1.00  0.00    -0.176 NA
HETATM   30  C   UNL     1      43.129 -15.334   4.222  1.00  0.00     0.150 C 
BRANCH  30  31
HETATM   31  C   UNL     1      43.459 -16.704   3.771  1.00  0.00    -0.014 A 
HETATM   32  C   UNL     1      44.044 -17.613   4.663  1.00  0.00     0.049 A 
HETATM   33  C   UNL     1      44.206 -18.945   4.289  1.00  0.00     0.069 A 
HETATM   34  C   UNL     1      43.808 -19.350   3.012  1.00  0.00     0.037 A 
HETATM   35  C   UNL     1      43.234 -18.441   2.119  1.00  0.00     0.004 A 
HETATM   36  C   UNL     1      43.051 -17.112   2.501  1.00  0.00     0.013 A 
BRANCH  33  37
HETATM   37  O   UNL     1      44.719 -19.939   5.076  1.00  0.00    -0.356 OA
HETATM   38  C   UNL     1      43.822 -20.977   5.456  1.00  0.00     0.210 C 
ENDBRANCH  33  37
ENDBRANCH  30  31
ENDBRANCH   1  29
TORSDOF 8
ENDMDL
MODEL 7
REMARK VINA RESULT:      -9.0      3.848      7.087
REMARK  8 active torsions:
REMARK  status: ('A' for Active; 'I' for Inactive)
REMARK    1  A    between atoms: O_2  and  C_3 
REMARK    2  A    between atoms: C_5  and  C_6 
REMARK    3  A    between atoms: N_7  and  N_8 
REMARK    4  A    between atoms: C_19  and  C_20 
REMARK       I    between atoms: C_20  and  N_21 
REMARK    5  A    between atoms: N_21  and  C_22 
REMARK    6  A    between atoms: C_22  and  C_23 
REMARK    7  A    between atoms: C_23  and  C_24 
REMARK    8  A    between atoms: C_31  and  N_32 
ROOT
HETATM    1  N   UNL     1      42.051 -13.158   5.624  1.00  0.00    -0.197 N 
HETATM    2  C   UNL     1      42.913 -12.277   6.260  1.00  0.00     0.183 A 
HETATM    3  C   UNL     1      42.132 -11.254   6.786  1.00  0.00     0.125 A 
HETATM    4  N   UNL     1      42.689 -10.166   7.382  1.00  0.00    -0.242 NA
HETATM    5  C   UNL     1      44.028 -10.199   7.467  1.00  0.00     0.086 A 
HETATM    6  C   UNL     1      44.806 -11.265   6.943  1.00  0.00     0.088 A 
HETATM    7  N   UNL     1      44.267 -12.323   6.314  1.00  0.00    -0.225 NA
HETATM    8  C   UNL     1      44.670  -9.133   8.083  1.00  0.00     0.034 A 
HETATM    9  C   UNL     1      46.059  -9.088   8.200  1.00  0.00     0.002 A 
HETATM   10  C   UNL     1      46.822 -10.129   7.691  1.00  0.00     0.002 A 
HETATM   11  C   UNL     1      46.189 -11.207   7.069  1.00  0.00     0.034 A 
HETATM   12  C   UNL     1      40.771 -11.533   6.514  1.00  0.00     0.110 C 
HETATM   13  C   UNL     1      40.747 -12.797   5.949  1.00  0.00     0.143 C 
ENDROOT
BRANCH  12  14
HETATM   14  C   UNL     1      39.614 -10.664   6.634  1.00  0.00     0.257 C 
HETATM   15  N   UNL     1      39.274 -10.381   7.942  1.00  0.00    -0.356 N 
HETATM   16  H   UNL     1      39.736 -10.947   8.649  1.00  0.00     0.162 HD
HETATM   17  O   UNL     1      39.098 -10.096   5.675  1.00  0.00    -0.267 OA
BRANCH  15  18
HETATM   18  C   UNL     1      39.015  -9.000   8.301  1.00  0.00     0.127 C 
BRANCH  18  19
HETATM   19  C   UNL     1      40.212  -8.358   9.027  1.00  0.00     0.053 C 
BRANCH  19  20
HETATM   20  C   UNL     1      40.598  -9.013  10.344  1.00  0.00    -0.082 C 
HETATM   21  C   UNL     1      42.067  -9.049  10.701  1.00  0.00     0.034 C 
HETATM   22  C   UNL     1      42.395  -9.976  11.879  1.00  0.00     0.005 C 
HETATM   23  C   UNL     1      41.376  -9.833  13.004  1.00  0.00     0.004 C 
HETATM   24  C   UNL     1      39.966 -10.140  12.505  1.00  0.00     0.027 C 
HETATM   25  C   UNL     1      39.664  -9.523  11.170  1.00  0.00    -0.024 C 
ENDBRANCH  19  20
ENDBRANCH  18  19
ENDBRANCH  15  18
ENDBRANCH  12  14
BRANCH  13  26
HETATM   26  N   UNL     1      39.696 -13.556   5.553  1.00  0.00    -0.383 N 
HETATM   27  H   UNL     1      39.445 -13.623   4.565  1.00  0.00     0.157 HD
HETATM   28  H   UNL     1      38.976 -13.831   6.217  1.00  0.00     0.157 HD
ENDBRANCH  13  26
BRANCH   1  29
HETATM   29  N   UNL     1      42.277 -14.135   4.684  1.00  0.00    -0.176 NA
HETATM   30  C   UNL     1      42.428 -15.337   5.134  1.00  0.00     0.150 C 
BRANCH  30  31
HETATM   31  C   UNL     1      42.956 -16.402   4.255  1.00  0.00    -0.014 A 
HETATM   32  C   UNL     1      43.595 -17.518   4.812  1.00  0.00     0.049 A 
HETATM   33  C   UNL     1      43.948 -18.593   3.999  1.00  0.00     0.069 A 
HETATM   34  C   UNL     1      43.684 -18.529   2.628  1.00  0.00     0.037 A 
HETATM   35  C   UNL     1      43.057 -17.412   2.071  1.00  0.00     0.004 A 
HETATM   36  C   UNL     1      42.684 -16.344   2.887  1.00  0.00     0.013 A 
BRANCH  33  37
HETATM   37  O   UNL     1      44.532 -19.756   4.420  1.00  0.00    -0.356 OA
HETATM   38  C   UNL     1      43.934 -20.400   5.540  1.00  0.00     0.210 C 
ENDBRANCH  33  37
ENDBRANCH  30  31
ENDBRANCH   1  29
TORSDOF 8
ENDMDL
MODEL 8
REMARK VINA RESULT:      -8.6      2.030      9.036
REMARK  8 active torsions:
REMARK  status: ('A' for Active; 'I' for Inactive)
REMARK    1  A    between atoms: O_2  and  C_3 
REMARK    2  A    between atoms: C_5  and  C_6 
REMARK    3  A    between atoms: N_7  and  N_8 
REMARK    4  A    between atoms: C_19  and  C_20 
REMARK       I    between atoms: C_20  and  N_21 
REMARK    5  A    between atoms: N_21  and  C_22 
REMARK    6  A    between atoms: C_22  and  C_23 
REMARK    7  A    between atoms: C_23  and  C_24 
REMARK    8  A    between atoms: C_31  and  N_32 
ROOT
HETATM    1  N   UNL     1      42.921 -12.227   4.825  1.00  0.00    -0.197 N 
HETATM    2  C   UNL     1      43.130 -13.584   4.618  1.00  0.00     0.183 A 
HETATM    3  C   UNL     1      42.678 -13.873   3.335  1.00  0.00     0.125 A 
HETATM    4  N   UNL     1      42.642 -15.147   2.862  1.00  0.00    -0.242 NA
HETATM    5  C   UNL     1      43.125 -16.070   3.706  1.00  0.00     0.086 A 
HETATM    6  C   UNL     1      43.603 -15.751   5.005  1.00  0.00     0.088 A 
HETATM    7  N   UNL     1      43.603 -14.501   5.497  1.00  0.00    -0.225 NA
HETATM    8  C   UNL     1      43.142 -17.394   3.287  1.00  0.00     0.034 A 
HETATM    9  C   UNL     1      43.619 -18.414   4.111  1.00  0.00     0.002 A 
HETATM   10  C   UNL     1      44.088 -18.105   5.379  1.00  0.00     0.002 A 
HETATM   11  C   UNL     1      44.076 -16.778   5.813  1.00  0.00     0.034 A 
HETATM   12  C   UNL     1      42.234 -12.674   2.727  1.00  0.00     0.110 C 
HETATM   13  C   UNL     1      42.558 -11.656   3.609  1.00  0.00     0.143 C 
ENDROOT
BRANCH  12  14
HETATM   14  C   UNL     1      41.459 -12.493   1.512  1.00  0.00     0.257 C 
HETATM   15  N   UNL     1      41.451 -13.607   0.696  1.00  0.00    -0.356 N 
HETATM   16  H   UNL     1      42.122 -14.334   0.936  1.00  0.00     0.162 HD
HETATM   17  O   UNL     1      40.742 -11.517   1.312  1.00  0.00    -0.267 OA
BRANCH  15  18
HETATM   18  C   UNL     1      40.180 -14.063   0.169  1.00  0.00     0.127 C 
BRANCH  18  19
HETATM   19  C   UNL     1      40.138 -14.008  -1.369  1.00  0.00     0.053 C 
BRANCH  19  20
HETATM   20  C   UNL     1      39.377 -12.830  -1.954  1.00  0.00    -0.082 C 
HETATM   21  C   UNL     1      37.875 -12.806  -1.766  1.00  0.00     0.034 C 
HETATM   22  C   UNL     1      37.160 -11.758  -2.629  1.00  0.00     0.005 C 
HETATM   23  C   UNL     1      37.913 -10.433  -2.640  1.00  0.00     0.004 C 
HETATM   24  C   UNL     1      39.337 -10.619  -3.158  1.00  0.00     0.027 C 
HETATM   25  C   UNL     1      40.017 -11.835  -2.598  1.00  0.00    -0.024 C 
ENDBRANCH  19  20
ENDBRANCH  18  19
ENDBRANCH  15  18
ENDBRANCH  12  14
BRANCH  13  26
HETATM   26  N   UNL     1      42.400 -10.315   3.491  1.00  0.00    -0.383 N 
HETATM   27  H   UNL     1      42.985  -9.673   4.027  1.00  0.00     0.157 HD
HETATM   28  H   UNL     1      41.539  -9.927   3.112  1.00  0.00     0.157 HD
ENDBRANCH  13  26
BRANCH   1  29
HETATM   29  N   UNL     1      42.870 -11.479   5.975  1.00  0.00    -0.176 NA
HETATM   30  C   UNL     1      43.999 -11.029   6.416  1.00  0.00     0.150 C 
BRANCH  30  31
HETATM   31  C   UNL     1      44.097 -10.467   7.780  1.00  0.00    -0.014 A 
HETATM   32  C   UNL     1      42.936 -10.096   8.471  1.00  0.00     0.049 A 
HETATM   33  C   UNL     1      43.016  -9.719   9.810  1.00  0.00     0.069 A 
HETATM   34  C   UNL     1      44.264  -9.689  10.439  1.00  0.00     0.037 A 
HETATM   35  C   UNL     1      45.423 -10.049   9.747  1.00  0.00     0.004 A 
HETATM   36  C   UNL     1      45.341 -10.447   8.413  1.00  0.00     0.013 A 
BRANCH  33  37
HETATM   37  O   UNL     1      41.958  -9.379  10.609  1.00  0.00    -0.356 OA
HETATM   38  C   UNL     1      42.075  -9.700  11.991  1.00  0.00     0.210 C 
ENDBRANCH  33  37
ENDBRANCH  30  31
ENDBRANCH   1  29
TORSDOF 8
ENDMDL
MODEL 9
REMARK VINA RESULT:      -8.5      3.896      7.322
REMARK  8 active torsions:
REMARK  status: ('A' for Active; 'I' for Inactive)
REMARK    1  A    between atoms: O_2  and  C_3 
REMARK    2  A    between atoms: C_5  and  C_6 
REMARK    3  A    between atoms: N_7  and  N_8 
REMARK    4  A    between atoms: C_19  and  C_20 
REMARK       I    between atoms: C_20  and  N_21 
REMARK    5  A    between atoms: N_21  and  C_22 
REMARK    6  A    between atoms: C_22  and  C_23 
REMARK    7  A    between atoms: C_23  and  C_24 
REMARK    8  A    between atoms: C_31  and  N_32 
ROOT
HETATM    1  N   UNL     1      41.779 -12.877   5.626  1.00  0.00    -0.197 N 
HETATM    2  C   UNL     1      42.603 -11.991   6.306  1.00  0.00     0.183 A 
HETATM    3  C   UNL     1      41.797 -10.952   6.758  1.00  0.00     0.125 A 
HETATM    4  N   UNL     1      42.321  -9.859   7.372  1.00  0.00    -0.242 NA
HETATM    5  C   UNL     1      43.650  -9.900   7.549  1.00  0.00     0.086 A 
HETATM    6  C   UNL     1      44.453 -10.981   7.099  1.00  0.00     0.088 A 
HETATM    7  N   UNL     1      43.949 -12.047   6.453  1.00  0.00    -0.225 NA
HETATM    8  C   UNL     1      44.258  -8.828   8.189  1.00  0.00     0.034 A 
HETATM    9  C   UNL     1      45.636  -8.791   8.401  1.00  0.00     0.002 A 
HETATM   10  C   UNL     1      46.423  -9.847   7.965  1.00  0.00     0.002 A 
HETATM   11  C   UNL     1      45.824 -10.931   7.319  1.00  0.00     0.034 A 
HETATM   12  C   UNL     1      40.455 -11.226   6.397  1.00  0.00     0.110 C 
HETATM   13  C   UNL     1      40.459 -12.500   5.854  1.00  0.00     0.143 C 
ENDROOT
BRANCH  12  14
HETATM   14  C   UNL     1      39.301 -10.346   6.422  1.00  0.00     0.257 C 
HETATM   15  N   UNL     1      39.632  -9.005   6.403  1.00  0.00    -0.356 N 
HETATM   16  H   UNL     1      40.614  -8.792   6.563  1.00  0.00     0.162 HD
HETATM   17  O   UNL     1      38.147 -10.747   6.295  1.00  0.00    -0.267 OA
BRANCH  15  18
HETATM   18  C   UNL     1      38.936  -8.139   5.471  1.00  0.00     0.127 C 
BRANCH  18  19
HETATM   19  C   UNL     1      39.542  -6.723   5.436  1.00  0.00     0.053 C 
BRANCH  19  20
HETATM   20  C   UNL     1      40.092  -6.222   6.762  1.00  0.00    -0.082 C 
HETATM   21  C   UNL     1      41.597  -6.159   6.913  1.00  0.00     0.034 C 
HETATM   22  C   UNL     1      42.064  -5.933   8.357  1.00  0.00     0.005 C 
HETATM   23  C   UNL     1      41.217  -4.878   9.060  1.00  0.00     0.004 C 
HETATM   24  C   UNL     1      39.743  -5.278   9.070  1.00  0.00     0.027 C 
HETATM   25  C   UNL     1      39.272  -5.828   7.755  1.00  0.00    -0.024 C 
ENDBRANCH  19  20
ENDBRANCH  18  19
ENDBRANCH  15  18
ENDBRANCH  12  14
BRANCH  13  26
HETATM   26  N   UNL     1      39.431 -13.258   5.400  1.00  0.00    -0.383 N 
HETATM   27  H   UNL     1      39.522 -14.273   5.335  1.00  0.00     0.157 HD
HETATM   28  H   UNL     1      38.681 -12.840   4.854  1.00  0.00     0.157 HD
ENDBRANCH  13  26
BRANCH   1  29
HETATM   29  N   UNL     1      42.060 -13.872   4.722  1.00  0.00    -0.176 NA
HETATM   30  C   UNL     1      42.326 -15.036   5.217  1.00  0.00     0.150 C 
BRANCH  30  31
HETATM   31  C   UNL     1      42.918 -16.092   4.367  1.00  0.00    -0.014 A 
HETATM   32  C   UNL     1      43.516 -17.213   4.957  1.00  0.00     0.049 A 
HETATM   33  C   UNL     1      43.928 -18.279   4.159  1.00  0.00     0.069 A 
HETATM   34  C   UNL     1      43.764 -18.200   2.774  1.00  0.00     0.037 A 
HETATM   35  C   UNL     1      43.176 -17.078   2.185  1.00  0.00     0.004 A 
HETATM   36  C   UNL     1      42.744 -16.020   2.984  1.00  0.00     0.013 A 
BRANCH  33  37
HETATM   37  O   UNL     1      44.483 -19.446   4.610  1.00  0.00    -0.356 OA
HETATM   38  C   UNL     1      43.971 -20.652   4.052  1.00  0.00     0.210 C 
ENDBRANCH  33  37
ENDBRANCH  30  31
ENDBRANCH   1  29
TORSDOF 8
ENDMDL
MODEL 10
REMARK VINA RESULT:      -8.5      3.994      9.061
REMARK  8 active torsions:
REMARK  status: ('A' for Active; 'I' for Inactive)
REMARK    1  A    between atoms: O_2  and  C_3 
REMARK    2  A    between atoms: C_5  and  C_6 
REMARK    3  A    between atoms: N_7  and  N_8 
REMARK    4  A    between atoms: C_19  and  C_20 
REMARK       I    between atoms: C_20  and  N_21 
REMARK    5  A    between atoms: N_21  and  C_22 
REMARK    6  A    between atoms: C_22  and  C_23 
REMARK    7  A    between atoms: C_23  and  C_24 
REMARK    8  A    between atoms: C_31  and  N_32 
ROOT
HETATM    1  N   UNL     1      41.108 -13.341   1.984  1.00  0.00    -0.197 N 
HETATM    2  C   UNL     1      40.410 -13.418   0.787  1.00  0.00     0.183 A 
HETATM    3  C   UNL     1      39.812 -12.179   0.584  1.00  0.00     0.125 A 
HETATM    4  N   UNL     1      38.962 -11.959  -0.453  1.00  0.00    -0.242 NA
HETATM    5  C   UNL     1      38.802 -13.005  -1.277  1.00  0.00     0.086 A 
HETATM    6  C   UNL     1      39.439 -14.257  -1.064  1.00  0.00     0.088 A 
HETATM    7  N   UNL     1      40.248 -14.497  -0.018  1.00  0.00    -0.225 NA
HETATM    8  C   UNL     1      37.965 -12.852  -2.374  1.00  0.00     0.034 A 
HETATM    9  C   UNL     1      37.738 -13.896  -3.270  1.00  0.00     0.002 A 
HETATM   10  C   UNL     1      38.361 -15.118  -3.067  1.00  0.00     0.002 A 
HETATM   11  C   UNL     1      39.205 -15.287  -1.967  1.00  0.00     0.034 A 
HETATM   12  C   UNL     1      40.187 -11.314   1.641  1.00  0.00     0.110 C 
HETATM   13  C   UNL     1      41.121 -12.009   2.390  1.00  0.00     0.143 C 
ENDROOT
BRANCH  12  14
HETATM   14  C   UNL     1      39.636 -10.022   2.008  1.00  0.00     0.257 C 
HETATM   15  N   UNL     1      39.157  -9.303   0.930  1.00  0.00    -0.356 N 
HETATM   16  H   UNL     1      39.410  -9.664   0.013  1.00  0.00     0.162 HD
HETATM   17  O   UNL     1      39.453  -9.676   3.172  1.00  0.00    -0.267 OA
BRANCH  15  18
HETATM   18  C   UNL     1      37.842  -8.700   1.037  1.00  0.00     0.127 C 
BRANCH  18  19
HETATM   19  C   UNL     1      36.718  -9.752   0.983  1.00  0.00     0.053 C 
BRANCH  19  20
HETATM   20  C   UNL     1      35.653  -9.507  -0.074  1.00  0.00    -0.082 C 
HETATM   21  C   UNL     1      35.983  -9.895  -1.499  1.00  0.00     0.034 C 
HETATM   22  C   UNL     1      34.991  -9.350  -2.534  1.00  0.00     0.005 C 
HETATM   23  C   UNL     1      33.550  -9.490  -2.056  1.00  0.00     0.004 C 
HETATM   24  C   UNL     1      33.340  -8.761  -0.731  1.00  0.00     0.027 C 
HETATM   25  C   UNL     1      34.455  -8.985   0.249  1.00  0.00    -0.024 C 
ENDBRANCH  19  20
ENDBRANCH  18  19
ENDBRANCH  15  18
ENDBRANCH  12  14
BRANCH  13  26
HETATM   26  N   UNL     1      41.833 -11.622   3.477  1.00  0.00    -0.383 N 
HETATM   27  H   UNL     1      41.716 -10.687   3.869  1.00  0.00     0.157 HD
HETATM   28  H   UNL     1      42.681 -12.117   3.743  1.00  0.00     0.157 HD
ENDBRANCH  13  26
BRANCH   1  29
HETATM   29  N   UNL     1      41.595 -14.316   2.819  1.00  0.00    -0.176 NA
HETATM   30  C   UNL     1      42.628 -14.968   2.395  1.00  0.00     0.150 C 
BRANCH  30  31
HETATM   31  C   UNL     1      43.052 -16.215   3.069  1.00  0.00    -0.014 A 
HETATM   32  C   UNL     1      43.151 -17.407   2.340  1.00  0.00     0.049 A 
HETATM   33  C   UNL     1      43.703 -18.540   2.935  1.00  0.00     0.069 A 
HETATM   34  C   UNL     1      44.124 -18.477   4.266  1.00  0.00     0.037 A 
HETATM   35  C   UNL     1      44.016 -17.291   4.995  1.00  0.00     0.004 A 
HETATM   36  C   UNL     1      43.484 -16.150   4.394  1.00  0.00     0.013 A 
BRANCH  33  37
HETATM   37  O   UNL     1      43.897 -19.749   2.324  1.00  0.00    -0.356 OA
HETATM   38  C   UNL     1      43.818 -20.902   3.155  1.00  0.00     0.210 C 
ENDBRANCH  33  37
ENDBRANCH  30  31
ENDBRANCH   1  29
TORSDOF 8
ENDMDL
