MODEL 1
REMARK VINA RESULT:      -9.4      0.000      0.000
REMARK  7 active torsions:
REMARK  status: ('A' for Active; 'I' for Inactive)
REMARK    1  A    between atoms: C_12  and  S_13 
REMARK    2  A    between atoms: S_13  and  C_14 
REMARK    3  A    between atoms: C_14  and  C_15 
REMARK       I    between atoms: C_15  and  N_16 
REMARK    4  A    between atoms: N_16  and  C_17 
REMARK    5  A    between atoms: C_17  and  C_18 
REMARK    6  A    between atoms: C_18  and  C_19 
REMARK    7  A    between atoms: C_22  and  O_23 
ROOT
HETATM    1  S   UNL     1      42.487 -13.041   6.100  1.00  0.00    -0.080 SA
ENDROOT
BRANCH   1   2
HETATM    2  C   UNL     1      42.906 -14.663   6.535  1.00  0.00     0.197 A 
HETATM    3  N   UNL     1      43.150 -15.731   5.684  1.00  0.00    -0.271 N 
HETATM    4  C   UNL     1      43.170 -15.896   4.267  1.00  0.00     0.054 A 
HETATM    5  C   UNL     1      43.417 -16.781   6.557  1.00  0.00     0.159 A 
HETATM    6  C   UNL     1      43.470 -17.194   3.782  1.00  0.00    -0.003 A 
HETATM    7  C   UNL     1      42.914 -14.858   3.364  1.00  0.00     0.031 A 
HETATM    8  C   UNL     1      43.750 -18.303   4.730  1.00  0.00    -0.046 A 
HETATM    9  C   UNL     1      43.500 -17.403   2.392  1.00  0.00     0.014 A 
HETATM   10  C   UNL     1      44.071 -19.678   4.214  1.00  0.00     0.049 C 
HETATM   11  C   UNL     1      43.714 -18.063   6.051  1.00  0.00     0.060 A 
HETATM   12  C   UNL     1      43.242 -16.362   1.502  1.00  0.00     0.001 A 
HETATM   13  C   UNL     1      42.950 -15.094   1.988  1.00  0.00     0.002 A 
HETATM   14  N   UNL     1      43.342 -16.371   7.805  1.00  0.00    -0.129 NA
HETATM   15  N   UNL     1      43.023 -15.045   7.789  1.00  0.00    -0.122 NA
ENDBRANCH   1   2
BRANCH   1  16
HETATM   16  C   UNL     1      43.845 -12.119   6.883  1.00  0.00     0.185 C 
BRANCH  16  17
HETATM   17  C   UNL     1      44.687 -11.420   5.825  1.00  0.00     0.227 C 
HETATM   18  N   UNL     1      45.865 -10.833   6.200  1.00  0.00    -0.360 N 
HETATM   19  H   UNL     1      46.345 -10.381   5.429  1.00  0.00     0.162 HD
HETATM   20  O   UNL     1      44.380 -11.383   4.632  1.00  0.00    -0.273 OA
BRANCH  18  21
HETATM   21  C   UNL     1      46.436 -10.763   7.534  1.00  0.00     0.127 C 
BRANCH  21  22
HETATM   22  C   UNL     1      46.540  -9.323   8.035  1.00  0.00     0.058 C 
BRANCH  22  23
HETATM   23  C   UNL     1      45.430  -8.984   8.995  1.00  0.00    -0.057 A 
HETATM   24  C   UNL     1      45.314  -9.662  10.214  1.00  0.00     0.010 A 
HETATM   25  C   UNL     1      44.272  -9.358  11.092  1.00  0.00     0.037 A 
HETATM   26  C   UNL     1      43.329  -8.379  10.770  1.00  0.00     0.068 A 
HETATM   27  C   UNL     1      43.437  -7.706   9.555  1.00  0.00     0.037 A 
HETATM   28  C   UNL     1      44.481  -8.007   8.672  1.00  0.00     0.010 A 
BRANCH  26  29
HETATM   29  O   UNL     1      42.364  -8.182  11.719  1.00  0.00    -0.356 OA
HETATM   30  C   UNL     1      42.809  -7.930  13.046  1.00  0.00     0.210 C 
ENDBRANCH  26  29
ENDBRANCH  22  23
ENDBRANCH  21  22
ENDBRANCH  18  21
ENDBRANCH  16  17
ENDBRANCH   1  16
TORSDOF 7
ENDMDL
MODEL 2
REMARK VINA RESULT:      -9.0      4.634      8.218
REMARK  7 active torsions:
REMARK  status: ('A' for Active; 'I' for Inactive)
REMARK    1  A    between atoms: C_12  and  S_13 
REMARK    2  A    between atoms: S_13  and  C_14 
REMARK    3  A    between atoms: C_14  and  C_15 
REMARK       I    between atoms: C_15  and  N_16 
REMARK    4  A    between atoms: N_16  and  C_17 
REMARK    5  A    between atoms: C_17  and  C_18 
REMARK    6  A    between atoms: C_18  and  C_19 
REMARK    7  A    between atoms: C_22  and  O_23 
ROOT
HETATM    1  S   UNL     1      42.948 -12.863   5.339  1.00  0.00    -0.080 SA
ENDROOT
BRANCH   1   2
HETATM    2  C   UNL     1      43.054 -13.858   3.926  1.00  0.00     0.197 A 
HETATM    3  N   UNL     1      43.188 -15.237   3.870  1.00  0.00    -0.271 N 
HETATM    4  C   UNL     1      43.264 -16.275   4.846  1.00  0.00     0.054 A 
HETATM    5  C   UNL     1      43.244 -15.497   2.505  1.00  0.00     0.159 A 
HETATM    6  C   UNL     1      43.406 -17.599   4.357  1.00  0.00    -0.003 A 
HETATM    7  C   UNL     1      43.202 -16.045   6.224  1.00  0.00     0.031 A 
HETATM    8  C   UNL     1      43.466 -17.856   2.895  1.00  0.00    -0.046 A 
HETATM    9  C   UNL     1      43.485 -18.653   5.283  1.00  0.00     0.014 A 
HETATM   10  C   UNL     1      43.615 -19.260   2.379  1.00  0.00     0.049 C 
HETATM   11  C   UNL     1      43.385 -16.822   2.042  1.00  0.00     0.060 A 
HETATM   12  C   UNL     1      43.424 -18.412   6.655  1.00  0.00     0.001 A 
HETATM   13  C   UNL     1      43.282 -17.112   7.123  1.00  0.00     0.002 A 
HETATM   14  N   UNL     1      43.148 -14.379   1.819  1.00  0.00    -0.129 NA
HETATM   15  N   UNL     1      43.028 -13.353   2.710  1.00  0.00    -0.122 NA
ENDBRANCH   1   2
BRANCH   1  16
HETATM   16  C   UNL     1      41.309 -12.113   5.102  1.00  0.00     0.185 C 
BRANCH  16  17
HETATM   17  C   UNL     1      40.216 -13.145   5.341  1.00  0.00     0.227 C 
HETATM   18  N   UNL     1      39.427 -13.528   4.291  1.00  0.00    -0.360 N 
HETATM   19  H   UNL     1      38.720 -14.206   4.553  1.00  0.00     0.162 HD
HETATM   20  O   UNL     1      40.023 -13.686   6.432  1.00  0.00    -0.273 OA
BRANCH  18  21
HETATM   21  C   UNL     1      39.477 -13.044   2.921  1.00  0.00     0.127 C 
BRANCH  21  22
HETATM   22  C   UNL     1      39.627 -14.187   1.918  1.00  0.00     0.058 C 
BRANCH  22  23
HETATM   23  C   UNL     1      39.971 -13.680   0.541  1.00  0.00    -0.057 A 
HETATM   24  C   UNL     1      40.473 -12.386   0.366  1.00  0.00     0.010 A 
HETATM   25  C   UNL     1      40.771 -11.913  -0.914  1.00  0.00     0.037 A 
HETATM   26  C   UNL     1      40.571 -12.719  -2.037  1.00  0.00     0.068 A 
HETATM   27  C   UNL     1      40.065 -14.007  -1.868  1.00  0.00     0.037 A 
HETATM   28  C   UNL     1      39.766 -14.483  -0.587  1.00  0.00     0.010 A 
BRANCH  26  29
HETATM   29  O   UNL     1      40.905 -12.132  -3.227  1.00  0.00    -0.356 OA
HETATM   30  C   UNL     1      40.753 -10.721  -3.313  1.00  0.00     0.210 C 
ENDBRANCH  26  29
ENDBRANCH  22  23
ENDBRANCH  21  22
ENDBRANCH  18  21
ENDBRANCH  16  17
ENDBRANCH   1  16
TORSDOF 7
ENDMDL
MODEL 3
REMARK VINA RESULT:      -9.0      1.735      2.732
REMARK  7 active torsions:
REMARK  status: ('A' for Active; 'I' for Inactive)
REMARK    1  A    between atoms: C_12  and  S_13 
REMARK    2  A    between atoms: S_13  and  C_14 
REMARK    3  A    between atoms: C_14  and  C_15 
REMARK       I    between atoms: C_15  and  N_16 
REMARK    4  A    between atoms: N_16  and  C_17 
REMARK    5  A    between atoms: C_17  and  C_18 
REMARK    6  A    between atoms: C_18  and  C_19 
REMARK    7  A    between atoms: C_22  and  O_23 
ROOT
HETATM    1  S   UNL     1      43.285 -13.600   6.639  1.00  0.00    -0.080 SA
ENDROOT
BRANCH   1   2
HETATM    2  C   UNL     1      41.993 -13.475   5.495  1.00  0.00     0.197 A 
HETATM    3  N   UNL     1      41.696 -14.342   4.454  1.00  0.00    -0.271 N 
HETATM    4  C   UNL     1      42.264 -15.561   3.975  1.00  0.00     0.054 A 
HETATM    5  C   UNL     1      40.587 -13.755   3.854  1.00  0.00     0.159 A 
HETATM    6  C   UNL     1      41.644 -16.151   2.844  1.00  0.00    -0.003 A 
HETATM    7  C   UNL     1      43.373 -16.180   4.562  1.00  0.00     0.031 A 
HETATM    8  C   UNL     1      40.462 -15.507   2.216  1.00  0.00    -0.046 A 
HETATM    9  C   UNL     1      42.170 -17.352   2.339  1.00  0.00     0.014 A 
HETATM   10  C   UNL     1      39.805 -16.134   1.019  1.00  0.00     0.049 C 
HETATM   11  C   UNL     1      39.988 -14.360   2.730  1.00  0.00     0.060 A 
HETATM   12  C   UNL     1      43.277 -17.958   2.930  1.00  0.00     0.001 A 
HETATM   13  C   UNL     1      43.875 -17.373   4.039  1.00  0.00     0.002 A 
HETATM   14  N   UNL     1      40.257 -12.648   4.483  1.00  0.00    -0.129 NA
HETATM   15  N   UNL     1      41.137 -12.474   5.510  1.00  0.00    -0.122 NA
ENDBRANCH   1   2
BRANCH   1  16
HETATM   16  C   UNL     1      43.694 -11.845   6.880  1.00  0.00     0.185 C 
BRANCH  16  17
HETATM   17  C   UNL     1      44.708 -11.391   5.839  1.00  0.00     0.227 C 
HETATM   18  N   UNL     1      45.916 -10.907   6.260  1.00  0.00    -0.360 N 
HETATM   19  H   UNL     1      46.515 -10.617   5.495  1.00  0.00     0.162 HD
HETATM   20  O   UNL     1      44.510 -11.469   4.625  1.00  0.00    -0.273 OA
BRANCH  18  21
HETATM   21  C   UNL     1      46.376 -10.738   7.628  1.00  0.00     0.127 C 
BRANCH  21  22
HETATM   22  C   UNL     1      46.404  -9.268   8.042  1.00  0.00     0.058 C 
BRANCH  22  23
HETATM   23  C   UNL     1      45.319  -8.947   9.038  1.00  0.00    -0.057 A 
HETATM   24  C   UNL     1      45.209  -9.676  10.227  1.00  0.00     0.010 A 
HETATM   25  C   UNL     1      44.190  -9.389  11.138  1.00  0.00     0.037 A 
HETATM   26  C   UNL     1      43.264  -8.377  10.877  1.00  0.00     0.068 A 
HETATM   27  C   UNL     1      43.365  -7.653   9.690  1.00  0.00     0.037 A 
HETATM   28  C   UNL     1      44.385  -7.937   8.776  1.00  0.00     0.010 A 
BRANCH  26  29
HETATM   29  O   UNL     1      42.320  -8.202  11.852  1.00  0.00    -0.356 OA
HETATM   30  C   UNL     1      42.540  -8.872  13.086  1.00  0.00     0.210 C 
ENDBRANCH  26  29
ENDBRANCH  22  23
ENDBRANCH  21  22
ENDBRANCH  18  21
ENDBRANCH  16  17
ENDBRANCH   1  16
TORSDOF 7
ENDMDL
MODEL 4
REMARK VINA RESULT:      -8.9      1.266      1.907
REMARK  7 active torsions:
REMARK  status: ('A' for Active; 'I' for Inactive)
REMARK    1  A    between atoms: C_12  and  S_13 
REMARK    2  A    between atoms: S_13  and  C_14 
REMARK    3  A    between atoms: C_14  and  C_15 
REMARK       I    between atoms: C_15  and  N_16 
REMARK    4  A    between atoms: N_16  and  C_17 
REMARK    5  A    between atoms: C_17  and  C_18 
REMARK    6  A    between atoms: C_18  and  C_19 
REMARK    7  A    between atoms: C_22  and  O_23 
ROOT
HETATM    1  S   UNL     1      42.755 -13.050   5.034  1.00  0.00    -0.080 SA
ENDROOT
BRANCH   1   2
HETATM    2  C   UNL     1      42.983 -14.430   6.053  1.00  0.00     0.197 A 
HETATM    3  N   UNL     1      43.176 -15.747   5.664  1.00  0.00    -0.271 N 
HETATM    4  C   UNL     1      43.272 -16.415   4.406  1.00  0.00     0.054 A 
HETATM    5  C   UNL     1      43.279 -16.426   6.873  1.00  0.00     0.159 A 
HETATM    6  C   UNL     1      43.474 -17.818   4.444  1.00  0.00    -0.003 A 
HETATM    7  C   UNL     1      43.179 -15.758   3.174  1.00  0.00     0.031 A 
HETATM    8  C   UNL     1      43.580 -18.526   5.746  1.00  0.00    -0.046 A 
HETATM    9  C   UNL     1      43.574 -18.516   3.228  1.00  0.00     0.014 A 
HETATM   10  C   UNL     1      43.797 -20.012   5.784  1.00  0.00     0.049 C 
HETATM   11  C   UNL     1      43.481 -17.822   6.886  1.00  0.00     0.060 A 
HETATM   12  C   UNL     1      43.479 -17.851   2.007  1.00  0.00     0.001 A 
HETATM   13  C   UNL     1      43.283 -16.477   1.981  1.00  0.00     0.002 A 
HETATM   14  N   UNL     1      43.164 -15.590   7.882  1.00  0.00    -0.129 NA
HETATM   15  N   UNL     1      42.979 -14.340   7.367  1.00  0.00    -0.122 NA
ENDBRANCH   1   2
BRANCH   1  16
HETATM   16  C   UNL     1      42.975 -11.703   6.236  1.00  0.00     0.185 C 
BRANCH  16  17
HETATM   17  C   UNL     1      44.427 -11.245   6.257  1.00  0.00     0.227 C 
HETATM   18  N   UNL     1      44.997 -10.912   7.455  1.00  0.00    -0.360 N 
HETATM   19  H   UNL     1      45.959 -10.606   7.364  1.00  0.00     0.162 HD
HETATM   20  O   UNL     1      45.133 -11.192   5.249  1.00  0.00    -0.273 OA
BRANCH  18  21
HETATM   21  C   UNL     1      44.370 -10.913   8.766  1.00  0.00     0.127 C 
BRANCH  21  22
HETATM   22  C   UNL     1      44.886  -9.775   9.645  1.00  0.00     0.058 C 
BRANCH  22  23
HETATM   23  C   UNL     1      44.058  -9.613  10.893  1.00  0.00    -0.057 A 
HETATM   24  C   UNL     1      43.818  -8.341  11.426  1.00  0.00     0.010 A 
HETATM   25  C   UNL     1      43.067  -8.197  12.595  1.00  0.00     0.037 A 
HETATM   26  C   UNL     1      42.547  -9.315  13.251  1.00  0.00     0.068 A 
HETATM   27  C   UNL     1      42.789 -10.584  12.728  1.00  0.00     0.037 A 
HETATM   28  C   UNL     1      43.540 -10.732  11.557  1.00  0.00     0.010 A 
BRANCH  26  29
HETATM   29  O   UNL     1      41.831  -9.031  14.382  1.00  0.00    -0.356 OA
HETATM   30  C   UNL     1      40.818  -8.039  14.268  1.00  0.00     0.210 C 
ENDBRANCH  26  29
ENDBRANCH  22  23
ENDBRANCH  21  22
ENDBRANCH  18  21
ENDBRANCH  16  17
ENDBRANCH   1  16
TORSDOF 7
ENDMDL
MODEL 5
REMARK VINA RESULT:      -8.8      4.417      7.869
REMARK  7 active torsions:
REMARK  status: ('A' for Active; 'I' for Inactive)
REMARK    1  A    between atoms: C_12  and  S_13 
REMARK    2  A    between atoms: S_13  and  C_14 
REMARK    3  A    between atoms: C_14  and  C_15 
REMARK       I    between atoms: C_15  and  N_16 
REMARK    4  A    between atoms: N_16  and  C_17 
REMARK    5  A    between atoms: C_17  and  C_18 
REMARK    6  A    between atoms: C_18  and  C_19 
REMARK    7  A    between atoms: C_22  and  O_23 
ROOT
HETATM    1  S   UNL     1      42.377 -13.078   5.942  1.00  0.00    -0.080 SA
ENDROOT
BRANCH   1   2
HETATM    2  C   UNL     1      42.837 -14.657   6.483  1.00  0.00     0.197 A 
HETATM    3  N   UNL     1      43.118 -15.770   5.705  1.00  0.00    -0.271 N 
HETATM    4  C   UNL     1      43.157 -16.025   4.302  1.00  0.00     0.054 A 
HETATM    5  C   UNL     1      43.404 -16.754   6.646  1.00  0.00     0.159 A 
HETATM    6  C   UNL     1      43.498 -17.343   3.903  1.00  0.00    -0.003 A 
HETATM    7  C   UNL     1      42.883 -15.055   3.332  1.00  0.00     0.031 A 
HETATM    8  C   UNL     1      43.798 -18.380   4.923  1.00  0.00    -0.046 A 
HETATM    9  C   UNL     1      43.549 -17.639   2.531  1.00  0.00     0.014 A 
HETATM   10  C   UNL     1      44.162 -19.776   4.500  1.00  0.00     0.049 C 
HETATM   11  C   UNL     1      43.742 -18.057   6.226  1.00  0.00     0.060 A 
HETATM   12  C   UNL     1      43.271 -16.664   1.574  1.00  0.00     0.001 A 
HETATM   13  C   UNL     1      42.940 -15.377   1.974  1.00  0.00     0.002 A 
HETATM   14  N   UNL     1      43.305 -16.268   7.864  1.00  0.00    -0.129 NA
HETATM   15  N   UNL     1      42.951 -14.955   7.761  1.00  0.00    -0.122 NA
ENDBRANCH   1   2
BRANCH   1  16
HETATM   16  C   UNL     1      40.568 -13.254   5.883  1.00  0.00     0.185 C 
BRANCH  16  17
HETATM   17  C   UNL     1      39.925 -11.952   5.428  1.00  0.00     0.227 C 
HETATM   18  N   UNL     1      39.550 -11.823   4.119  1.00  0.00    -0.360 N 
HETATM   19  H   UNL     1      39.146 -10.916   3.910  1.00  0.00     0.162 HD
HETATM   20  O   UNL     1      39.689 -11.012   6.190  1.00  0.00    -0.273 OA
BRANCH  18  21
HETATM   21  C   UNL     1      39.710 -12.794   3.050  1.00  0.00     0.127 C 
BRANCH  21  22
HETATM   22  C   UNL     1      40.793 -12.374   2.057  1.00  0.00     0.058 C 
BRANCH  22  23
HETATM   23  C   UNL     1      40.497 -12.869   0.665  1.00  0.00    -0.057 A 
HETATM   24  C   UNL     1      40.802 -12.079  -0.449  1.00  0.00     0.010 A 
HETATM   25  C   UNL     1      40.508 -12.532  -1.736  1.00  0.00     0.037 A 
HETATM   26  C   UNL     1      39.902 -13.775  -1.934  1.00  0.00     0.068 A 
HETATM   27  C   UNL     1      39.590 -14.563  -0.828  1.00  0.00     0.037 A 
HETATM   28  C   UNL     1      39.885 -14.112   0.464  1.00  0.00     0.010 A 
BRANCH  26  29
HETATM   29  O   UNL     1      39.671 -14.095  -3.244  1.00  0.00    -0.356 OA
HETATM   30  C   UNL     1      38.401 -14.656  -3.554  1.00  0.00     0.210 C 
ENDBRANCH  26  29
ENDBRANCH  22  23
ENDBRANCH  21  22
ENDBRANCH  18  21
ENDBRANCH  16  17
ENDBRANCH   1  16
TORSDOF 7
ENDMDL
MODEL 6
REMARK VINA RESULT:      -8.7      3.952      8.370
REMARK  7 active torsions:
REMARK  status: ('A' for Active; 'I' for Inactive)
REMARK    1  A    between atoms: C_12  and  S_13 
REMARK    2  A    between atoms: S_13  and  C_14 
REMARK    3  A    between atoms: C_14  and  C_15 
REMARK       I    between atoms: C_15  and  N_16 
REMARK    4  A    between atoms: N_16  and  C_17 
REMARK    5  A    between atoms: C_17  and  C_18 
REMARK    6  A    between atoms: C_18  and  C_19 
REMARK    7  A    between atoms: C_22  and  O_23 
ROOT
HETATM    1  S   UNL     1      41.766 -10.797   3.380  1.00  0.00    -0.080 SA
ENDROOT
BRANCH   1   2
HETATM    2  C   UNL     1      41.564 -10.809   1.661  1.00  0.00     0.197 A 
HETATM    3  N   UNL     1      41.118 -11.856   0.868  1.00  0.00    -0.271 N 
HETATM    4  C   UNL     1      40.677 -13.188   1.126  1.00  0.00     0.054 A 
HETATM    5  C   UNL     1      41.170 -11.329  -0.418  1.00  0.00     0.159 A 
HETATM    6  C   UNL     1      40.297 -13.963   0.001  1.00  0.00    -0.003 A 
HETATM    7  C   UNL     1      40.605 -13.744   2.409  1.00  0.00     0.031 A 
HETATM    8  C   UNL     1      40.362 -13.382  -1.365  1.00  0.00    -0.046 A 
HETATM    9  C   UNL     1      39.856 -15.281   0.208  1.00  0.00     0.014 A 
HETATM   10  C   UNL     1      39.957 -14.203  -2.557  1.00  0.00     0.049 C 
HETATM   11  C   UNL     1      40.787 -12.117  -1.522  1.00  0.00     0.060 A 
HETATM   12  C   UNL     1      39.791 -15.824   1.490  1.00  0.00     0.001 A 
HETATM   13  C   UNL     1      40.163 -15.057   2.586  1.00  0.00     0.002 A 
HETATM   14  N   UNL     1      41.603 -10.087  -0.388  1.00  0.00    -0.129 NA
HETATM   15  N   UNL     1      41.848  -9.763   0.914  1.00  0.00    -0.122 NA
ENDBRANCH   1   2
BRANCH   1  16
HETATM   16  C   UNL     1      43.438 -11.497   3.528  1.00  0.00     0.185 C 
BRANCH  16  17
HETATM   17  C   UNL     1      43.834 -11.612   4.994  1.00  0.00     0.227 C 
HETATM   18  N   UNL     1      43.609 -12.792   5.648  1.00  0.00    -0.360 N 
HETATM   19  H   UNL     1      43.892 -12.766   6.621  1.00  0.00     0.162 HD
HETATM   20  O   UNL     1      44.385 -10.704   5.618  1.00  0.00    -0.273 OA
BRANCH  18  21
HETATM   21  C   UNL     1      42.992 -13.997   5.118  1.00  0.00     0.127 C 
BRANCH  21  22
HETATM   22  C   UNL     1      43.469 -15.250   5.851  1.00  0.00     0.058 C 
BRANCH  22  23
HETATM   23  C   UNL     1      43.586 -16.430   4.921  1.00  0.00    -0.057 A 
HETATM   24  C   UNL     1      44.053 -17.662   5.393  1.00  0.00     0.010 A 
HETATM   25  C   UNL     1      44.178 -18.748   4.524  1.00  0.00     0.037 A 
HETATM   26  C   UNL     1      43.845 -18.623   3.173  1.00  0.00     0.068 A 
HETATM   27  C   UNL     1      43.386 -17.396   2.697  1.00  0.00     0.037 A 
HETATM   28  C   UNL     1      43.258 -16.307   3.565  1.00  0.00     0.010 A 
BRANCH  26  29
HETATM   29  O   UNL     1      44.015 -19.763   2.435  1.00  0.00    -0.356 OA
HETATM   30  C   UNL     1      43.846 -21.000   3.117  1.00  0.00     0.210 C 
ENDBRANCH  26  29
ENDBRANCH  22  23
ENDBRANCH  21  22
ENDBRANCH  18  21
ENDBRANCH  16  17
ENDBRANCH   1  16
TORSDOF 7
ENDMDL
MODEL 7
REMARK VINA RESULT:      -8.7      2.964      5.899
REMARK  7 active torsions:
REMARK  status: ('A' for Active; 'I' for Inactive)
REMARK    1  A    between atoms: C_12  and  S_13 
REMARK    2  A    between atoms: S_13  and  C_14 
REMARK    3  A    between atoms: C_14  and  C_15 
REMARK       I    between atoms: C_15  and  N_16 
REMARK    4  A    between atoms: N_16  and  C_17 
REMARK    5  A    between atoms: C_17  and  C_18 
REMARK    6  A    between atoms: C_18  and  C_19 
REMARK    7  A    between atoms: C_22  and  O_23 
ROOT
HETATM    1  S   UNL     1      42.660 -14.110   6.787  1.00  0.00    -0.080 SA
ENDROOT
BRANCH   1   2
HETATM    2  C   UNL     1      43.054 -15.786   6.604  1.00  0.00     0.197 A 
HETATM    3  N   UNL     1      43.229 -16.490   5.423  1.00  0.00    -0.271 N 
HETATM    4  C   UNL     1      43.180 -16.149   4.038  1.00  0.00     0.054 A 
HETATM    5  C   UNL     1      43.506 -17.782   5.858  1.00  0.00     0.159 A 
HETATM    6  C   UNL     1      43.422 -17.197   3.115  1.00  0.00    -0.003 A 
HETATM    7  C   UNL     1      42.912 -14.858   3.569  1.00  0.00     0.031 A 
HETATM    8  C   UNL     1      43.714 -18.571   3.600  1.00  0.00    -0.046 A 
HETATM    9  C   UNL     1      43.383 -16.907   1.740  1.00  0.00     0.014 A 
HETATM   10  C   UNL     1      43.973 -19.681   2.620  1.00  0.00     0.049 C 
HETATM   11  C   UNL     1      43.744 -18.808   4.922  1.00  0.00     0.060 A 
HETATM   12  C   UNL     1      43.113 -15.617   1.285  1.00  0.00     0.001 A 
HETATM   13  C   UNL     1      42.879 -14.597   2.198  1.00  0.00     0.002 A 
HETATM   14  N   UNL     1      43.500 -17.835   7.172  1.00  0.00    -0.129 NA
HETATM   15  N   UNL     1      43.217 -16.584   7.638  1.00  0.00    -0.122 NA
ENDBRANCH   1   2
BRANCH   1  16
HETATM   16  C   UNL     1      44.303 -13.354   6.595  1.00  0.00     0.185 C 
BRANCH  16  17
HETATM   17  C   UNL     1      44.261 -11.888   7.004  1.00  0.00     0.227 C 
HETATM   18  N   UNL     1      43.803 -10.964   6.105  1.00  0.00    -0.360 N 
HETATM   19  H   UNL     1      43.827 -10.016   6.465  1.00  0.00     0.162 HD
HETATM   20  O   UNL     1      44.588 -11.489   8.124  1.00  0.00    -0.273 OA
BRANCH  18  21
HETATM   21  C   UNL     1      43.352 -11.199   4.744  1.00  0.00     0.127 C 
BRANCH  21  22
HETATM   22  C   UNL     1      41.949 -10.643   4.504  1.00  0.00     0.058 C 
BRANCH  22  23
HETATM   23  C   UNL     1      41.299 -11.270   3.298  1.00  0.00    -0.057 A 
HETATM   24  C   UNL     1      40.214 -12.140   3.448  1.00  0.00     0.010 A 
HETATM   25  C   UNL     1      39.627 -12.734   2.329  1.00  0.00     0.037 A 
HETATM   26  C   UNL     1      40.113 -12.475   1.046  1.00  0.00     0.068 A 
HETATM   27  C   UNL     1      41.198 -11.614   0.891  1.00  0.00     0.037 A 
HETATM   28  C   UNL     1      41.788 -11.017   2.010  1.00  0.00     0.010 A 
BRANCH  26  29
HETATM   29  O   UNL     1      39.446 -13.121   0.041  1.00  0.00    -0.356 OA
HETATM   30  C   UNL     1      39.919 -14.414  -0.317  1.00  0.00     0.210 C 
ENDBRANCH  26  29
ENDBRANCH  22  23
ENDBRANCH  21  22
ENDBRANCH  18  21
ENDBRANCH  16  17
ENDBRANCH   1  16
TORSDOF 7
ENDMDL
MODEL 8
REMARK VINA RESULT:      -8.6      2.786      4.418
REMARK  7 active torsions:
REMARK  status: ('A' for Active; 'I' for Inactive)
REMARK    1  A    between atoms: C_12  and  S_13 
REMARK    2  A    between atoms: S_13  and  C_14 
REMARK    3  A    between atoms: C_14  and  C_15 
REMARK       I    between atoms: C_15  and  N_16 
REMARK    4  A    between atoms: N_16  and  C_17 
REMARK    5  A    between atoms: C_17  and  C_18 
REMARK    6  A    between atoms: C_18  and  C_19 
REMARK    7  A    between atoms: C_22  and  O_23 
ROOT
HETATM    1  S   UNL     1      40.138 -14.405   2.088  1.00  0.00    -0.080 SA
ENDROOT
BRANCH   1   2
HETATM    2  C   UNL     1      40.609 -14.277   3.748  1.00  0.00     0.197 A 
HETATM    3  N   UNL     1      41.508 -15.077   4.437  1.00  0.00    -0.271 N 
HETATM    4  C   UNL     1      42.328 -16.191   4.087  1.00  0.00     0.054 A 
HETATM    5  C   UNL     1      41.489 -14.546   5.723  1.00  0.00     0.159 A 
HETATM    6  C   UNL     1      43.127 -16.744   5.119  1.00  0.00    -0.003 A 
HETATM    7  C   UNL     1      42.374 -16.742   2.801  1.00  0.00     0.031 A 
HETATM    8  C   UNL     1      43.091 -16.164   6.487  1.00  0.00    -0.046 A 
HETATM    9  C   UNL     1      43.950 -17.842   4.819  1.00  0.00     0.014 A 
HETATM   10  C   UNL     1      43.941 -16.748   7.580  1.00  0.00     0.049 C 
HETATM   11  C   UNL     1      42.293 -15.112   6.734  1.00  0.00     0.060 A 
HETATM   12  C   UNL     1      43.986 -18.384   3.535  1.00  0.00     0.001 A 
HETATM   13  C   UNL     1      43.201 -17.835   2.530  1.00  0.00     0.002 A 
HETATM   14  N   UNL     1      40.661 -13.526   5.787  1.00  0.00    -0.129 NA
HETATM   15  N   UNL     1      40.111 -13.358   4.549  1.00  0.00    -0.122 NA
ENDBRANCH   1   2
BRANCH   1  16
HETATM   16  C   UNL     1      41.551 -13.603   1.272  1.00  0.00     0.185 C 
BRANCH  16  17
HETATM   17  C   UNL     1      41.209 -12.162   0.920  1.00  0.00     0.227 C 
HETATM   18  N   UNL     1      41.733 -11.154   1.681  1.00  0.00    -0.360 N 
HETATM   19  H   UNL     1      41.437 -10.233   1.378  1.00  0.00     0.162 HD
HETATM   20  O   UNL     1      40.509 -11.850  -0.045  1.00  0.00    -0.273 OA
BRANCH  18  21
HETATM   21  C   UNL     1      42.591 -11.277   2.848  1.00  0.00     0.127 C 
BRANCH  21  22
HETATM   22  C   UNL     1      42.045 -10.495   4.042  1.00  0.00     0.058 C 
BRANCH  22  23
HETATM   23  C   UNL     1      42.857 -10.736   5.287  1.00  0.00    -0.057 A 
HETATM   24  C   UNL     1      42.591 -10.019   6.459  1.00  0.00     0.010 A 
HETATM   25  C   UNL     1      43.360 -10.231   7.605  1.00  0.00     0.037 A 
HETATM   26  C   UNL     1      44.406 -11.157   7.602  1.00  0.00     0.068 A 
HETATM   27  C   UNL     1      44.679 -11.870   6.435  1.00  0.00     0.037 A 
HETATM   28  C   UNL     1      43.910 -11.659   5.285  1.00  0.00     0.010 A 
BRANCH  26  29
HETATM   29  O   UNL     1      45.075 -11.266   8.790  1.00  0.00    -0.356 OA
HETATM   30  C   UNL     1      45.274 -10.067   9.528  1.00  0.00     0.210 C 
ENDBRANCH  26  29
ENDBRANCH  22  23
ENDBRANCH  21  22
ENDBRANCH  18  21
ENDBRANCH  16  17
ENDBRANCH   1  16
TORSDOF 7
ENDMDL
MODEL 9
REMARK VINA RESULT:      -8.5      2.578      4.151
REMARK  7 active torsions:
REMARK  status: ('A' for Active; 'I' for Inactive)
REMARK    1  A    between atoms: C_12  and  S_13 
REMARK    2  A    between atoms: S_13  and  C_14 
REMARK    3  A    between atoms: C_14  and  C_15 
REMARK       I    between atoms: C_15  and  N_16 
REMARK    4  A    between atoms: N_16  and  C_17 
REMARK    5  A    between atoms: C_17  and  C_18 
REMARK    6  A    between atoms: C_18  and  C_19 
REMARK    7  A    between atoms: C_22  and  O_23 
ROOT
HETATM    1  S   UNL     1      40.161 -13.279   4.604  1.00  0.00    -0.080 SA
ENDROOT
BRANCH   1   2
HETATM    2  C   UNL     1      40.524 -14.591   3.534  1.00  0.00     0.197 A 
HETATM    3  N   UNL     1      41.525 -15.541   3.670  1.00  0.00    -0.271 N 
HETATM    4  C   UNL     1      42.532 -15.801   4.647  1.00  0.00     0.054 A 
HETATM    5  C   UNL     1      41.375 -16.327   2.532  1.00  0.00     0.159 A 
HETATM    6  C   UNL     1      43.387 -16.905   4.402  1.00  0.00    -0.003 A 
HETATM    7  C   UNL     1      42.702 -15.033   5.804  1.00  0.00     0.031 A 
HETATM    8  C   UNL     1      43.212 -17.732   3.179  1.00  0.00    -0.046 A 
HETATM    9  C   UNL     1      44.393 -17.199   5.338  1.00  0.00     0.014 A 
HETATM   10  C   UNL     1      44.117 -18.904   2.922  1.00  0.00     0.049 C 
HETATM   11  C   UNL     1      42.237 -17.421   2.310  1.00  0.00     0.060 A 
HETATM   12  C   UNL     1      44.554 -16.425   6.487  1.00  0.00     0.001 A 
HETATM   13  C   UNL     1      43.710 -15.347   6.718  1.00  0.00     0.002 A 
HETATM   14  N   UNL     1      40.378 -15.886   1.796  1.00  0.00    -0.129 NA
HETATM   15  N   UNL     1      39.845 -14.800   2.426  1.00  0.00    -0.122 NA
ENDBRANCH   1   2
BRANCH   1  16
HETATM   16  C   UNL     1      40.285 -11.868   3.464  1.00  0.00     0.185 C 
BRANCH  16  17
HETATM   17  C   UNL     1      40.790 -10.636   4.201  1.00  0.00     0.227 C 
HETATM   18  N   UNL     1      42.131 -10.363   4.189  1.00  0.00    -0.360 N 
HETATM   19  H   UNL     1      42.370  -9.532   4.719  1.00  0.00     0.162 HD
HETATM   20  O   UNL     1      40.047  -9.845   4.784  1.00  0.00    -0.273 OA
BRANCH  18  21
HETATM   21  C   UNL     1      43.188 -11.136   3.561  1.00  0.00     0.127 C 
BRANCH  21  22
HETATM   22  C   UNL     1      43.724 -12.227   4.486  1.00  0.00     0.058 C 
BRANCH  22  23
HETATM   23  C   UNL     1      44.217 -11.661   5.792  1.00  0.00    -0.057 A 
HETATM   24  C   UNL     1      45.560 -11.301   5.947  1.00  0.00     0.010 A 
HETATM   25  C   UNL     1      46.018 -10.794   7.165  1.00  0.00     0.037 A 
HETATM   26  C   UNL     1      45.148 -10.643   8.248  1.00  0.00     0.068 A 
HETATM   27  C   UNL     1      43.811 -11.007   8.100  1.00  0.00     0.037 A 
HETATM   28  C   UNL     1      43.349 -11.513   6.881  1.00  0.00     0.010 A 
BRANCH  26  29
HETATM   29  O   UNL     1      45.727 -10.136   9.379  1.00  0.00    -0.356 OA
HETATM   30  C   UNL     1      44.865  -9.873  10.479  1.00  0.00     0.210 C 
ENDBRANCH  26  29
ENDBRANCH  22  23
ENDBRANCH  21  22
ENDBRANCH  18  21
ENDBRANCH  16  17
ENDBRANCH   1  16
TORSDOF 7
ENDMDL
MODEL 10
REMARK VINA RESULT:      -8.5      1.625      2.888
REMARK  7 active torsions:
REMARK  status: ('A' for Active; 'I' for Inactive)
REMARK    1  A    between atoms: C_12  and  S_13 
REMARK    2  A    between atoms: S_13  and  C_14 
REMARK    3  A    between atoms: C_14  and  C_15 
REMARK       I    between atoms: C_15  and  N_16 
REMARK    4  A    between atoms: N_16  and  C_17 
REMARK    5  A    between atoms: C_17  and  C_18 
REMARK    6  A    between atoms: C_18  and  C_19 
REMARK    7  A    between atoms: C_22  and  O_23 
ROOT
HETATM    1  S   UNL     1      42.016 -13.112   5.157  1.00  0.00    -0.080 SA
ENDROOT
BRANCH   1   2
HETATM    2  C   UNL     1      42.361 -14.071   3.757  1.00  0.00     0.197 A 
HETATM    3  N   UNL     1      42.759 -15.399   3.718  1.00  0.00    -0.271 N 
HETATM    4  C   UNL     1      42.998 -16.401   4.705  1.00  0.00     0.054 A 
HETATM    5  C   UNL     1      42.911 -15.647   2.358  1.00  0.00     0.159 A 
HETATM    6  C   UNL     1      43.409 -17.674   4.234  1.00  0.00    -0.003 A 
HETATM    7  C   UNL     1      42.846 -16.184   6.079  1.00  0.00     0.031 A 
HETATM    8  C   UNL     1      43.569 -17.918   2.777  1.00  0.00    -0.046 A 
HETATM    9  C   UNL     1      43.657 -18.691   5.172  1.00  0.00     0.014 A 
HETATM   10  C   UNL     1      44.002 -19.268   2.279  1.00  0.00     0.049 C 
HETATM   11  C   UNL     1      43.321 -16.920   1.913  1.00  0.00     0.060 A 
HETATM   12  C   UNL     1      43.503 -18.462   6.538  1.00  0.00     0.001 A 
HETATM   13  C   UNL     1      43.098 -17.213   6.989  1.00  0.00     0.002 A 
HETATM   14  N   UNL     1      42.627 -14.570   1.659  1.00  0.00    -0.129 NA
HETATM   15  N   UNL     1      42.281 -13.584   2.537  1.00  0.00    -0.122 NA
ENDBRANCH   1   2
BRANCH   1  16
HETATM   16  C   UNL     1      43.664 -12.429   5.512  1.00  0.00     0.185 C 
BRANCH  16  17
HETATM   17  C   UNL     1      43.998 -12.597   6.987  1.00  0.00     0.227 C 
HETATM   18  N   UNL     1      44.819 -11.681   7.587  1.00  0.00    -0.360 N 
HETATM   19  H   UNL     1      44.994 -11.886   8.564  1.00  0.00     0.162 HD
HETATM   20  O   UNL     1      43.538 -13.501   7.687  1.00  0.00    -0.273 OA
BRANCH  18  21
HETATM   21  C   UNL     1      45.463 -10.531   6.974  1.00  0.00     0.127 C 
BRANCH  21  22
HETATM   22  C   UNL     1      46.156  -9.646   8.009  1.00  0.00     0.058 C 
BRANCH  22  23
HETATM   23  C   UNL     1      45.175  -9.070   8.997  1.00  0.00    -0.057 A 
HETATM   24  C   UNL     1      45.083  -9.591  10.292  1.00  0.00     0.010 A 
HETATM   25  C   UNL     1      44.159  -9.068  11.199  1.00  0.00     0.037 A 
HETATM   26  C   UNL     1      43.311  -8.021  10.829  1.00  0.00     0.068 A 
HETATM   27  C   UNL     1      43.395  -7.502   9.538  1.00  0.00     0.037 A 
HETATM   28  C   UNL     1      44.320  -8.024   8.628  1.00  0.00     0.010 A 
BRANCH  26  29
HETATM   29  O   UNL     1      42.457  -7.604  11.813  1.00  0.00    -0.356 OA
HETATM   30  C   UNL     1      41.240  -7.000  11.393  1.00  0.00     0.210 C 
ENDBRANCH  26  29
ENDBRANCH  22  23
ENDBRANCH  21  22
ENDBRANCH  18  21
ENDBRANCH  16  17
ENDBRANCH   1  16
TORSDOF 7
ENDMDL
