MODEL 1
REMARK VINA RESULT:      -7.0      0.000      0.000
REMARK  6 active torsions:
REMARK  status: ('A' for Active; 'I' for Inactive)
REMARK    1  A    between atoms: C_2  and  O_3 
REMARK    2  A    between atoms: O_3  and  C_4 
REMARK    3  A    between atoms: C_4  and  C_5 
REMARK    4  A    between atoms: C_6  and  O_7 
REMARK    5  A    between atoms: C_12  and  O_13 
REMARK    6  A    between atoms: C_17  and  C_18 
ROOT
HETATM    1  C   UNL     1      43.219 -13.622   5.527  1.00  0.00     0.133 C 
HETATM    2  C   UNL     1      43.491 -12.540   6.630  1.00  0.00     0.073 C 
HETATM    3  C   UNL     1      44.914 -11.974   6.459  1.00  0.00     0.047 C 
HETATM    4  C   UNL     1      42.454 -11.378   6.624  1.00  0.00     0.097 C 
HETATM    5  C   UNL     1      42.233 -10.926   5.234  1.00  0.00     0.042 A 
HETATM    6  C   UNL     1      42.453 -11.657   4.086  1.00  0.00     0.030 A 
HETATM    7  C   UNL     1      42.167 -10.735   3.064  1.00  0.00     0.190 A 
HETATM    8  N   UNL     1      41.786  -9.544   3.511  1.00  0.00    -0.149 NA
HETATM    9  N   UNL     1      41.820  -9.685   4.847  1.00  0.00    -0.279 N 
HETATM   10  H   UNL     1      41.571  -8.885   5.420  1.00  0.00     0.189 HD
HETATM   11  C   UNL     1      42.978 -13.059   4.092  1.00  0.00     0.074 C 
ENDROOT
BRANCH  11  12
HETATM   12  C   UNL     1      42.058 -13.875   3.192  1.00  0.00    -0.048 A 
HETATM   13  C   UNL     1      42.612 -14.849   2.343  1.00  0.00     0.011 A 
HETATM   14  C   UNL     1      41.794 -15.619   1.513  1.00  0.00     0.043 A 
HETATM   15  C   UNL     1      40.418 -15.429   1.532  1.00  0.00     0.116 A 
HETATM   16  F   UNL     1      39.637 -16.169   0.734  1.00  0.00    -0.206 F 
HETATM   17  C   UNL     1      39.842 -14.484   2.368  1.00  0.00     0.043 A 
HETATM   18  C   UNL     1      40.657 -13.714   3.199  1.00  0.00     0.011 A 
ENDBRANCH  11  12
BRANCH   1  19
HETATM   19  C   UNL     1      42.121 -14.559   5.986  1.00  0.00     0.267 C 
HETATM   20  O   UNL     1      41.092 -14.207   6.548  1.00  0.00    -0.265 OA
BRANCH  19  21
HETATM   21  O   UNL     1      42.480 -15.849   5.731  1.00  0.00    -0.316 OA
BRANCH  21  22
HETATM   22  C   UNL     1      43.845 -16.213   6.006  1.00  0.00     0.123 C 
HETATM   23  C   UNL     1      44.293 -17.306   5.040  1.00  0.00     0.040 C 
HETATM   24  C   UNL     1      43.883 -16.724   7.441  1.00  0.00     0.040 C 
ENDBRANCH  21  22
ENDBRANCH  19  21
ENDBRANCH   1  19
BRANCH   2  25
HETATM   25  O   UNL     1      43.496 -13.149   7.934  1.00  0.00    -0.389 OA
HETATM   26  H   UNL     1      43.468 -14.119   7.816  1.00  0.00     0.210 HD
ENDBRANCH   2  25
BRANCH   7  27
HETATM   27  O   UNL     1      42.229 -10.880   1.739  1.00  0.00    -0.343 OA
HETATM   28  H   UNL     1      41.633 -10.245   1.314  1.00  0.00     0.219 HD
ENDBRANCH   7  27
TORSDOF 6
ENDMDL
MODEL 2
REMARK VINA RESULT:      -7.0      2.735      5.041
REMARK  6 active torsions:
REMARK  status: ('A' for Active; 'I' for Inactive)
REMARK    1  A    between atoms: C_2  and  O_3 
REMARK    2  A    between atoms: O_3  and  C_4 
REMARK    3  A    between atoms: C_4  and  C_5 
REMARK    4  A    between atoms: C_6  and  O_7 
REMARK    5  A    between atoms: C_12  and  O_13 
REMARK    6  A    between atoms: C_17  and  C_18 
ROOT
HETATM    1  C   UNL     1      41.568 -13.908   3.648  1.00  0.00     0.133 C 
HETATM    2  C   UNL     1      41.522 -12.530   4.396  1.00  0.00     0.073 C 
HETATM    3  C   UNL     1      40.148 -12.355   5.072  1.00  0.00     0.047 C 
HETATM    4  C   UNL     1      42.656 -12.363   5.451  1.00  0.00     0.097 C 
HETATM    5  C   UNL     1      42.764 -13.597   6.255  1.00  0.00     0.042 A 
HETATM    6  C   UNL     1      42.351 -14.860   5.885  1.00  0.00     0.030 A 
HETATM    7  C   UNL     1      42.607 -15.627   7.035  1.00  0.00     0.190 A 
HETATM    8  N   UNL     1      43.145 -14.932   8.031  1.00  0.00    -0.149 NA
HETATM    9  N   UNL     1      43.246 -13.690   7.528  1.00  0.00    -0.279 N 
HETATM   10  H   UNL     1      43.630 -12.962   8.122  1.00  0.00     0.189 HD
HETATM   11  C   UNL     1      41.701 -15.159   4.570  1.00  0.00     0.074 C 
ENDROOT
BRANCH  11  12
HETATM   12  C   UNL     1      42.435 -16.358   3.982  1.00  0.00    -0.048 A 
HETATM   13  C   UNL     1      41.864 -17.053   2.902  1.00  0.00     0.011 A 
HETATM   14  C   UNL     1      42.518 -18.150   2.334  1.00  0.00     0.043 A 
HETATM   15  C   UNL     1      43.749 -18.553   2.835  1.00  0.00     0.116 A 
HETATM   16  F   UNL     1      44.372 -19.606   2.289  1.00  0.00    -0.206 F 
HETATM   17  C   UNL     1      44.343 -17.880   3.892  1.00  0.00     0.043 A 
HETATM   18  C   UNL     1      43.692 -16.783   4.459  1.00  0.00     0.011 A 
ENDBRANCH  11  12
BRANCH   1  19
HETATM   19  C   UNL     1      42.617 -13.865   2.557  1.00  0.00     0.267 C 
HETATM   20  O   UNL     1      43.751 -13.425   2.695  1.00  0.00    -0.265 OA
BRANCH  19  21
HETATM   21  O   UNL     1      42.089 -14.334   1.391  1.00  0.00    -0.316 OA
BRANCH  21  22
HETATM   22  C   UNL     1      40.779 -13.861   1.031  1.00  0.00     0.123 C 
HETATM   23  C   UNL     1      40.040 -14.935   0.238  1.00  0.00     0.040 C 
HETATM   24  C   UNL     1      40.982 -12.615   0.177  1.00  0.00     0.040 C 
ENDBRANCH  21  22
ENDBRANCH  19  21
ENDBRANCH   1  19
BRANCH   2  25
HETATM   25  O   UNL     1      41.604 -11.447   3.453  1.00  0.00    -0.389 OA
HETATM   26  H   UNL     1      41.075 -11.690   2.666  1.00  0.00     0.210 HD
ENDBRANCH   2  25
BRANCH   7  27
HETATM   27  O   UNL     1      42.386 -16.922   7.266  1.00  0.00    -0.343 OA
HETATM   28  H   UNL     1      41.729 -17.257   6.638  1.00  0.00     0.219 HD
ENDBRANCH   7  27
TORSDOF 6
ENDMDL
MODEL 3
REMARK VINA RESULT:      -6.9      2.531      4.560
REMARK  6 active torsions:
REMARK  status: ('A' for Active; 'I' for Inactive)
REMARK    1  A    between atoms: C_2  and  O_3 
REMARK    2  A    between atoms: O_3  and  C_4 
REMARK    3  A    between atoms: C_4  and  C_5 
REMARK    4  A    between atoms: C_6  and  O_7 
REMARK    5  A    between atoms: C_12  and  O_13 
REMARK    6  A    between atoms: C_17  and  C_18 
ROOT
HETATM    1  C   UNL     1      41.199 -14.167   2.741  1.00  0.00     0.133 C 
HETATM    2  C   UNL     1      41.125 -13.140   1.558  1.00  0.00     0.073 C 
HETATM    3  C   UNL     1      39.659 -12.724   1.326  1.00  0.00     0.047 C 
HETATM    4  C   UNL     1      42.005 -11.875   1.782  1.00  0.00     0.097 C 
HETATM    5  C   UNL     1      41.807 -11.378   3.160  1.00  0.00     0.042 A 
HETATM    6  C   UNL     1      41.363 -12.107   4.242  1.00  0.00     0.030 A 
HETATM    7  C   UNL     1      41.278 -11.143   5.261  1.00  0.00     0.190 A 
HETATM    8  N   UNL     1      41.646  -9.926   4.876  1.00  0.00    -0.149 NA
HETATM    9  N   UNL     1      41.980 -10.094   3.585  1.00  0.00    -0.279 N 
HETATM   10  H   UNL     1      42.293  -9.282   3.061  1.00  0.00     0.189 HD
HETATM   11  C   UNL     1      40.996 -13.557   4.162  1.00  0.00     0.074 C 
ENDROOT
BRANCH  11  12
HETATM   12  C   UNL     1      41.720 -14.255   5.307  1.00  0.00    -0.048 A 
HETATM   13  C   UNL     1      41.058 -15.265   6.027  1.00  0.00     0.011 A 
HETATM   14  C   UNL     1      41.699 -15.930   7.075  1.00  0.00     0.043 A 
HETATM   15  C   UNL     1      43.006 -15.598   7.406  1.00  0.00     0.116 A 
HETATM   16  F   UNL     1      43.617 -16.237   8.412  1.00  0.00    -0.206 F 
HETATM   17  C   UNL     1      43.689 -14.614   6.707  1.00  0.00     0.043 A 
HETATM   18  C   UNL     1      43.052 -13.949   5.658  1.00  0.00     0.011 A 
ENDBRANCH  11  12
BRANCH   1  19
HETATM   19  C   UNL     1      42.465 -14.991   2.627  1.00  0.00     0.267 C 
HETATM   20  O   UNL     1      43.564 -14.546   2.323  1.00  0.00    -0.265 OA
BRANCH  19  21
HETATM   21  O   UNL     1      42.182 -16.305   2.857  1.00  0.00    -0.316 OA
BRANCH  21  22
HETATM   22  C   UNL     1      43.293 -17.220   2.868  1.00  0.00     0.123 C 
HETATM   23  C   UNL     1      42.899 -18.521   2.176  1.00  0.00     0.040 C 
HETATM   24  C   UNL     1      43.634 -17.478   4.331  1.00  0.00     0.040 C 
ENDBRANCH  21  22
ENDBRANCH  19  21
ENDBRANCH   1  19
BRANCH   2  25
HETATM   25  O   UNL     1      41.523 -13.769   0.326  1.00  0.00    -0.389 OA
HETATM   26  H   UNL     1      42.089 -13.141  -0.165  1.00  0.00     0.210 HD
ENDBRANCH   2  25
BRANCH   7  27
HETATM   27  O   UNL     1      40.882 -11.270   6.529  1.00  0.00    -0.343 OA
HETATM   28  H   UNL     1      40.216 -10.596   6.731  1.00  0.00     0.219 HD
ENDBRANCH   7  27
TORSDOF 6
ENDMDL
MODEL 4
REMARK VINA RESULT:      -6.7     16.375     17.399
REMARK  6 active torsions:
REMARK  status: ('A' for Active; 'I' for Inactive)
REMARK    1  A    between atoms: C_2  and  O_3 
REMARK    2  A    between atoms: O_3  and  C_4 
REMARK    3  A    between atoms: C_4  and  C_5 
REMARK    4  A    between atoms: C_6  and  O_7 
REMARK    5  A    between atoms: C_12  and  O_13 
REMARK    6  A    between atoms: C_17  and  C_18 
ROOT
HETATM    1  C   UNL     1      47.037 -30.073   0.085  1.00  0.00     0.133 C 
HETATM    2  C   UNL     1      48.179 -29.328  -0.690  1.00  0.00     0.073 C 
HETATM    3  C   UNL     1      48.839 -30.293  -1.693  1.00  0.00     0.047 C 
HETATM    4  C   UNL     1      47.690 -28.048  -1.430  1.00  0.00     0.097 C 
HETATM    5  C   UNL     1      46.433 -28.347  -2.146  1.00  0.00     0.042 A 
HETATM    6  C   UNL     1      45.540 -29.357  -1.856  1.00  0.00     0.030 A 
HETATM    7  C   UNL     1      44.587 -29.242  -2.883  1.00  0.00     0.190 A 
HETATM    8  N   UNL     1      44.833 -28.250  -3.731  1.00  0.00    -0.149 NA
HETATM    9  N   UNL     1      45.964 -27.703  -3.254  1.00  0.00    -0.279 N 
HETATM   10  H   UNL     1      46.363 -26.914  -3.752  1.00  0.00     0.189 HD
HETATM   11  C   UNL     1      45.739 -30.334  -0.739  1.00  0.00     0.074 C 
ENDROOT
BRANCH  11  12
HETATM   12  C   UNL     1      44.435 -30.369   0.048  1.00  0.00    -0.048 A 
HETATM   13  C   UNL     1      43.961 -31.597   0.542  1.00  0.00     0.011 A 
HETATM   14  C   UNL     1      42.774 -31.660   1.276  1.00  0.00     0.043 A 
HETATM   15  C   UNL     1      42.057 -30.497   1.529  1.00  0.00     0.116 A 
HETATM   16  F   UNL     1      40.919 -30.562   2.232  1.00  0.00    -0.206 F 
HETATM   17  C   UNL     1      42.505 -29.270   1.065  1.00  0.00     0.043 A 
HETATM   18  C   UNL     1      43.692 -29.204   0.333  1.00  0.00     0.011 A 
ENDBRANCH  11  12
BRANCH   1  19
HETATM   19  C   UNL     1      46.772 -29.377   1.403  1.00  0.00     0.267 C 
HETATM   20  O   UNL     1      46.617 -28.170   1.537  1.00  0.00    -0.265 OA
BRANCH  19  21
HETATM   21  O   UNL     1      46.788 -30.288   2.417  1.00  0.00    -0.316 OA
BRANCH  21  22
HETATM   22  C   UNL     1      47.372 -29.867   3.663  1.00  0.00     0.123 C 
HETATM   23  C   UNL     1      48.893 -29.934   3.570  1.00  0.00     0.040 C 
HETATM   24  C   UNL     1      46.862 -30.826   4.733  1.00  0.00     0.040 C 
ENDBRANCH  21  22
ENDBRANCH  19  21
ENDBRANCH   1  19
BRANCH   2  25
HETATM   25  O   UNL     1      49.239 -28.964   0.214  1.00  0.00    -0.389 OA
HETATM   26  H   UNL     1      48.833 -28.672   1.054  1.00  0.00     0.210 HD
ENDBRANCH   2  25
BRANCH   7  27
HETATM   27  O   UNL     1      43.498 -29.974  -3.126  1.00  0.00    -0.343 OA
HETATM   28  H   UNL     1      43.711 -30.915  -3.034  1.00  0.00     0.219 HD
ENDBRANCH   7  27
TORSDOF 6
ENDMDL
MODEL 5
REMARK VINA RESULT:      -6.7      2.703      3.924
REMARK  6 active torsions:
REMARK  status: ('A' for Active; 'I' for Inactive)
REMARK    1  A    between atoms: C_2  and  O_3 
REMARK    2  A    between atoms: O_3  and  C_4 
REMARK    3  A    between atoms: C_4  and  C_5 
REMARK    4  A    between atoms: C_6  and  O_7 
REMARK    5  A    between atoms: C_12  and  O_13 
REMARK    6  A    between atoms: C_17  and  C_18 
ROOT
HETATM    1  C   UNL     1      41.520 -12.166   3.146  1.00  0.00     0.133 C 
HETATM    2  C   UNL     1      40.515 -10.962   3.160  1.00  0.00     0.073 C 
HETATM    3  C   UNL     1      41.101  -9.791   2.347  1.00  0.00     0.047 C 
HETATM    4  C   UNL     1      39.104 -11.329   2.616  1.00  0.00     0.097 C 
HETATM    5  C   UNL     1      39.246 -12.113   1.371  1.00  0.00     0.042 A 
HETATM    6  C   UNL     1      40.345 -12.850   0.983  1.00  0.00     0.030 A 
HETATM    7  C   UNL     1      39.984 -13.308  -0.295  1.00  0.00     0.190 A 
HETATM    8  N   UNL     1      38.774 -12.921  -0.679  1.00  0.00    -0.149 NA
HETATM    9  N   UNL     1      38.331 -12.199   0.363  1.00  0.00    -0.279 N 
HETATM   10  H   UNL     1      37.408 -11.780   0.300  1.00  0.00     0.189 HD
HETATM   11  C   UNL     1      41.597 -12.950   1.799  1.00  0.00     0.074 C 
ENDROOT
BRANCH  11  12
HETATM   12  C   UNL     1      41.937 -14.432   1.898  1.00  0.00    -0.048 A 
HETATM   13  C   UNL     1      43.275 -14.842   1.769  1.00  0.00     0.011 A 
HETATM   14  C   UNL     1      43.619 -16.193   1.865  1.00  0.00     0.043 A 
HETATM   15  C   UNL     1      42.632 -17.141   2.100  1.00  0.00     0.116 A 
HETATM   16  F   UNL     1      42.966 -18.435   2.190  1.00  0.00    -0.206 F 
HETATM   17  C   UNL     1      41.305 -16.766   2.243  1.00  0.00     0.043 A 
HETATM   18  C   UNL     1      40.958 -15.417   2.149  1.00  0.00     0.011 A 
ENDBRANCH  11  12
BRANCH   1  19
HETATM   19  C   UNL     1      41.262 -13.064   4.338  1.00  0.00     0.267 C 
HETATM   20  O   UNL     1      40.152 -13.381   4.747  1.00  0.00    -0.265 OA
BRANCH  19  21
HETATM   21  O   UNL     1      42.446 -13.415   4.916  1.00  0.00    -0.316 OA
BRANCH  21  22
HETATM   22  C   UNL     1      42.383 -14.319   6.034  1.00  0.00     0.123 C 
HETATM   23  C   UNL     1      43.368 -13.877   7.112  1.00  0.00     0.040 C 
HETATM   24  C   UNL     1      42.758 -15.698   5.504  1.00  0.00     0.040 C 
ENDBRANCH  21  22
ENDBRANCH  19  21
ENDBRANCH   1  19
BRANCH   2  25
HETATM   25  O   UNL     1      40.377 -10.443   4.495  1.00  0.00    -0.389 OA
HETATM   26  H   UNL     1      41.195 -10.654   4.988  1.00  0.00     0.210 HD
ENDBRANCH   2  25
BRANCH   7  27
HETATM   27  O   UNL     1      40.672 -14.055  -1.162  1.00  0.00    -0.343 OA
HETATM   28  H   UNL     1      40.693 -13.615  -2.025  1.00  0.00     0.219 HD
ENDBRANCH   7  27
TORSDOF 6
ENDMDL
MODEL 6
REMARK VINA RESULT:      -6.5      2.909      5.883
REMARK  6 active torsions:
REMARK  status: ('A' for Active; 'I' for Inactive)
REMARK    1  A    between atoms: C_2  and  O_3 
REMARK    2  A    between atoms: O_3  and  C_4 
REMARK    3  A    between atoms: C_4  and  C_5 
REMARK    4  A    between atoms: C_6  and  O_7 
REMARK    5  A    between atoms: C_12  and  O_13 
REMARK    6  A    between atoms: C_17  and  C_18 
ROOT
HETATM    1  C   UNL     1      39.315 -12.587   1.224  1.00  0.00     0.133 C 
HETATM    2  C   UNL     1      38.703 -11.144   1.278  1.00  0.00     0.073 C 
HETATM    3  C   UNL     1      37.177 -11.237   1.469  1.00  0.00     0.047 C 
HETATM    4  C   UNL     1      39.323 -10.252   2.393  1.00  0.00     0.097 C 
HETATM    5  C   UNL     1      39.410 -11.027   3.649  1.00  0.00     0.042 A 
HETATM    6  C   UNL     1      39.446 -12.400   3.768  1.00  0.00     0.030 A 
HETATM    7  C   UNL     1      39.442 -12.597   5.159  1.00  0.00     0.190 A 
HETATM    8  N   UNL     1      39.425 -11.469   5.859  1.00  0.00    -0.149 NA
HETATM    9  N   UNL     1      39.419 -10.514   4.913  1.00  0.00    -0.279 N 
HETATM   10  H   UNL     1      39.397  -9.544   5.210  1.00  0.00     0.189 HD
HETATM   11  C   UNL     1      39.386 -13.328   2.595  1.00  0.00     0.074 C 
ENDROOT
BRANCH  11  12
HETATM   12  C   UNL     1      40.528 -14.323   2.766  1.00  0.00    -0.048 A 
HETATM   13  C   UNL     1      41.751 -13.884   3.302  1.00  0.00     0.011 A 
HETATM   14  C   UNL     1      42.813 -14.774   3.480  1.00  0.00     0.043 A 
HETATM   15  C   UNL     1      42.657 -16.110   3.133  1.00  0.00     0.116 A 
HETATM   16  F   UNL     1      43.678 -16.960   3.304  1.00  0.00    -0.206 F 
HETATM   17  C   UNL     1      41.459 -16.576   2.613  1.00  0.00     0.043 A 
HETATM   18  C   UNL     1      40.396 -15.689   2.436  1.00  0.00     0.011 A 
ENDBRANCH  11  12
BRANCH   1  19
HETATM   19  C   UNL     1      40.644 -12.554   0.500  1.00  0.00     0.267 C 
HETATM   20  O   UNL     1      41.522 -11.722   0.688  1.00  0.00    -0.265 OA
BRANCH  19  21
HETATM   21  O   UNL     1      40.689 -13.553  -0.427  1.00  0.00    -0.316 OA
BRANCH  21  22
HETATM   22  C   UNL     1      39.787 -13.449  -1.543  1.00  0.00     0.123 C 
HETATM   23  C   UNL     1      39.142 -14.804  -1.816  1.00  0.00     0.040 C 
HETATM   24  C   UNL     1      40.619 -13.006  -2.741  1.00  0.00     0.040 C 
ENDBRANCH  21  22
ENDBRANCH  19  21
ENDBRANCH   1  19
BRANCH   2  25
HETATM   25  O   UNL     1      38.870 -10.484   0.010  1.00  0.00    -0.389 OA
HETATM   26  H   UNL     1      39.801 -10.189  -0.057  1.00  0.00     0.210 HD
ENDBRANCH   2  25
BRANCH   7  27
HETATM   27  O   UNL     1      39.447 -13.731   5.863  1.00  0.00    -0.343 OA
HETATM   28  H   UNL     1      39.967 -13.611   6.671  1.00  0.00     0.219 HD
ENDBRANCH   7  27
TORSDOF 6
ENDMDL
MODEL 7
REMARK VINA RESULT:      -6.4     16.483     17.814
REMARK  6 active torsions:
REMARK  status: ('A' for Active; 'I' for Inactive)
REMARK    1  A    between atoms: C_2  and  O_3 
REMARK    2  A    between atoms: O_3  and  C_4 
REMARK    3  A    between atoms: C_4  and  C_5 
REMARK    4  A    between atoms: C_6  and  O_7 
REMARK    5  A    between atoms: C_12  and  O_13 
REMARK    6  A    between atoms: C_17  and  C_18 
ROOT
HETATM    1  C   UNL     1      46.405 -30.489   1.898  1.00  0.00     0.133 C 
HETATM    2  C   UNL     1      47.240 -30.660   3.215  1.00  0.00     0.073 C 
HETATM    3  C   UNL     1      47.551 -32.153   3.439  1.00  0.00     0.047 C 
HETATM    4  C   UNL     1      48.561 -29.837   3.219  1.00  0.00     0.097 C 
HETATM    5  C   UNL     1      49.249 -30.008   1.922  1.00  0.00     0.042 A 
HETATM    6  C   UNL     1      48.671 -30.372   0.725  1.00  0.00     0.030 A 
HETATM    7  C   UNL     1      49.772 -30.467  -0.143  1.00  0.00     0.190 A 
HETATM    8  N   UNL     1      50.932 -30.176   0.433  1.00  0.00    -0.149 NA
HETATM    9  N   UNL     1      50.589 -29.883   1.698  1.00  0.00    -0.279 N 
HETATM   10  H   UNL     1      51.326 -29.632   2.350  1.00  0.00     0.189 HD
HETATM   11  C   UNL     1      47.211 -30.668   0.575  1.00  0.00     0.074 C 
ENDROOT
BRANCH  11  12
HETATM   12  C   UNL     1      46.723 -29.866  -0.626  1.00  0.00    -0.048 A 
HETATM   13  C   UNL     1      45.778 -30.436  -1.497  1.00  0.00     0.011 A 
HETATM   14  C   UNL     1      45.306 -29.722  -2.602  1.00  0.00     0.043 A 
HETATM   15  C   UNL     1      45.766 -28.433  -2.838  1.00  0.00     0.116 A 
HETATM   16  F   UNL     1      45.310 -27.753  -3.898  1.00  0.00    -0.206 F 
HETATM   17  C   UNL     1      46.689 -27.841  -1.990  1.00  0.00     0.043 A 
HETATM   18  C   UNL     1      47.162 -28.551  -0.885  1.00  0.00     0.011 A 
ENDBRANCH  11  12
BRANCH   1  19
HETATM   19  C   UNL     1      45.630 -29.189   1.947  1.00  0.00     0.267 C 
HETATM   20  O   UNL     1      46.087 -28.116   2.322  1.00  0.00    -0.265 OA
BRANCH  19  21
HETATM   21  O   UNL     1      44.339 -29.407   1.567  1.00  0.00    -0.316 OA
BRANCH  21  22
HETATM   22  C   UNL     1      43.734 -30.643   1.990  1.00  0.00     0.123 C 
HETATM   23  C   UNL     1      43.007 -31.292   0.816  1.00  0.00     0.040 C 
HETATM   24  C   UNL     1      42.747 -30.292   3.098  1.00  0.00     0.040 C 
ENDBRANCH  21  22
ENDBRANCH  19  21
ENDBRANCH   1  19
BRANCH   2  25
HETATM   25  O   UNL     1      46.453 -30.278   4.357  1.00  0.00    -0.389 OA
HETATM   26  H   UNL     1      47.012 -29.726   4.940  1.00  0.00     0.210 HD
ENDBRANCH   2  25
BRANCH   7  27
HETATM   27  O   UNL     1      49.817 -30.807  -1.433  1.00  0.00    -0.343 OA
HETATM   28  H   UNL     1      50.724 -30.712  -1.762  1.00  0.00     0.219 HD
ENDBRANCH   7  27
TORSDOF 6
ENDMDL
MODEL 8
REMARK VINA RESULT:      -6.2     16.644     18.303
REMARK  6 active torsions:
REMARK  status: ('A' for Active; 'I' for Inactive)
REMARK    1  A    between atoms: C_2  and  O_3 
REMARK    2  A    between atoms: O_3  and  C_4 
REMARK    3  A    between atoms: C_4  and  C_5 
REMARK    4  A    between atoms: C_6  and  O_7 
REMARK    5  A    between atoms: C_12  and  O_13 
REMARK    6  A    between atoms: C_17  and  C_18 
ROOT
HETATM    1  C   UNL     1      46.199 -30.903  -0.668  1.00  0.00     0.133 C 
HETATM    2  C   UNL     1      45.038 -30.594  -1.675  1.00  0.00     0.073 C 
HETATM    3  C   UNL     1      44.128 -31.831  -1.810  1.00  0.00     0.047 C 
HETATM    4  C   UNL     1      44.188 -29.352  -1.276  1.00  0.00     0.097 C 
HETATM    5  C   UNL     1      43.870 -29.419   0.165  1.00  0.00     0.042 A 
HETATM    6  C   UNL     1      44.566 -30.114   1.131  1.00  0.00     0.030 A 
HETATM    7  C   UNL     1      43.796 -29.908   2.288  1.00  0.00     0.190 A 
HETATM    8  N   UNL     1      42.727 -29.145   2.089  1.00  0.00    -0.149 NA
HETATM    9  N   UNL     1      42.797 -28.844   0.781  1.00  0.00    -0.279 N 
HETATM   10  H   UNL     1      42.066 -28.263   0.383  1.00  0.00     0.189 HD
HETATM   11  C   UNL     1      45.781 -30.938   0.835  1.00  0.00     0.074 C 
ENDROOT
BRANCH  11  12
HETATM   12  C   UNL     1      46.846 -30.524   1.843  1.00  0.00    -0.048 A 
HETATM   13  C   UNL     1      47.606 -31.515   2.488  1.00  0.00     0.011 A 
HETATM   14  C   UNL     1      48.597 -31.167   3.410  1.00  0.00     0.043 A 
HETATM   15  C   UNL     1      48.841 -29.827   3.686  1.00  0.00     0.116 A 
HETATM   16  F   UNL     1      49.791 -29.498   4.571  1.00  0.00    -0.206 F 
HETATM   17  C   UNL     1      48.116 -28.827   3.057  1.00  0.00     0.043 A 
HETATM   18  C   UNL     1      47.127 -29.173   2.134  1.00  0.00     0.011 A 
ENDBRANCH  11  12
BRANCH   1  19
HETATM   19  C   UNL     1      47.370 -29.979  -0.934  1.00  0.00     0.267 C 
HETATM   20  O   UNL     1      47.278 -28.775  -1.135  1.00  0.00    -0.265 OA
BRANCH  19  21
HETATM   21  O   UNL     1      48.526 -30.700  -0.971  1.00  0.00    -0.316 OA
BRANCH  21  22
HETATM   22  C   UNL     1      49.759 -29.957  -0.943  1.00  0.00     0.123 C 
HETATM   23  C   UNL     1      50.610 -30.322  -2.156  1.00  0.00     0.040 C 
HETATM   24  C   UNL     1      50.476 -30.344   0.345  1.00  0.00     0.040 C 
ENDBRANCH  21  22
ENDBRANCH  19  21
ENDBRANCH   1  19
BRANCH   2  25
HETATM   25  O   UNL     1      45.568 -30.387  -2.997  1.00  0.00    -0.389 OA
HETATM   26  H   UNL     1      45.234 -31.105  -3.573  1.00  0.00     0.210 HD
ENDBRANCH   2  25
BRANCH   7  27
HETATM   27  O   UNL     1      43.976 -30.364   3.529  1.00  0.00    -0.343 OA
HETATM   28  H   UNL     1      44.632 -31.078   3.521  1.00  0.00     0.219 HD
ENDBRANCH   7  27
TORSDOF 6
ENDMDL
MODEL 9
REMARK VINA RESULT:      -6.2      3.259      6.192
REMARK  6 active torsions:
REMARK  status: ('A' for Active; 'I' for Inactive)
REMARK    1  A    between atoms: C_2  and  O_3 
REMARK    2  A    between atoms: O_3  and  C_4 
REMARK    3  A    between atoms: C_4  and  C_5 
REMARK    4  A    between atoms: C_6  and  O_7 
REMARK    5  A    between atoms: C_12  and  O_13 
REMARK    6  A    between atoms: C_17  and  C_18 
ROOT
HETATM    1  C   UNL     1      42.842 -13.560   2.967  1.00  0.00     0.133 C 
HETATM    2  C   UNL     1      42.158 -14.717   2.159  1.00  0.00     0.073 C 
HETATM    3  C   UNL     1      43.116 -15.921   2.069  1.00  0.00     0.047 C 
HETATM    4  C   UNL     1      40.795 -15.168   2.762  1.00  0.00     0.097 C 
HETATM    5  C   UNL     1      40.932 -15.317   4.226  1.00  0.00     0.042 A 
HETATM    6  C   UNL     1      41.872 -14.709   5.031  1.00  0.00     0.030 A 
HETATM    7  C   UNL     1      41.606 -15.257   6.298  1.00  0.00     0.190 A 
HETATM    8  N   UNL     1      40.590 -16.112   6.307  1.00  0.00    -0.149 NA
HETATM    9  N   UNL     1      40.181 -16.125   5.028  1.00  0.00    -0.279 N 
HETATM   10  H   UNL     1      39.402 -16.727   4.779  1.00  0.00     0.189 HD
HETATM   11  C   UNL     1      42.931 -13.789   4.507  1.00  0.00     0.074 C 
ENDROOT
BRANCH  11  12
HETATM   12  C   UNL     1      42.895 -12.540   5.379  1.00  0.00    -0.048 A 
HETATM   13  C   UNL     1      44.103 -11.978   5.828  1.00  0.00     0.011 A 
HETATM   14  C   UNL     1      44.103 -10.827   6.620  1.00  0.00     0.043 A 
HETATM   15  C   UNL     1      42.899 -10.226   6.963  1.00  0.00     0.116 A 
HETATM   16  F   UNL     1      42.903  -9.124   7.724  1.00  0.00    -0.206 F 
HETATM   17  C   UNL     1      41.692 -10.751   6.526  1.00  0.00     0.043 A 
HETATM   18  C   UNL     1      41.689 -11.899   5.733  1.00  0.00     0.011 A 
ENDBRANCH  11  12
BRANCH   1  19
HETATM   19  C   UNL     1      42.208 -12.234   2.602  1.00  0.00     0.267 C 
HETATM   20  O   UNL     1      42.823 -11.189   2.433  1.00  0.00    -0.265 OA
BRANCH  19  21
HETATM   21  O   UNL     1      40.853 -12.370   2.547  1.00  0.00    -0.316 OA
BRANCH  21  22
HETATM   22  C   UNL     1      40.104 -11.249   2.044  1.00  0.00     0.123 C 
HETATM   23  C   UNL     1      39.148 -10.741   3.119  1.00  0.00     0.040 C 
HETATM   24  C   UNL     1      39.325 -11.749   0.833  1.00  0.00     0.040 C 
ENDBRANCH  21  22
ENDBRANCH  19  21
ENDBRANCH   1  19
BRANCH   2  25
HETATM   25  O   UNL     1      41.950 -14.316   0.793  1.00  0.00    -0.389 OA
HETATM   26  H   UNL     1      42.047 -13.344   0.744  1.00  0.00     0.210 HD
ENDBRANCH   2  25
BRANCH   7  27
HETATM   27  O   UNL     1      42.219 -15.050   7.465  1.00  0.00    -0.343 OA
HETATM   28  H   UNL     1      43.179 -15.063   7.335  1.00  0.00     0.219 HD
ENDBRANCH   7  27
TORSDOF 6
ENDMDL
MODEL 10
REMARK VINA RESULT:      -6.1     16.243     17.767
REMARK  6 active torsions:
REMARK  status: ('A' for Active; 'I' for Inactive)
REMARK    1  A    between atoms: C_2  and  O_3 
REMARK    2  A    between atoms: O_3  and  C_4 
REMARK    3  A    between atoms: C_4  and  C_5 
REMARK    4  A    between atoms: C_6  and  O_7 
REMARK    5  A    between atoms: C_12  and  O_13 
REMARK    6  A    between atoms: C_17  and  C_18 
ROOT
HETATM    1  C   UNL     1      47.366 -29.815   1.383  1.00  0.00     0.133 C 
HETATM    2  C   UNL     1      47.574 -30.493   2.782  1.00  0.00     0.073 C 
HETATM    3  C   UNL     1      47.752 -29.408   3.861  1.00  0.00     0.047 C 
HETATM    4  C   UNL     1      46.414 -31.452   3.181  1.00  0.00     0.097 C 
HETATM    5  C   UNL     1      45.119 -30.798   2.902  1.00  0.00     0.042 A 
HETATM    6  C   UNL     1      44.889 -29.778   2.003  1.00  0.00     0.030 A 
HETATM    7  C   UNL     1      43.529 -29.483   2.200  1.00  0.00     0.190 A 
HETATM    8  N   UNL     1      42.944 -30.246   3.116  1.00  0.00    -0.149 NA
HETATM    9  N   UNL     1      43.934 -31.057   3.526  1.00  0.00    -0.279 N 
HETATM   10  H   UNL     1      43.727 -31.740   4.248  1.00  0.00     0.189 HD
HETATM   11  C   UNL     1      45.966 -29.163   1.164  1.00  0.00     0.074 C 
ENDROOT
BRANCH  11  12
HETATM   12  C   UNL     1      45.446 -29.143  -0.268  1.00  0.00    -0.048 A 
HETATM   13  C   UNL     1      44.690 -30.228  -0.742  1.00  0.00     0.011 A 
HETATM   14  C   UNL     1      44.192 -30.235  -2.047  1.00  0.00     0.043 A 
HETATM   15  C   UNL     1      44.438 -29.154  -2.885  1.00  0.00     0.116 A 
HETATM   16  F   UNL     1      43.960 -29.165  -4.136  1.00  0.00    -0.206 F 
HETATM   17  C   UNL     1      45.172 -28.064  -2.442  1.00  0.00     0.043 A 
HETATM   18  C   UNL     1      45.669 -28.054  -1.138  1.00  0.00     0.011 A 
ENDBRANCH  11  12
BRANCH   1  19
HETATM   19  C   UNL     1      47.747 -30.782   0.281  1.00  0.00     0.267 C 
HETATM   20  O   UNL     1      47.358 -31.940   0.203  1.00  0.00    -0.265 OA
BRANCH  19  21
HETATM   21  O   UNL     1      48.627 -30.185  -0.571  1.00  0.00    -0.316 OA
BRANCH  21  22
HETATM   22  C   UNL     1      49.853 -30.890  -0.842  1.00  0.00     0.123 C 
HETATM   23  C   UNL     1      50.851 -30.644   0.285  1.00  0.00     0.040 C 
HETATM   24  C   UNL     1      50.392 -30.343  -2.158  1.00  0.00     0.040 C 
ENDBRANCH  21  22
ENDBRANCH  19  21
ENDBRANCH   1  19
BRANCH   2  25
HETATM   25  O   UNL     1      48.810 -31.229   2.800  1.00  0.00    -0.389 OA
HETATM   26  H   UNL     1      48.596 -32.180   2.875  1.00  0.00     0.210 HD
ENDBRANCH   2  25
BRANCH   7  27
HETATM   27  O   UNL     1      42.760 -28.562   1.616  1.00  0.00    -0.343 OA
HETATM   28  H   UNL     1      42.388 -28.920   0.796  1.00  0.00     0.219 HD
ENDBRANCH   7  27
TORSDOF 6
ENDMDL
