MODEL 1
REMARK VINA RESULT:      -8.9      0.000      0.000
REMARK  7 active torsions:
REMARK  status: ('A' for Active; 'I' for Inactive)
REMARK    1  A    between atoms: O_2  and  C_3 
REMARK    2  A    between atoms: C_3  and  C_4 
REMARK    3  A    between atoms: C_4  and  N_5 
REMARK    4  A    between atoms: C_4  and  C_21 
REMARK    5  A    between atoms: N_5  and  C_6 
REMARK    6  A    between atoms: C_21  and  C_22 
REMARK    7  A    between atoms: C_25  and  O_26 
ROOT
HETATM    1  N   UNL     1      42.457 -14.759   1.129  1.00  0.00    -0.277 NA
HETATM    2  H   UNL     1      42.561 -15.100   0.172  1.00  0.00     0.128 HD
ENDROOT
BRANCH   1   3
HETATM    3  C   UNL     1      42.056 -15.908   2.010  1.00  0.00     0.164 C 
BRANCH   3   4
HETATM    4  C   UNL     1      40.778 -15.648   2.824  1.00  0.00     0.276 C 
HETATM    5  O   UNL     1      39.632 -15.782   2.413  1.00  0.00    -0.263 OA
BRANCH   4   6
HETATM    6  O   UNL     1      41.105 -15.285   4.100  1.00  0.00    -0.325 OA
HETATM    7  C   UNL     1      40.563 -16.134   5.112  1.00  0.00     0.213 C 
ENDBRANCH   4   6
ENDBRANCH   3   4
BRANCH   3   8
HETATM    8  C   UNL     1      43.213 -16.215   2.981  1.00  0.00     0.068 C 
BRANCH   8   9
HETATM    9  C   UNL     1      43.426 -17.702   3.151  1.00  0.00    -0.056 A 
HETATM   10  C   UNL     1      44.014 -18.200   4.325  1.00  0.00     0.010 A 
HETATM   11  C   UNL     1      44.245 -19.569   4.477  1.00  0.00     0.037 A 
HETATM   12  C   UNL     1      43.892 -20.439   3.453  1.00  0.00     0.065 A 
HETATM   13  C   UNL     1      43.310 -19.964   2.284  1.00  0.00     0.037 A 
HETATM   14  C   UNL     1      43.074 -18.596   2.131  1.00  0.00     0.010 A 
BRANCH  12  15
HETATM   15  O   UNL     1      44.101 -21.781   3.556  1.00  0.00    -0.361 OA
HETATM   16  H   UNL     1      44.654 -21.958   4.335  1.00  0.00     0.217 HD
ENDBRANCH  12  15
ENDBRANCH   8   9
ENDBRANCH   3   8
ENDBRANCH   1   3
BRANCH   1  17
HETATM   17  C   UNL     1      41.626 -13.612   1.151  1.00  0.00     0.034 A 
HETATM   18  C   UNL     1      41.923 -12.595   2.098  1.00  0.00     0.013 A 
HETATM   19  C   UNL     1      41.088 -11.463   2.162  1.00  0.00     0.044 A 
HETATM   20  C   UNL     1      43.019 -12.642   2.986  1.00  0.00     0.015 A 
HETATM   21  C   UNL     1      41.347 -10.421   3.068  1.00  0.00     0.030 A 
HETATM   22  N   UNL     1      40.032 -11.379   1.339  1.00  0.00    -0.355 N 
HETATM   23  C   UNL     1      42.442 -10.493   3.926  1.00  0.00     0.002 A 
HETATM   24  C   UNL     1      43.276 -11.605   3.887  1.00  0.00     0.001 A 
HETATM   25  H   UNL     1      39.439 -10.557   1.413  1.00  0.00     0.166 HD
HETATM   26  C   UNL     1      39.716 -12.302   0.414  1.00  0.00     0.044 A 
HETATM   27  C   UNL     1      40.520 -13.454   0.272  1.00  0.00     0.013 A 
HETATM   28  C   UNL     1      38.592 -12.097  -0.403  1.00  0.00     0.030 A 
HETATM   29  C   UNL     1      40.165 -14.365  -0.750  1.00  0.00     0.015 A 
HETATM   30  C   UNL     1      39.045 -14.156  -1.559  1.00  0.00     0.001 A 
HETATM   31  C   UNL     1      38.255 -13.027  -1.383  1.00  0.00     0.002 A 
ENDBRANCH   1  17
TORSDOF 7
ENDMDL
MODEL 2
REMARK VINA RESULT:      -8.9      2.580      3.564
REMARK  7 active torsions:
REMARK  status: ('A' for Active; 'I' for Inactive)
REMARK    1  A    between atoms: O_2  and  C_3 
REMARK    2  A    between atoms: C_3  and  C_4 
REMARK    3  A    between atoms: C_4  and  N_5 
REMARK    4  A    between atoms: C_4  and  C_21 
REMARK    5  A    between atoms: N_5  and  C_6 
REMARK    6  A    between atoms: C_21  and  C_22 
REMARK    7  A    between atoms: C_25  and  O_26 
ROOT
HETATM    1  N   UNL     1      43.614 -14.958   5.136  1.00  0.00    -0.277 NA
HETATM    2  H   UNL     1      44.037 -15.173   4.230  1.00  0.00     0.128 HD
ENDROOT
BRANCH   1   3
HETATM    3  C   UNL     1      42.952 -16.199   5.665  1.00  0.00     0.164 C 
BRANCH   3   4
HETATM    4  C   UNL     1      42.361 -16.031   7.075  1.00  0.00     0.276 C 
HETATM    5  O   UNL     1      42.946 -15.557   8.041  1.00  0.00    -0.263 OA
BRANCH   4   6
HETATM    6  O   UNL     1      41.061 -16.452   7.088  1.00  0.00    -0.325 OA
HETATM    7  C   UNL     1      40.112 -15.444   6.738  1.00  0.00     0.213 C 
ENDBRANCH   4   6
ENDBRANCH   3   4
BRANCH   3   8
HETATM    8  C   UNL     1      43.985 -17.341   5.689  1.00  0.00     0.068 C 
BRANCH   8   9
HETATM    9  C   UNL     1      43.789 -18.301   4.539  1.00  0.00    -0.056 A 
HETATM   10  C   UNL     1      44.107 -19.661   4.693  1.00  0.00     0.010 A 
HETATM   11  C   UNL     1      43.961 -20.550   3.625  1.00  0.00     0.037 A 
HETATM   12  C   UNL     1      43.501 -20.077   2.403  1.00  0.00     0.065 A 
HETATM   13  C   UNL     1      43.182 -18.736   2.231  1.00  0.00     0.037 A 
HETATM   14  C   UNL     1      43.324 -17.846   3.298  1.00  0.00     0.010 A 
BRANCH  12  15
HETATM   15  O   UNL     1      43.345 -20.907   1.333  1.00  0.00    -0.361 OA
HETATM   16  H   UNL     1      42.447 -20.802   0.978  1.00  0.00     0.217 HD
ENDBRANCH  12  15
ENDBRANCH   8   9
ENDBRANCH   3   8
ENDBRANCH   1   3
BRANCH   1  17
HETATM   17  C   UNL     1      42.815 -13.794   5.038  1.00  0.00     0.034 A 
HETATM   18  C   UNL     1      43.166 -12.678   5.845  1.00  0.00     0.013 A 
HETATM   19  C   UNL     1      42.363 -11.522   5.790  1.00  0.00     0.044 A 
HETATM   20  C   UNL     1      44.286 -12.648   6.703  1.00  0.00     0.015 A 
HETATM   21  C   UNL     1      42.675 -10.385   6.554  1.00  0.00     0.030 A 
HETATM   22  N   UNL     1      41.286 -11.509   4.991  1.00  0.00    -0.355 N 
HETATM   23  C   UNL     1      43.793 -10.384   7.386  1.00  0.00     0.002 A 
HETATM   24  C   UNL     1      44.597 -11.517   7.462  1.00  0.00     0.001 A 
HETATM   25  H   UNL     1      40.717 -10.666   4.978  1.00  0.00     0.166 HD
HETATM   26  C   UNL     1      40.919 -12.528   4.195  1.00  0.00     0.044 A 
HETATM   27  C   UNL     1      41.688 -13.712   4.175  1.00  0.00     0.013 A 
HETATM   28  C   UNL     1      39.778 -12.391   3.388  1.00  0.00     0.030 A 
HETATM   29  C   UNL     1      41.279 -14.730   3.282  1.00  0.00     0.015 A 
HETATM   30  C   UNL     1      40.142 -14.589   2.483  1.00  0.00     0.001 A 
HETATM   31  C   UNL     1      39.388 -13.423   2.539  1.00  0.00     0.002 A 
ENDBRANCH   1  17
TORSDOF 7
ENDMDL
MODEL 3
REMARK VINA RESULT:      -8.8      0.354      3.574
REMARK  7 active torsions:
REMARK  status: ('A' for Active; 'I' for Inactive)
REMARK    1  A    between atoms: O_2  and  C_3 
REMARK    2  A    between atoms: C_3  and  C_4 
REMARK    3  A    between atoms: C_4  and  N_5 
REMARK    4  A    between atoms: C_4  and  C_21 
REMARK    5  A    between atoms: N_5  and  C_6 
REMARK    6  A    between atoms: C_21  and  C_22 
REMARK    7  A    between atoms: C_25  and  O_26 
ROOT
HETATM    1  N   UNL     1      42.445 -14.868   1.114  1.00  0.00    -0.277 NA
HETATM    2  H   UNL     1      42.423 -15.227   0.158  1.00  0.00     0.128 HD
ENDROOT
BRANCH   1   3
HETATM    3  C   UNL     1      42.064 -15.975   2.055  1.00  0.00     0.164 C 
BRANCH   3   4
HETATM    4  C   UNL     1      40.826 -15.661   2.912  1.00  0.00     0.276 C 
HETATM    5  O   UNL     1      39.664 -15.701   2.528  1.00  0.00    -0.263 OA
BRANCH   4   6
HETATM    6  O   UNL     1      41.209 -15.369   4.191  1.00  0.00    -0.325 OA
HETATM    7  C   UNL     1      40.369 -14.424   4.856  1.00  0.00     0.213 C 
ENDBRANCH   4   6
ENDBRANCH   3   4
BRANCH   3   8
HETATM    8  C   UNL     1      43.255 -16.267   2.987  1.00  0.00     0.068 C 
BRANCH   8   9
HETATM    9  C   UNL     1      43.503 -17.750   3.138  1.00  0.00    -0.056 A 
HETATM   10  C   UNL     1      43.113 -18.637   2.121  1.00  0.00     0.010 A 
HETATM   11  C   UNL     1      43.308 -20.012   2.265  1.00  0.00     0.037 A 
HETATM   12  C   UNL     1      43.888 -20.501   3.429  1.00  0.00     0.065 A 
HETATM   13  C   UNL     1      44.279 -19.639   4.446  1.00  0.00     0.037 A 
HETATM   14  C   UNL     1      44.089 -18.263   4.302  1.00  0.00     0.010 A 
BRANCH  12  15
HETATM   15  O   UNL     1      44.095 -21.835   3.614  1.00  0.00    -0.361 OA
HETATM   16  H   UNL     1      43.840 -22.073   4.520  1.00  0.00     0.217 HD
ENDBRANCH  12  15
ENDBRANCH   8   9
ENDBRANCH   3   8
ENDBRANCH   1   3
BRANCH   1  17
HETATM   17  C   UNL     1      41.701 -13.666   1.201  1.00  0.00     0.034 A 
HETATM   18  C   UNL     1      40.608 -13.495   0.308  1.00  0.00     0.013 A 
HETATM   19  C   UNL     1      39.877 -12.293   0.353  1.00  0.00     0.044 A 
HETATM   20  C   UNL     1      40.197 -14.469  -0.627  1.00  0.00     0.015 A 
HETATM   21  C   UNL     1      38.779 -12.080  -0.497  1.00  0.00     0.030 A 
HETATM   22  N   UNL     1      40.237 -11.338   1.224  1.00  0.00    -0.355 N 
HETATM   23  C   UNL     1      38.392 -13.064  -1.404  1.00  0.00     0.002 A 
HETATM   24  C   UNL     1      39.103 -14.258  -1.471  1.00  0.00     0.001 A 
HETATM   25  H   UNL     1      39.700 -10.475   1.228  1.00  0.00     0.166 HD
HETATM   26  C   UNL     1      41.249 -11.454   2.101  1.00  0.00     0.044 A 
HETATM   27  C   UNL     1      42.013 -12.641   2.135  1.00  0.00     0.013 A 
HETATM   28  C   UNL     1      41.521 -10.390   2.977  1.00  0.00     0.030 A 
HETATM   29  C   UNL     1      43.033 -12.722   3.112  1.00  0.00     0.015 A 
HETATM   30  C   UNL     1      43.300 -11.660   3.980  1.00  0.00     0.001 A 
HETATM   31  C   UNL     1      42.550 -10.493   3.910  1.00  0.00     0.002 A 
ENDBRANCH   1  17
TORSDOF 7
ENDMDL
MODEL 4
REMARK VINA RESULT:      -8.8      2.656      6.987
REMARK  7 active torsions:
REMARK  status: ('A' for Active; 'I' for Inactive)
REMARK    1  A    between atoms: O_2  and  C_3 
REMARK    2  A    between atoms: C_3  and  C_4 
REMARK    3  A    between atoms: C_4  and  N_5 
REMARK    4  A    between atoms: C_4  and  C_21 
REMARK    5  A    between atoms: N_5  and  C_6 
REMARK    6  A    between atoms: C_21  and  C_22 
REMARK    7  A    between atoms: C_25  and  O_26 
ROOT
HETATM    1  N   UNL     1      43.084 -15.449   2.993  1.00  0.00    -0.277 NA
HETATM    2  H   UNL     1      43.733 -14.682   3.183  1.00  0.00     0.128 HD
ENDROOT
BRANCH   1   3
HETATM    3  C   UNL     1      41.697 -14.886   2.861  1.00  0.00     0.164 C 
BRANCH   3   4
HETATM    4  C   UNL     1      40.924 -15.426   1.646  1.00  0.00     0.276 C 
HETATM    5  O   UNL     1      40.234 -16.438   1.633  1.00  0.00    -0.263 OA
BRANCH   4   6
HETATM    6  O   UNL     1      41.082 -14.583   0.582  1.00  0.00    -0.325 OA
HETATM    7  C   UNL     1      39.968 -14.546  -0.311  1.00  0.00     0.213 C 
ENDBRANCH   4   6
ENDBRANCH   3   4
BRANCH   3   8
HETATM    8  C   UNL     1      41.793 -13.352   2.750  1.00  0.00     0.068 C 
BRANCH   8   9
HETATM    9  C   UNL     1      41.230 -12.664   3.972  1.00  0.00    -0.056 A 
HETATM   10  C   UNL     1      41.890 -11.552   4.521  1.00  0.00     0.010 A 
HETATM   11  C   UNL     1      41.396 -10.929   5.670  1.00  0.00     0.037 A 
HETATM   12  C   UNL     1      40.244 -11.421   6.271  1.00  0.00     0.065 A 
HETATM   13  C   UNL     1      39.578 -12.520   5.742  1.00  0.00     0.037 A 
HETATM   14  C   UNL     1      40.068 -13.142   4.592  1.00  0.00     0.010 A 
BRANCH  12  15
HETATM   15  O   UNL     1      39.727 -10.846   7.393  1.00  0.00    -0.361 OA
HETATM   16  H   UNL     1      40.318 -11.026   8.143  1.00  0.00     0.217 HD
ENDBRANCH  12  15
ENDBRANCH   8   9
ENDBRANCH   3   8
ENDBRANCH   1   3
BRANCH   1  17
HETATM   17  C   UNL     1      43.269 -16.489   3.936  1.00  0.00     0.034 A 
HETATM   18  C   UNL     1      43.307 -16.137   5.313  1.00  0.00     0.013 A 
HETATM   19  C   UNL     1      43.526 -17.150   6.266  1.00  0.00     0.044 A 
HETATM   20  C   UNL     1      43.130 -14.822   5.795  1.00  0.00     0.015 A 
HETATM   21  C   UNL     1      43.557 -16.859   7.640  1.00  0.00     0.030 A 
HETATM   22  N   UNL     1      43.704 -18.413   5.851  1.00  0.00    -0.355 N 
HETATM   23  C   UNL     1      43.370 -15.553   8.085  1.00  0.00     0.002 A 
HETATM   24  C   UNL     1      43.159 -14.534   7.162  1.00  0.00     0.001 A 
HETATM   25  H   UNL     1      43.872 -19.124   6.559  1.00  0.00     0.166 HD
HETATM   26  C   UNL     1      43.660 -18.803   4.566  1.00  0.00     0.044 A 
HETATM   27  C   UNL     1      43.420 -17.849   3.553  1.00  0.00     0.013 A 
HETATM   28  C   UNL     1      43.846 -20.160   4.254  1.00  0.00     0.030 A 
HETATM   29  C   UNL     1      43.337 -18.327   2.225  1.00  0.00     0.015 A 
HETATM   30  C   UNL     1      43.524 -19.679   1.920  1.00  0.00     0.001 A 
HETATM   31  C   UNL     1      43.784 -20.594   2.933  1.00  0.00     0.002 A 
ENDBRANCH   1  17
TORSDOF 7
ENDMDL
MODEL 5
REMARK VINA RESULT:      -8.7      2.626      7.534
REMARK  7 active torsions:
REMARK  status: ('A' for Active; 'I' for Inactive)
REMARK    1  A    between atoms: O_2  and  C_3 
REMARK    2  A    between atoms: C_3  and  C_4 
REMARK    3  A    between atoms: C_4  and  N_5 
REMARK    4  A    between atoms: C_4  and  C_21 
REMARK    5  A    between atoms: N_5  and  C_6 
REMARK    6  A    between atoms: C_21  and  C_22 
REMARK    7  A    between atoms: C_25  and  O_26 
ROOT
HETATM    1  N   UNL     1      42.970 -15.525   2.828  1.00  0.00    -0.277 NA
HETATM    2  H   UNL     1      43.649 -14.763   2.868  1.00  0.00     0.128 HD
ENDROOT
BRANCH   1   3
HETATM    3  C   UNL     1      41.590 -14.938   2.742  1.00  0.00     0.164 C 
BRANCH   3   4
HETATM    4  C   UNL     1      40.777 -15.442   1.538  1.00  0.00     0.276 C 
HETATM    5  O   UNL     1      39.966 -16.359   1.559  1.00  0.00    -0.263 OA
BRANCH   4   6
HETATM    6  O   UNL     1      41.058 -14.683   0.437  1.00  0.00    -0.325 OA
HETATM    7  C   UNL     1      39.946 -14.472  -0.433  1.00  0.00     0.213 C 
ENDBRANCH   4   6
ENDBRANCH   3   4
BRANCH   3   8
HETATM    8  C   UNL     1      41.707 -13.404   2.659  1.00  0.00     0.068 C 
BRANCH   8   9
HETATM    9  C   UNL     1      41.156 -12.729   3.894  1.00  0.00    -0.056 A 
HETATM   10  C   UNL     1      41.772 -11.574   4.401  1.00  0.00     0.010 A 
HETATM   11  C   UNL     1      41.290 -10.962   5.560  1.00  0.00     0.037 A 
HETATM   12  C   UNL     1      40.193 -11.508   6.213  1.00  0.00     0.065 A 
HETATM   13  C   UNL     1      39.570 -12.651   5.727  1.00  0.00     0.037 A 
HETATM   14  C   UNL     1      40.048 -13.262   4.566  1.00  0.00     0.010 A 
BRANCH  12  15
HETATM   15  O   UNL     1      39.689 -10.946   7.348  1.00  0.00    -0.361 OA
HETATM   16  H   UNL     1      40.310 -11.096   8.080  1.00  0.00     0.217 HD
ENDBRANCH  12  15
ENDBRANCH   8   9
ENDBRANCH   3   8
ENDBRANCH   1   3
BRANCH   1  17
HETATM   17  C   UNL     1      43.212 -16.449   3.874  1.00  0.00     0.034 A 
HETATM   18  C   UNL     1      43.392 -17.815   3.525  1.00  0.00     0.013 A 
HETATM   19  C   UNL     1      43.598 -18.756   4.551  1.00  0.00     0.044 A 
HETATM   20  C   UNL     1      43.386 -18.295   2.197  1.00  0.00     0.015 A 
HETATM   21  C   UNL     1      43.798 -20.116   4.260  1.00  0.00     0.030 A 
HETATM   22  N   UNL     1      43.608 -18.343   5.828  1.00  0.00    -0.355 N 
HETATM   23  C   UNL     1      43.794 -20.558   2.939  1.00  0.00     0.002 A 
HETATM   24  C   UNL     1      43.586 -19.648   1.908  1.00  0.00     0.001 A 
HETATM   25  H   UNL     1      43.747 -19.044   6.550  1.00  0.00     0.166 HD
HETATM   26  C   UNL     1      43.460 -17.064   6.212  1.00  0.00     0.044 A 
HETATM   27  C   UNL     1      43.275 -16.058   5.239  1.00  0.00     0.013 A 
HETATM   28  C   UNL     1      43.503 -16.750   7.580  1.00  0.00     0.030 A 
HETATM   29  C   UNL     1      43.174 -14.725   5.702  1.00  0.00     0.015 A 
HETATM   30  C   UNL     1      43.217 -14.419   7.065  1.00  0.00     0.001 A 
HETATM   31  C   UNL     1      43.375 -15.430   8.004  1.00  0.00     0.002 A 
ENDBRANCH   1  17
TORSDOF 7
ENDMDL
MODEL 6
REMARK VINA RESULT:      -8.6      1.871      3.959
REMARK  7 active torsions:
REMARK  status: ('A' for Active; 'I' for Inactive)
REMARK    1  A    between atoms: O_2  and  C_3 
REMARK    2  A    between atoms: C_3  and  C_4 
REMARK    3  A    between atoms: C_4  and  N_5 
REMARK    4  A    between atoms: C_4  and  C_21 
REMARK    5  A    between atoms: N_5  and  C_6 
REMARK    6  A    between atoms: C_21  and  C_22 
REMARK    7  A    between atoms: C_25  and  O_26 
ROOT
HETATM    1  N   UNL     1      40.735 -15.545   3.105  1.00  0.00    -0.277 NA
HETATM    2  H   UNL     1      40.347 -15.894   3.984  1.00  0.00     0.128 HD
ENDROOT
BRANCH   1   3
HETATM    3  C   UNL     1      42.232 -15.654   3.162  1.00  0.00     0.164 C 
BRANCH   3   4
HETATM    4  C   UNL     1      42.961 -14.344   2.817  1.00  0.00     0.276 C 
HETATM    5  O   UNL     1      43.229 -13.953   1.688  1.00  0.00    -0.263 OA
BRANCH   4   6
HETATM    6  O   UNL     1      43.233 -13.649   3.962  1.00  0.00    -0.325 OA
HETATM    7  C   UNL     1      43.441 -12.249   3.766  1.00  0.00     0.213 C 
ENDBRANCH   4   6
ENDBRANCH   3   4
BRANCH   3   8
HETATM    8  C   UNL     1      42.687 -16.751   2.180  1.00  0.00     0.068 C 
BRANCH   8   9
HETATM    9  C   UNL     1      43.211 -17.971   2.903  1.00  0.00    -0.056 A 
HETATM   10  C   UNL     1      43.238 -19.216   2.255  1.00  0.00     0.010 A 
HETATM   11  C   UNL     1      43.689 -20.356   2.925  1.00  0.00     0.037 A 
HETATM   12  C   UNL     1      44.110 -20.249   4.245  1.00  0.00     0.065 A 
HETATM   13  C   UNL     1      44.090 -19.025   4.902  1.00  0.00     0.037 A 
HETATM   14  C   UNL     1      43.643 -17.884   4.233  1.00  0.00     0.010 A 
BRANCH  12  15
HETATM   15  O   UNL     1      44.557 -21.333   4.939  1.00  0.00    -0.361 OA
HETATM   16  H   UNL     1      43.839 -21.668   5.501  1.00  0.00     0.217 HD
ENDBRANCH  12  15
ENDBRANCH   8   9
ENDBRANCH   3   8
ENDBRANCH   1   3
BRANCH   1  17
HETATM   17  C   UNL     1      40.193 -14.272   2.805  1.00  0.00     0.034 A 
HETATM   18  C   UNL     1      39.897 -13.980   1.445  1.00  0.00     0.013 A 
HETATM   19  C   UNL     1      39.392 -12.708   1.119  1.00  0.00     0.044 A 
HETATM   20  C   UNL     1      40.071 -14.899   0.388  1.00  0.00     0.015 A 
HETATM   21  C   UNL     1      39.067 -12.374  -0.207  1.00  0.00     0.030 A 
HETATM   22  N   UNL     1      39.215 -11.802   2.093  1.00  0.00    -0.355 N 
HETATM   23  C   UNL     1      39.242 -13.305  -1.228  1.00  0.00     0.002 A 
HETATM   24  C   UNL     1      39.747 -14.567  -0.931  1.00  0.00     0.001 A 
HETATM   25  H   UNL     1      38.859 -10.887   1.829  1.00  0.00     0.166 HD
HETATM   26  C   UNL     1      39.462 -12.030   3.394  1.00  0.00     0.044 A 
HETATM   27  C   UNL     1      39.946 -13.292   3.804  1.00  0.00     0.013 A 
HETATM   28  C   UNL     1      39.222 -11.008   4.327  1.00  0.00     0.030 A 
HETATM   29  C   UNL     1      40.140 -13.487   5.192  1.00  0.00     0.015 A 
HETATM   30  C   UNL     1      39.902 -12.465   6.115  1.00  0.00     0.001 A 
HETATM   31  C   UNL     1      39.449 -11.225   5.683  1.00  0.00     0.002 A 
ENDBRANCH   1  17
TORSDOF 7
ENDMDL
MODEL 7
REMARK VINA RESULT:      -8.4      2.551      7.186
REMARK  7 active torsions:
REMARK  status: ('A' for Active; 'I' for Inactive)
REMARK    1  A    between atoms: O_2  and  C_3 
REMARK    2  A    between atoms: C_3  and  C_4 
REMARK    3  A    between atoms: C_4  and  N_5 
REMARK    4  A    between atoms: C_4  and  C_21 
REMARK    5  A    between atoms: N_5  and  C_6 
REMARK    6  A    between atoms: C_21  and  C_22 
REMARK    7  A    between atoms: C_25  and  O_26 
ROOT
HETATM    1  N   UNL     1      42.236 -14.068   2.159  1.00  0.00    -0.277 NA
HETATM    2  H   UNL     1      42.596 -13.121   2.030  1.00  0.00     0.128 HD
ENDROOT
BRANCH   1   3
HETATM    3  C   UNL     1      40.737 -14.034   2.052  1.00  0.00     0.164 C 
BRANCH   3   4
HETATM    4  C   UNL     1      40.184 -14.833   0.860  1.00  0.00     0.276 C 
HETATM    5  O   UNL     1      39.713 -15.961   0.915  1.00  0.00    -0.263 OA
BRANCH   4   6
HETATM    6  O   UNL     1      40.255 -14.079  -0.278  1.00  0.00    -0.325 OA
HETATM    7  C   UNL     1      39.375 -14.502  -1.321  1.00  0.00     0.213 C 
ENDBRANCH   4   6
ENDBRANCH   3   4
BRANCH   3   8
HETATM    8  C   UNL     1      40.282 -12.568   1.924  1.00  0.00     0.068 C 
BRANCH   8   9
HETATM    9  C   UNL     1      39.851 -11.994   3.254  1.00  0.00    -0.056 A 
HETATM   10  C   UNL     1      39.556 -12.850   4.328  1.00  0.00     0.010 A 
HETATM   11  C   UNL     1      39.125 -12.331   5.551  1.00  0.00     0.037 A 
HETATM   12  C   UNL     1      38.986 -10.957   5.698  1.00  0.00     0.065 A 
HETATM   13  C   UNL     1      39.273 -10.095   4.647  1.00  0.00     0.037 A 
HETATM   14  C   UNL     1      39.708 -10.611   3.425  1.00  0.00     0.010 A 
BRANCH  12  15
HETATM   15  O   UNL     1      38.567 -10.406   6.872  1.00  0.00    -0.361 OA
HETATM   16  H   UNL     1      37.858 -10.956   7.246  1.00  0.00     0.217 HD
ENDBRANCH  12  15
ENDBRANCH   8   9
ENDBRANCH   3   8
ENDBRANCH   1   3
BRANCH   1  17
HETATM   17  C   UNL     1      42.783 -14.642   3.332  1.00  0.00     0.034 A 
HETATM   18  C   UNL     1      43.067 -16.035   3.320  1.00  0.00     0.013 A 
HETATM   19  C   UNL     1      43.578 -16.634   4.487  1.00  0.00     0.044 A 
HETATM   20  C   UNL     1      42.874 -16.867   2.196  1.00  0.00     0.015 A 
HETATM   21  C   UNL     1      43.890 -18.003   4.523  1.00  0.00     0.030 A 
HETATM   22  N   UNL     1      43.772 -15.880   5.580  1.00  0.00    -0.355 N 
HETATM   23  C   UNL     1      43.697 -18.797   3.395  1.00  0.00     0.002 A 
HETATM   24  C   UNL     1      43.187 -18.229   2.232  1.00  0.00     0.001 A 
HETATM   25  H   UNL     1      44.132 -16.339   6.413  1.00  0.00     0.166 HD
HETATM   26  C   UNL     1      43.538 -14.558   5.641  1.00  0.00     0.044 A 
HETATM   27  C   UNL     1      43.049 -13.881   4.502  1.00  0.00     0.013 A 
HETATM   28  C   UNL     1      43.795 -13.871   6.839  1.00  0.00     0.030 A 
HETATM   29  C   UNL     1      42.868 -12.482   4.614  1.00  0.00     0.015 A 
HETATM   30  C   UNL     1      43.125 -11.804   5.809  1.00  0.00     0.001 A 
HETATM   31  C   UNL     1      43.582 -12.498   6.922  1.00  0.00     0.002 A 
ENDBRANCH   1  17
TORSDOF 7
ENDMDL
MODEL 8
REMARK VINA RESULT:      -8.4      2.295      7.096
REMARK  7 active torsions:
REMARK  status: ('A' for Active; 'I' for Inactive)
REMARK    1  A    between atoms: O_2  and  C_3 
REMARK    2  A    between atoms: C_3  and  C_4 
REMARK    3  A    between atoms: C_4  and  N_5 
REMARK    4  A    between atoms: C_4  and  C_21 
REMARK    5  A    between atoms: N_5  and  C_6 
REMARK    6  A    between atoms: C_21  and  C_22 
REMARK    7  A    between atoms: C_25  and  O_26 
ROOT
HETATM    1  N   UNL     1      42.547 -14.247   1.939  1.00  0.00    -0.277 NA
HETATM    2  H   UNL     1      42.983 -13.334   1.791  1.00  0.00     0.128 HD
ENDROOT
BRANCH   1   3
HETATM    3  C   UNL     1      41.071 -14.123   1.690  1.00  0.00     0.164 C 
BRANCH   3   4
HETATM    4  C   UNL     1      40.202 -14.675   2.833  1.00  0.00     0.276 C 
HETATM    5  O   UNL     1      39.938 -15.855   3.021  1.00  0.00    -0.263 OA
BRANCH   4   6
HETATM    6  O   UNL     1      39.797 -13.652   3.643  1.00  0.00    -0.325 OA
HETATM    7  C   UNL     1      39.432 -12.458   2.948  1.00  0.00     0.213 C 
ENDBRANCH   4   6
ENDBRANCH   3   4
BRANCH   3   8
HETATM    8  C   UNL     1      40.722 -14.875   0.391  1.00  0.00     0.068 C 
BRANCH   8   9
HETATM    9  C   UNL     1      40.054 -13.972  -0.620  1.00  0.00    -0.056 A 
HETATM   10  C   UNL     1      39.149 -14.505  -1.552  1.00  0.00     0.010 A 
HETATM   11  C   UNL     1      38.551 -13.685  -2.512  1.00  0.00     0.037 A 
HETATM   12  C   UNL     1      38.862 -12.331  -2.540  1.00  0.00     0.065 A 
HETATM   13  C   UNL     1      39.755 -11.786  -1.626  1.00  0.00     0.037 A 
HETATM   14  C   UNL     1      40.351 -12.603  -0.664  1.00  0.00     0.010 A 
BRANCH  12  15
HETATM   15  O   UNL     1      38.304 -11.493  -3.459  1.00  0.00    -0.361 OA
HETATM   16  H   UNL     1      38.074 -10.655  -3.025  1.00  0.00     0.217 HD
ENDBRANCH  12  15
ENDBRANCH   8   9
ENDBRANCH   3   8
ENDBRANCH   1   3
BRANCH   1  17
HETATM   17  C   UNL     1      42.946 -14.781   3.188  1.00  0.00     0.034 A 
HETATM   18  C   UNL     1      43.202 -16.178   3.261  1.00  0.00     0.013 A 
HETATM   19  C   UNL     1      43.566 -16.736   4.501  1.00  0.00     0.044 A 
HETATM   20  C   UNL     1      43.123 -17.051   2.155  1.00  0.00     0.015 A 
HETATM   21  C   UNL     1      43.845 -18.108   4.625  1.00  0.00     0.030 A 
HETATM   22  N   UNL     1      43.649 -15.942   5.579  1.00  0.00    -0.355 N 
HETATM   23  C   UNL     1      43.767 -18.943   3.513  1.00  0.00     0.002 A 
HETATM   24  C   UNL     1      43.403 -18.415   2.279  1.00  0.00     0.001 A 
HETATM   25  H   UNL     1      43.902 -16.373   6.465  1.00  0.00     0.166 HD
HETATM   26  C   UNL     1      43.435 -14.616   5.563  1.00  0.00     0.044 A 
HETATM   27  C   UNL     1      43.091 -13.978   4.351  1.00  0.00     0.013 A 
HETATM   28  C   UNL     1      43.567 -13.885   6.755  1.00  0.00     0.030 A 
HETATM   29  C   UNL     1      42.926 -12.573   4.387  1.00  0.00     0.015 A 
HETATM   30  C   UNL     1      43.058 -11.851   5.577  1.00  0.00     0.001 A 
HETATM   31  C   UNL     1      43.372 -12.507   6.761  1.00  0.00     0.002 A 
ENDBRANCH   1  17
TORSDOF 7
ENDMDL
MODEL 9
REMARK VINA RESULT:      -8.3      1.949      2.650
REMARK  7 active torsions:
REMARK  status: ('A' for Active; 'I' for Inactive)
REMARK    1  A    between atoms: O_2  and  C_3 
REMARK    2  A    between atoms: C_3  and  C_4 
REMARK    3  A    between atoms: C_4  and  N_5 
REMARK    4  A    between atoms: C_4  and  C_21 
REMARK    5  A    between atoms: N_5  and  C_6 
REMARK    6  A    between atoms: C_21  and  C_22 
REMARK    7  A    between atoms: C_25  and  O_26 
ROOT
HETATM    1  N   UNL     1      40.521 -15.445   3.815  1.00  0.00    -0.277 NA
HETATM    2  H   UNL     1      40.089 -15.579   4.732  1.00  0.00     0.128 HD
ENDROOT
BRANCH   1   3
HETATM    3  C   UNL     1      41.999 -15.683   3.938  1.00  0.00     0.164 C 
BRANCH   3   4
HETATM    4  C   UNL     1      42.813 -14.404   4.192  1.00  0.00     0.276 C 
HETATM    5  O   UNL     1      43.101 -13.948   5.292  1.00  0.00    -0.263 OA
BRANCH   4   6
HETATM    6  O   UNL     1      43.212 -13.863   3.003  1.00  0.00    -0.325 OA
HETATM    7  C   UNL     1      43.339 -12.440   3.015  1.00  0.00     0.213 C 
ENDBRANCH   4   6
ENDBRANCH   3   4
BRANCH   3   8
HETATM    8  C   UNL     1      42.505 -16.347   2.643  1.00  0.00     0.068 C 
BRANCH   8   9
HETATM    9  C   UNL     1      42.994 -17.756   2.887  1.00  0.00    -0.056 A 
HETATM   10  C   UNL     1      42.704 -18.773   1.963  1.00  0.00     0.010 A 
HETATM   11  C   UNL     1      43.123 -20.085   2.195  1.00  0.00     0.037 A 
HETATM   12  C   UNL     1      43.830 -20.380   3.354  1.00  0.00     0.065 A 
HETATM   13  C   UNL     1      44.127 -19.387   4.280  1.00  0.00     0.037 A 
HETATM   14  C   UNL     1      43.711 -18.074   4.048  1.00  0.00     0.010 A 
BRANCH  12  15
HETATM   15  O   UNL     1      44.258 -21.645   3.623  1.00  0.00    -0.361 OA
HETATM   16  H   UNL     1      43.577 -22.277   3.341  1.00  0.00     0.217 HD
ENDBRANCH  12  15
ENDBRANCH   8   9
ENDBRANCH   3   8
ENDBRANCH   1   3
BRANCH   1  17
HETATM   17  C   UNL     1      40.113 -14.208   3.259  1.00  0.00     0.034 A 
HETATM   18  C   UNL     1      39.836 -13.138   4.153  1.00  0.00     0.013 A 
HETATM   19  C   UNL     1      39.395 -11.910   3.624  1.00  0.00     0.044 A 
HETATM   20  C   UNL     1      39.985 -13.224   5.554  1.00  0.00     0.015 A 
HETATM   21  C   UNL     1      39.123 -10.815   4.462  1.00  0.00     0.030 A 
HETATM   22  N   UNL     1      39.235 -11.786   2.298  1.00  0.00    -0.355 N 
HETATM   23  C   UNL     1      39.287 -10.929   5.840  1.00  0.00     0.002 A 
HETATM   24  C   UNL     1      39.716 -12.134   6.386  1.00  0.00     0.001 A 
HETATM   25  H   UNL     1      38.904 -10.893   1.943  1.00  0.00     0.166 HD
HETATM   26  C   UNL     1      39.499 -12.758   1.408  1.00  0.00     0.044 A 
HETATM   27  C   UNL     1      39.970 -14.011   1.859  1.00  0.00     0.013 A 
HETATM   28  C   UNL     1      39.308 -12.505   0.040  1.00  0.00     0.030 A 
HETATM   29  C   UNL     1      40.276 -14.977   0.872  1.00  0.00     0.015 A 
HETATM   30  C   UNL     1      40.082 -14.720  -0.488  1.00  0.00     0.001 A 
HETATM   31  C   UNL     1      39.594 -13.488  -0.904  1.00  0.00     0.002 A 
ENDBRANCH   1  17
TORSDOF 7
ENDMDL
MODEL 10
REMARK VINA RESULT:      -8.2      3.720      7.249
REMARK  7 active torsions:
REMARK  status: ('A' for Active; 'I' for Inactive)
REMARK    1  A    between atoms: O_2  and  C_3 
REMARK    2  A    between atoms: C_3  and  C_4 
REMARK    3  A    between atoms: C_4  and  N_5 
REMARK    4  A    between atoms: C_4  and  C_21 
REMARK    5  A    between atoms: N_5  and  C_6 
REMARK    6  A    between atoms: C_21  and  C_22 
REMARK    7  A    between atoms: C_25  and  O_26 
ROOT
HETATM    1  N   UNL     1      39.924 -13.891   5.587  1.00  0.00    -0.277 NA
HETATM    2  H   UNL     1      39.107 -13.835   4.975  1.00  0.00     0.128 HD
ENDROOT
BRANCH   1   3
HETATM    3  C   UNL     1      40.267 -12.507   6.062  1.00  0.00     0.164 C 
BRANCH   3   4
HETATM    4  C   UNL     1      39.085 -11.525   6.013  1.00  0.00     0.276 C 
HETATM    5  O   UNL     1      38.360 -11.236   6.957  1.00  0.00    -0.263 OA
BRANCH   4   6
HETATM    6  O   UNL     1      38.983 -10.983   4.764  1.00  0.00    -0.325 OA
HETATM    7  C   UNL     1      38.430  -9.665   4.737  1.00  0.00     0.213 C 
ENDBRANCH   4   6
ENDBRANCH   3   4
BRANCH   3   8
HETATM    8  C   UNL     1      41.412 -11.954   5.192  1.00  0.00     0.068 C 
BRANCH   8   9
HETATM    9  C   UNL     1      42.626 -11.599   6.019  1.00  0.00    -0.056 A 
HETATM   10  C   UNL     1      43.827 -12.308   5.848  1.00  0.00     0.010 A 
HETATM   11  C   UNL     1      44.945 -12.010   6.630  1.00  0.00     0.037 A 
HETATM   12  C   UNL     1      44.861 -11.005   7.586  1.00  0.00     0.065 A 
HETATM   13  C   UNL     1      43.681 -10.294   7.770  1.00  0.00     0.037 A 
HETATM   14  C   UNL     1      42.564 -10.588   6.987  1.00  0.00     0.010 A 
BRANCH  12  15
HETATM   15  O   UNL     1      45.925 -10.681   8.373  1.00  0.00    -0.361 OA
HETATM   16  H   UNL     1      46.339 -11.498   8.700  1.00  0.00     0.217 HD
ENDBRANCH  12  15
ENDBRANCH   8   9
ENDBRANCH   3   8
ENDBRANCH   1   3
BRANCH   1  17
HETATM   17  C   UNL     1      40.956 -14.628   4.956  1.00  0.00     0.034 A 
HETATM   18  C   UNL     1      40.938 -14.715   3.538  1.00  0.00     0.013 A 
HETATM   19  C   UNL     1      41.933 -15.473   2.892  1.00  0.00     0.044 A 
HETATM   20  C   UNL     1      39.980 -14.076   2.722  1.00  0.00     0.015 A 
HETATM   21  C   UNL     1      41.971 -15.578   1.492  1.00  0.00     0.030 A 
HETATM   22  N   UNL     1      42.861 -16.101   3.629  1.00  0.00    -0.355 N 
HETATM   23  C   UNL     1      41.016 -14.929   0.713  1.00  0.00     0.002 A 
HETATM   24  C   UNL     1      40.019 -14.180   1.329  1.00  0.00     0.001 A 
HETATM   25  H   UNL     1      43.562 -16.651   3.139  1.00  0.00     0.166 HD
HETATM   26  C   UNL     1      42.935 -16.038   4.970  1.00  0.00     0.044 A 
HETATM   27  C   UNL     1      41.987 -15.277   5.688  1.00  0.00     0.013 A 
HETATM   28  C   UNL     1      43.964 -16.727   5.633  1.00  0.00     0.030 A 
HETATM   29  C   UNL     1      42.146 -15.209   7.092  1.00  0.00     0.015 A 
HETATM   30  C   UNL     1      43.171 -15.898   7.746  1.00  0.00     0.001 A 
HETATM   31  C   UNL     1      44.076 -16.661   7.019  1.00  0.00     0.002 A 
ENDBRANCH   1  17
TORSDOF 7
ENDMDL
