MODEL 1
REMARK VINA RESULT:      -8.3      0.000      0.000
REMARK  6 active torsions:
REMARK  status: ('A' for Active; 'I' for Inactive)
REMARK    1  A    between atoms: C_2  and  O_3 
REMARK    2  A    between atoms: C_2  and  C_4 
REMARK    3  A    between atoms: C_7  and  N_8 
REMARK       I    between atoms: N_8  and  C_9 
REMARK    4  A    between atoms: C_9  and  C_10 
REMARK    5  A    between atoms: C_13  and  C_14 
REMARK    6  A    between atoms: C_19  and  C_20 
ROOT
HETATM    1  C   UNL     1      42.026 -12.611   4.363  1.00  0.00     0.096 C 
HETATM    2  C   UNL     1      42.019 -11.679   5.383  1.00  0.00     0.138 C 
HETATM    3  N   UNL     1      41.976 -10.449   4.766  1.00  0.00    -0.240 N 
HETATM    4  C   UNL     1      41.975  -9.175   5.464  1.00  0.00     0.221 C 
HETATM    5  C   UNL     1      41.670  -9.384   6.959  1.00  0.00     0.067 C 
HETATM    6  C   UNL     1      42.438 -10.586   7.529  1.00  0.00     0.125 C 
HETATM    7  N   UNL     1      42.079 -11.783   6.742  1.00  0.00    -0.365 N 
HETATM    8  N   UNL     1      42.141 -10.515   3.437  1.00  0.00    -0.181 NA
HETATM    9  C   UNL     1      42.138 -11.828   3.190  1.00  0.00     0.160 C 
HETATM   10  H   UNL     1      42.510 -12.624   7.134  1.00  0.00     0.162 HD
ENDROOT
BRANCH   1  11
HETATM   11  C   UNL     1      41.979 -14.063   4.424  1.00  0.00     0.261 C 
HETATM   12  N   UNL     1      43.038 -14.673   3.777  1.00  0.00    -0.323 N 
HETATM   13  H   UNL     1      43.747 -14.045   3.412  1.00  0.00     0.169 HD
HETATM   14  O   UNL     1      41.091 -14.627   5.051  1.00  0.00    -0.267 OA
BRANCH  12  15
HETATM   15  C   UNL     1      43.318 -16.052   3.700  1.00  0.00     0.035 A 
HETATM   16  C   UNL     1      43.059 -16.839   2.579  1.00  0.00     0.030 A 
HETATM   17  C   UNL     1      43.332 -18.213   2.589  1.00  0.00     0.012 A 
HETATM   18  C   UNL     1      43.867 -18.836   3.723  1.00  0.00    -0.030 A 
HETATM   19  C   UNL     1      44.154 -18.030   4.836  1.00  0.00     0.012 A 
HETATM   20  C   UNL     1      43.885 -16.657   4.825  1.00  0.00     0.030 A 
BRANCH  18  21
HETATM   21  C   UNL     1      44.145 -20.322   3.806  1.00  0.00     0.147 C 
HETATM   22  C   UNL     1      43.760 -21.013   5.113  1.00  0.00     0.044 C 
BRANCH  21  23
HETATM   23  O   UNL     1      43.457 -20.957   2.730  1.00  0.00    -0.391 OA
HETATM   24  H   UNL     1      42.512 -20.764   2.837  1.00  0.00     0.210 HD
ENDBRANCH  21  23
ENDBRANCH  18  21
ENDBRANCH  12  15
ENDBRANCH   1  11
BRANCH   4  25
HETATM   25  C   UNL     1      40.963  -8.217   4.873  1.00  0.00     0.409 C 
HETATM   26  F   UNL     1      39.813  -8.838   4.525  1.00  0.00    -0.169 F 
HETATM   27  F   UNL     1      40.628  -7.279   5.801  1.00  0.00    -0.169 F 
HETATM   28  F   UNL     1      41.418  -7.537   3.801  1.00  0.00    -0.169 F 
ENDBRANCH   4  25
BRANCH   6  29
HETATM   29  C   UNL     1      43.925 -10.314   7.644  1.00  0.00     0.005 A 
HETATM   30  S   UNL     1      44.470  -8.870   8.405  1.00  0.00    -0.104 SA
HETATM   31  C   UNL     1      46.109  -9.258   8.130  1.00  0.00     0.050 A 
HETATM   32  C   UNL     1      46.253 -10.469   7.494  1.00  0.00     0.008 A 
HETATM   33  C   UNL     1      44.996 -11.080   7.218  1.00  0.00     0.017 A 
ENDBRANCH   6  29
TORSDOF 6
ENDMDL
MODEL 2
REMARK VINA RESULT:      -8.1      4.466      6.227
REMARK  6 active torsions:
REMARK  status: ('A' for Active; 'I' for Inactive)
REMARK    1  A    between atoms: C_2  and  O_3 
REMARK    2  A    between atoms: C_2  and  C_4 
REMARK    3  A    between atoms: C_7  and  N_8 
REMARK       I    between atoms: N_8  and  C_9 
REMARK    4  A    between atoms: C_9  and  C_10 
REMARK    5  A    between atoms: C_13  and  C_14 
REMARK    6  A    between atoms: C_19  and  C_20 
ROOT
HETATM    1  C   UNL     1      40.391 -13.833   2.267  1.00  0.00     0.096 C 
HETATM    2  C   UNL     1      40.587 -13.034   1.157  1.00  0.00     0.138 C 
HETATM    3  N   UNL     1      40.216 -11.764   1.539  1.00  0.00    -0.240 N 
HETATM    4  C   UNL     1      40.241 -10.600   0.670  1.00  0.00     0.221 C 
HETATM    5  C   UNL     1      41.061 -10.897  -0.599  1.00  0.00     0.067 C 
HETATM    6  C   UNL     1      40.740 -12.289  -1.166  1.00  0.00     0.125 C 
HETATM    7  N   UNL     1      41.005 -13.292  -0.116  1.00  0.00    -0.365 N 
HETATM    8  N   UNL     1      39.626 -11.723   2.743  1.00  0.00    -0.181 NA
HETATM    9  C   UNL     1      39.762 -12.971   3.198  1.00  0.00     0.160 C 
HETATM   10  H   UNL     1      40.877 -14.242  -0.473  1.00  0.00     0.162 HD
ENDROOT
BRANCH   1  11
HETATM   11  C   UNL     1      40.695 -15.240   2.471  1.00  0.00     0.261 C 
HETATM   12  N   UNL     1      42.034 -15.482   2.715  1.00  0.00    -0.323 N 
HETATM   13  H   UNL     1      42.618 -14.656   2.797  1.00  0.00     0.169 HD
HETATM   14  O   UNL     1      39.797 -16.073   2.470  1.00  0.00    -0.267 OA
BRANCH  12  15
HETATM   15  C   UNL     1      42.644 -16.718   3.008  1.00  0.00     0.035 A 
HETATM   16  C   UNL     1      42.796 -17.751   2.084  1.00  0.00     0.030 A 
HETATM   17  C   UNL     1      43.382 -18.967   2.459  1.00  0.00     0.012 A 
HETATM   18  C   UNL     1      43.826 -19.183   3.769  1.00  0.00    -0.030 A 
HETATM   19  C   UNL     1      43.698 -18.126   4.684  1.00  0.00     0.012 A 
HETATM   20  C   UNL     1      43.117 -16.909   4.309  1.00  0.00     0.030 A 
BRANCH  18  21
HETATM   21  C   UNL     1      44.430 -20.489   4.242  1.00  0.00     0.147 C 
HETATM   22  C   UNL     1      44.026 -20.957   5.638  1.00  0.00     0.044 C 
BRANCH  21  23
HETATM   23  O   UNL     1      44.080 -21.499   3.298  1.00  0.00    -0.391 OA
HETATM   24  H   UNL     1      44.792 -22.158   3.303  1.00  0.00     0.210 HD
ENDBRANCH  21  23
ENDBRANCH  18  21
ENDBRANCH  12  15
ENDBRANCH   1  11
BRANCH   4  25
HETATM   25  C   UNL     1      40.822  -9.393   1.374  1.00  0.00     0.409 C 
HETATM   26  F   UNL     1      41.762  -9.735   2.285  1.00  0.00    -0.169 F 
HETATM   27  F   UNL     1      41.442  -8.591   0.465  1.00  0.00    -0.169 F 
HETATM   28  F   UNL     1      39.900  -8.623   1.985  1.00  0.00    -0.169 F 
ENDBRANCH   4  25
BRANCH   6  29
HETATM   29  C   UNL     1      39.355 -12.351  -1.779  1.00  0.00     0.005 A 
HETATM   30  S   UNL     1      38.694 -10.951  -2.531  1.00  0.00    -0.104 SA
HETATM   31  C   UNL     1      37.235 -11.754  -2.907  1.00  0.00     0.050 A 
HETATM   32  C   UNL     1      37.248 -13.068  -2.497  1.00  0.00     0.008 A 
HETATM   33  C   UNL     1      38.471 -13.413  -1.852  1.00  0.00     0.017 A 
ENDBRANCH   6  29
TORSDOF 6
ENDMDL
MODEL 3
REMARK VINA RESULT:      -7.8     17.340     18.876
REMARK  6 active torsions:
REMARK  status: ('A' for Active; 'I' for Inactive)
REMARK    1  A    between atoms: C_2  and  O_3 
REMARK    2  A    between atoms: C_2  and  C_4 
REMARK    3  A    between atoms: C_7  and  N_8 
REMARK       I    between atoms: N_8  and  C_9 
REMARK    4  A    between atoms: C_9  and  C_10 
REMARK    5  A    between atoms: C_13  and  C_14 
REMARK    6  A    between atoms: C_19  and  C_20 
ROOT
HETATM    1  C   UNL     1      43.776 -30.317   0.603  1.00  0.00     0.096 C 
HETATM    2  C   UNL     1      44.663 -29.517  -0.093  1.00  0.00     0.138 C 
HETATM    3  N   UNL     1      44.678 -30.006  -1.380  1.00  0.00    -0.240 N 
HETATM    4  C   UNL     1      45.496 -29.472  -2.456  1.00  0.00     0.221 C 
HETATM    5  C   UNL     1      46.058 -28.093  -2.067  1.00  0.00     0.067 C 
HETATM    6  C   UNL     1      46.569 -28.079  -0.618  1.00  0.00     0.125 C 
HETATM    7  N   UNL     1      45.456 -28.468   0.271  1.00  0.00    -0.365 N 
HETATM    8  N   UNL     1      44.015 -31.164  -1.516  1.00  0.00    -0.181 NA
HETATM    9  C   UNL     1      43.442 -31.335  -0.322  1.00  0.00     0.160 C 
HETATM   10  H   UNL     1      45.729 -28.400   1.254  1.00  0.00     0.162 HD
ENDROOT
BRANCH   1  11
HETATM   11  C   UNL     1      43.301 -30.213   1.973  1.00  0.00     0.261 C 
HETATM   12  N   UNL     1      42.605 -31.330   2.398  1.00  0.00    -0.323 N 
HETATM   13  H   UNL     1      42.579 -32.103   1.741  1.00  0.00     0.169 HD
HETATM   14  O   UNL     1      43.574 -29.228   2.648  1.00  0.00    -0.267 OA
BRANCH  12  15
HETATM   15  C   UNL     1      42.068 -31.571   3.678  1.00  0.00     0.035 A 
HETATM   16  C   UNL     1      42.820 -32.001   4.770  1.00  0.00     0.030 A 
HETATM   17  C   UNL     1      42.209 -32.255   6.006  1.00  0.00     0.012 A 
HETATM   18  C   UNL     1      40.830 -32.089   6.178  1.00  0.00    -0.030 A 
HETATM   19  C   UNL     1      40.086 -31.626   5.081  1.00  0.00     0.012 A 
HETATM   20  C   UNL     1      40.696 -31.368   3.849  1.00  0.00     0.030 A 
BRANCH  18  21
HETATM   21  C   UNL     1      40.109 -32.386   7.476  1.00  0.00     0.147 C 
HETATM   22  C   UNL     1      40.933 -32.257   8.755  1.00  0.00     0.044 C 
BRANCH  21  23
HETATM   23  O   UNL     1      38.986 -31.511   7.562  1.00  0.00    -0.391 OA
HETATM   24  H   UNL     1      39.107 -30.818   6.892  1.00  0.00     0.210 HD
ENDBRANCH  21  23
ENDBRANCH  18  21
ENDBRANCH  12  15
ENDBRANCH   1  11
BRANCH   4  25
HETATM   25  C   UNL     1      44.710 -29.351  -3.744  1.00  0.00     0.409 C 
HETATM   26  F   UNL     1      43.390 -29.158  -3.522  1.00  0.00    -0.169 F 
HETATM   27  F   UNL     1      45.144 -28.266  -4.442  1.00  0.00    -0.169 F 
HETATM   28  F   UNL     1      44.850 -30.408  -4.569  1.00  0.00    -0.169 F 
ENDBRANCH   4  25
BRANCH   6  29
HETATM   29  C   UNL     1      47.838 -28.890  -0.451  1.00  0.00     0.005 A 
HETATM   30  S   UNL     1      48.217 -29.575   1.081  1.00  0.00    -0.104 SA
HETATM   31  C   UNL     1      49.677 -30.244   0.503  1.00  0.00     0.050 A 
HETATM   32  C   UNL     1      49.872 -29.980  -0.833  1.00  0.00     0.008 A 
HETATM   33  C   UNL     1      48.811 -29.205  -1.385  1.00  0.00     0.017 A 
ENDBRANCH   6  29
TORSDOF 6
ENDMDL
MODEL 4
REMARK VINA RESULT:      -7.7      6.098     10.236
REMARK  6 active torsions:
REMARK  status: ('A' for Active; 'I' for Inactive)
REMARK    1  A    between atoms: C_2  and  O_3 
REMARK    2  A    between atoms: C_2  and  C_4 
REMARK    3  A    between atoms: C_7  and  N_8 
REMARK       I    between atoms: N_8  and  C_9 
REMARK    4  A    between atoms: C_9  and  C_10 
REMARK    5  A    between atoms: C_13  and  C_14 
REMARK    6  A    between atoms: C_19  and  C_20 
ROOT
HETATM    1  C   UNL     1      44.053 -10.170  10.254  1.00  0.00     0.096 C 
HETATM    2  C   UNL     1      43.313 -10.207   9.088  1.00  0.00     0.138 C 
HETATM    3  N   UNL     1      44.224 -10.401   8.073  1.00  0.00    -0.240 N 
HETATM    4  C   UNL     1      43.883 -10.483   6.663  1.00  0.00     0.221 C 
HETATM    5  C   UNL     1      42.366 -10.681   6.489  1.00  0.00     0.067 C 
HETATM    6  C   UNL     1      41.566  -9.771   7.435  1.00  0.00     0.125 C 
HETATM    7  N   UNL     1      41.984 -10.059   8.822  1.00  0.00    -0.365 N 
HETATM    8  N   UNL     1      45.499 -10.307   8.478  1.00  0.00    -0.181 NA
HETATM    9  C   UNL     1      45.395 -10.199   9.805  1.00  0.00     0.160 C 
HETATM   10  H   UNL     1      41.422  -9.529   9.492  1.00  0.00     0.162 HD
ENDROOT
BRANCH   1  11
HETATM   11  C   UNL     1      43.613 -10.075  11.637  1.00  0.00     0.261 C 
HETATM   12  N   UNL     1      43.212  -8.802  11.999  1.00  0.00    -0.323 N 
HETATM   13  H   UNL     1      43.200  -8.119  11.248  1.00  0.00     0.169 HD
HETATM   14  O   UNL     1      43.573 -11.075  12.343  1.00  0.00    -0.267 OA
BRANCH  12  15
HETATM   15  C   UNL     1      42.681  -8.389  13.236  1.00  0.00     0.035 A 
HETATM   16  C   UNL     1      41.563  -8.967  13.837  1.00  0.00     0.030 A 
HETATM   17  C   UNL     1      41.070  -8.478  15.054  1.00  0.00     0.012 A 
HETATM   18  C   UNL     1      41.680  -7.395  15.699  1.00  0.00    -0.030 A 
HETATM   19  C   UNL     1      42.823  -6.840  15.103  1.00  0.00     0.012 A 
HETATM   20  C   UNL     1      43.318  -7.331  13.889  1.00  0.00     0.030 A 
BRANCH  18  21
HETATM   21  C   UNL     1      41.170  -6.799  16.994  1.00  0.00     0.147 C 
HETATM   22  C   UNL     1      40.515  -7.768  17.976  1.00  0.00     0.044 C 
BRANCH  21  23
HETATM   23  O   UNL     1      42.266  -6.157  17.642  1.00  0.00    -0.391 OA
HETATM   24  H   UNL     1      42.042  -6.081  18.583  1.00  0.00     0.210 HD
ENDBRANCH  21  23
ENDBRANCH  18  21
ENDBRANCH  12  15
ENDBRANCH   1  11
BRANCH   4  25
HETATM   25  C   UNL     1      44.620 -11.613   5.977  1.00  0.00     0.409 C 
HETATM   26  F   UNL     1      44.023 -11.989   4.823  1.00  0.00    -0.169 F 
HETATM   27  F   UNL     1      45.875 -11.202   5.644  1.00  0.00    -0.169 F 
HETATM   28  F   UNL     1      44.777 -12.708   6.749  1.00  0.00    -0.169 F 
ENDBRANCH   4  25
BRANCH   6  29
HETATM   29  C   UNL     1      41.646  -8.313   7.029  1.00  0.00     0.005 A 
HETATM   30  S   UNL     1      41.323  -7.863   5.399  1.00  0.00    -0.104 SA
HETATM   31  C   UNL     1      41.624  -6.214   5.719  1.00  0.00     0.050 A 
HETATM   32  C   UNL     1      41.940  -5.993   7.040  1.00  0.00     0.008 A 
HETATM   33  C   UNL     1      41.948  -7.200   7.796  1.00  0.00     0.017 A 
ENDBRANCH   6  29
TORSDOF 6
ENDMDL
MODEL 5
REMARK VINA RESULT:      -7.7      4.037      5.238
REMARK  6 active torsions:
REMARK  status: ('A' for Active; 'I' for Inactive)
REMARK    1  A    between atoms: C_2  and  O_3 
REMARK    2  A    between atoms: C_2  and  C_4 
REMARK    3  A    between atoms: C_7  and  N_8 
REMARK       I    between atoms: N_8  and  C_9 
REMARK    4  A    between atoms: C_9  and  C_10 
REMARK    5  A    between atoms: C_13  and  C_14 
REMARK    6  A    between atoms: C_19  and  C_20 
ROOT
HETATM    1  C   UNL     1      40.260 -14.330   1.134  1.00  0.00     0.096 C 
HETATM    2  C   UNL     1      39.453 -13.237   1.389  1.00  0.00     0.138 C 
HETATM    3  N   UNL     1      39.438 -12.503   0.225  1.00  0.00    -0.240 N 
HETATM    4  C   UNL     1      38.723 -11.250   0.049  1.00  0.00     0.221 C 
HETATM    5  C   UNL     1      37.715 -11.043   1.194  1.00  0.00     0.067 C 
HETATM    6  C   UNL     1      38.325 -11.409   2.556  1.00  0.00     0.125 C 
HETATM    7  N   UNL     1      38.782 -12.812   2.499  1.00  0.00    -0.365 N 
HETATM    8  N   UNL     1      40.315 -12.939  -0.691  1.00  0.00    -0.181 NA
HETATM    9  C   UNL     1      40.789 -14.066  -0.152  1.00  0.00     0.160 C 
HETATM   10  H   UNL     1      39.128 -13.124   3.409  1.00  0.00     0.162 HD
ENDROOT
BRANCH   1  11
HETATM   11  C   UNL     1      40.566 -15.481   1.968  1.00  0.00     0.261 C 
HETATM   12  N   UNL     1      41.850 -15.963   1.787  1.00  0.00    -0.323 N 
HETATM   13  H   UNL     1      42.436 -15.418   1.163  1.00  0.00     0.169 HD
HETATM   14  O   UNL     1      39.742 -15.898   2.772  1.00  0.00    -0.267 OA
BRANCH  12  15
HETATM   15  C   UNL     1      42.475 -17.020   2.476  1.00  0.00     0.035 A 
HETATM   16  C   UNL     1      43.066 -16.890   3.732  1.00  0.00     0.030 A 
HETATM   17  C   UNL     1      43.701 -17.981   4.341  1.00  0.00     0.012 A 
HETATM   18  C   UNL     1      43.765 -19.228   3.708  1.00  0.00    -0.030 A 
HETATM   19  C   UNL     1      43.140 -19.357   2.457  1.00  0.00     0.012 A 
HETATM   20  C   UNL     1      42.502 -18.270   1.850  1.00  0.00     0.030 A 
BRANCH  18  21
HETATM   21  C   UNL     1      44.472 -20.429   4.298  1.00  0.00     0.147 C 
HETATM   22  C   UNL     1      44.093 -20.804   5.729  1.00  0.00     0.044 C 
BRANCH  21  23
HETATM   23  O   UNL     1      44.220 -21.546   3.448  1.00  0.00    -0.391 OA
HETATM   24  H   UNL     1      45.056 -21.771   3.010  1.00  0.00     0.210 HD
ENDBRANCH  21  23
ENDBRANCH  18  21
ENDBRANCH  12  15
ENDBRANCH   1  11
BRANCH   4  25
HETATM   25  C   UNL     1      37.994 -11.207  -1.277  1.00  0.00     0.409 C 
HETATM   26  F   UNL     1      38.822 -10.920  -2.308  1.00  0.00    -0.169 F 
HETATM   27  F   UNL     1      37.461 -12.431  -1.542  1.00  0.00    -0.169 F 
HETATM   28  F   UNL     1      36.966 -10.336  -1.305  1.00  0.00    -0.169 F 
ENDBRANCH   4  25
BRANCH   6  29
HETATM   29  C   UNL     1      39.373 -10.409   3.001  1.00  0.00     0.005 A 
HETATM   30  S   UNL     1      40.772 -10.957   3.841  1.00  0.00    -0.104 SA
HETATM   31  C   UNL     1      41.384  -9.372   4.003  1.00  0.00     0.050 A 
HETATM   32  C   UNL     1      40.564  -8.439   3.412  1.00  0.00     0.008 A 
HETATM   33  C   UNL     1      39.408  -9.035   2.831  1.00  0.00     0.017 A 
ENDBRANCH   6  29
TORSDOF 6
ENDMDL
MODEL 6
REMARK VINA RESULT:      -7.6     17.437     19.218
REMARK  6 active torsions:
REMARK  status: ('A' for Active; 'I' for Inactive)
REMARK    1  A    between atoms: C_2  and  O_3 
REMARK    2  A    between atoms: C_2  and  C_4 
REMARK    3  A    between atoms: C_7  and  N_8 
REMARK       I    between atoms: N_8  and  C_9 
REMARK    4  A    between atoms: C_9  and  C_10 
REMARK    5  A    between atoms: C_13  and  C_14 
REMARK    6  A    between atoms: C_19  and  C_20 
ROOT
HETATM    1  C   UNL     1      47.924 -29.275  -0.345  1.00  0.00     0.096 C 
HETATM    2  C   UNL     1      46.711 -29.869  -0.637  1.00  0.00     0.138 C 
HETATM    3  N   UNL     1      46.060 -28.996  -1.479  1.00  0.00    -0.240 N 
HETATM    4  C   UNL     1      44.729 -29.211  -2.023  1.00  0.00     0.221 C 
HETATM    5  C   UNL     1      44.302 -30.677  -1.828  1.00  0.00     0.067 C 
HETATM    6  C   UNL     1      44.665 -31.189  -0.426  1.00  0.00     0.125 C 
HETATM    7  N   UNL     1      46.120 -31.031  -0.234  1.00  0.00    -0.365 N 
HETATM    8  N   UNL     1      46.679 -27.812  -1.600  1.00  0.00    -0.181 NA
HETATM    9  C   UNL     1      47.826 -27.994  -0.940  1.00  0.00     0.160 C 
HETATM   10  H   UNL     1      46.419 -31.429   0.660  1.00  0.00     0.162 HD
ENDROOT
BRANCH   1  11
HETATM   11  C   UNL     1      49.051 -29.780   0.423  1.00  0.00     0.261 C 
HETATM   12  N   UNL     1      48.717 -30.126   1.720  1.00  0.00    -0.323 N 
HETATM   13  H   UNL     1      47.731 -30.061   1.949  1.00  0.00     0.169 HD
HETATM   14  O   UNL     1      50.148 -29.913  -0.103  1.00  0.00    -0.267 OA
BRANCH  12  15
HETATM   15  C   UNL     1      49.556 -30.696   2.699  1.00  0.00     0.035 A 
HETATM   16  C   UNL     1      50.025 -32.008   2.654  1.00  0.00     0.030 A 
HETATM   17  C   UNL     1      50.828 -32.517   3.684  1.00  0.00     0.012 A 
HETATM   18  C   UNL     1      51.177 -31.728   4.787  1.00  0.00    -0.030 A 
HETATM   19  C   UNL     1      50.726 -30.399   4.807  1.00  0.00     0.012 A 
HETATM   20  C   UNL     1      49.928 -29.889   3.777  1.00  0.00     0.030 A 
BRANCH  18  21
HETATM   21  C   UNL     1      52.007 -32.235   5.947  1.00  0.00     0.147 C 
HETATM   22  C   UNL     1      52.707 -33.577   5.746  1.00  0.00     0.044 C 
BRANCH  21  23
HETATM   23  O   UNL     1      52.989 -31.245   6.248  1.00  0.00    -0.391 OA
HETATM   24  H   UNL     1      53.240 -30.823   5.410  1.00  0.00     0.210 HD
ENDBRANCH  21  23
ENDBRANCH  18  21
ENDBRANCH  12  15
ENDBRANCH   1  11
BRANCH   4  25
HETATM   25  C   UNL     1      44.667 -28.859  -3.494  1.00  0.00     0.409 C 
HETATM   26  F   UNL     1      45.627 -29.486  -4.212  1.00  0.00    -0.169 F 
HETATM   27  F   UNL     1      43.474 -29.268  -4.009  1.00  0.00    -0.169 F 
HETATM   28  F   UNL     1      44.749 -27.536  -3.742  1.00  0.00    -0.169 F 
ENDBRANCH   4  25
BRANCH   6  29
HETATM   29  C   UNL     1      43.802 -30.563   0.652  1.00  0.00     0.005 A 
HETATM   30  S   UNL     1      43.758 -31.265   2.223  1.00  0.00    -0.104 SA
HETATM   31  C   UNL     1      42.642 -30.103   2.789  1.00  0.00     0.050 A 
HETATM   32  C   UNL     1      42.321 -29.181   1.820  1.00  0.00     0.008 A 
HETATM   33  C   UNL     1      42.992 -29.442   0.591  1.00  0.00     0.017 A 
ENDBRANCH   6  29
TORSDOF 6
ENDMDL
MODEL 7
REMARK VINA RESULT:      -7.6      4.877      9.093
REMARK  6 active torsions:
REMARK  status: ('A' for Active; 'I' for Inactive)
REMARK    1  A    between atoms: C_2  and  O_3 
REMARK    2  A    between atoms: C_2  and  C_4 
REMARK    3  A    between atoms: C_7  and  N_8 
REMARK       I    between atoms: N_8  and  C_9 
REMARK    4  A    between atoms: C_9  and  C_10 
REMARK    5  A    between atoms: C_13  and  C_14 
REMARK    6  A    between atoms: C_19  and  C_20 
ROOT
HETATM    1  C   UNL     1      42.881 -10.924   6.670  1.00  0.00     0.096 C 
HETATM    2  C   UNL     1      41.942 -11.836   6.229  1.00  0.00     0.138 C 
HETATM    3  N   UNL     1      42.604 -12.657   5.343  1.00  0.00    -0.240 N 
HETATM    4  C   UNL     1      41.989 -13.755   4.617  1.00  0.00     0.221 C 
HETATM    5  C   UNL     1      40.618 -14.098   5.227  1.00  0.00     0.067 C 
HETATM    6  C   UNL     1      39.813 -12.832   5.557  1.00  0.00     0.125 C 
HETATM    7  N   UNL     1      40.611 -12.000   6.480  1.00  0.00    -0.365 N 
HETATM    8  N   UNL     1      43.840 -12.229   5.045  1.00  0.00    -0.181 NA
HETATM    9  C   UNL     1      44.019 -11.198   5.874  1.00  0.00     0.160 C 
HETATM   10  H   UNL     1      40.082 -11.180   6.786  1.00  0.00     0.162 HD
ENDROOT
BRANCH   1  11
HETATM   11  C   UNL     1      42.768  -9.879   7.675  1.00  0.00     0.261 C 
HETATM   12  N   UNL     1      42.762 -10.363   8.971  1.00  0.00    -0.323 N 
HETATM   13  H   UNL     1      42.912 -11.363   9.063  1.00  0.00     0.169 HD
HETATM   14  O   UNL     1      42.742  -8.701   7.342  1.00  0.00    -0.267 OA
BRANCH  12  15
HETATM   15  C   UNL     1      42.724  -9.618  10.166  1.00  0.00     0.035 A 
HETATM   16  C   UNL     1      43.858  -9.213  10.868  1.00  0.00     0.030 A 
HETATM   17  C   UNL     1      43.741  -8.503  12.070  1.00  0.00     0.012 A 
HETATM   18  C   UNL     1      42.486  -8.185  12.604  1.00  0.00    -0.030 A 
HETATM   19  C   UNL     1      41.350  -8.570  11.874  1.00  0.00     0.012 A 
HETATM   20  C   UNL     1      41.467  -9.275  10.671  1.00  0.00     0.030 A 
BRANCH  18  21
HETATM   21  C   UNL     1      42.297  -7.456  13.917  1.00  0.00     0.147 C 
HETATM   22  C   UNL     1      41.710  -8.271  15.067  1.00  0.00     0.044 C 
BRANCH  21  23
HETATM   23  O   UNL     1      43.566  -6.942  14.318  1.00  0.00    -0.391 OA
HETATM   24  H   UNL     1      44.233  -7.328  13.729  1.00  0.00     0.210 HD
ENDBRANCH  21  23
ENDBRANCH  18  21
ENDBRANCH  12  15
ENDBRANCH   1  11
BRANCH   4  25
HETATM   25  C   UNL     1      42.867 -14.987   4.625  1.00  0.00     0.409 C 
HETATM   26  F   UNL     1      43.687 -15.025   5.700  1.00  0.00    -0.169 F 
HETATM   27  F   UNL     1      42.087 -16.101   4.699  1.00  0.00    -0.169 F 
HETATM   28  F   UNL     1      43.618 -15.129   3.514  1.00  0.00    -0.169 F 
ENDBRANCH   4  25
BRANCH   6  29
HETATM   29  C   UNL     1      39.327 -12.122   4.308  1.00  0.00     0.005 A 
HETATM   30  S   UNL     1      39.021 -10.429   4.355  1.00  0.00    -0.104 SA
HETATM   31  C   UNL     1      38.525 -10.401   2.722  1.00  0.00     0.050 A 
HETATM   32  C   UNL     1      38.610 -11.642   2.135  1.00  0.00     0.008 A 
HETATM   33  C   UNL     1      39.076 -12.633   3.046  1.00  0.00     0.017 A 
ENDBRANCH   6  29
TORSDOF 6
ENDMDL
MODEL 8
REMARK VINA RESULT:      -7.6      5.083      8.117
REMARK  6 active torsions:
REMARK  status: ('A' for Active; 'I' for Inactive)
REMARK    1  A    between atoms: C_2  and  O_3 
REMARK    2  A    between atoms: C_2  and  C_4 
REMARK    3  A    between atoms: C_7  and  N_8 
REMARK       I    between atoms: N_8  and  C_9 
REMARK    4  A    between atoms: C_9  and  C_10 
REMARK    5  A    between atoms: C_13  and  C_14 
REMARK    6  A    between atoms: C_19  and  C_20 
ROOT
HETATM    1  C   UNL     1      41.336 -13.401   2.505  1.00  0.00     0.096 C 
HETATM    2  C   UNL     1      41.541 -14.223   3.597  1.00  0.00     0.138 C 
HETATM    3  N   UNL     1      42.618 -13.689   4.269  1.00  0.00    -0.240 N 
HETATM    4  C   UNL     1      43.197 -14.251   5.478  1.00  0.00     0.221 C 
HETATM    5  C   UNL     1      42.243 -15.292   6.094  1.00  0.00     0.067 C 
HETATM    6  C   UNL     1      41.637 -16.208   5.020  1.00  0.00     0.125 C 
HETATM    7  N   UNL     1      40.935 -15.364   4.032  1.00  0.00    -0.365 N 
HETATM    8  N   UNL     1      43.230 -12.704   3.596  1.00  0.00    -0.181 NA
HETATM    9  C   UNL     1      42.433 -12.507   2.543  1.00  0.00     0.160 C 
HETATM   10  H   UNL     1      40.451 -15.938   3.337  1.00  0.00     0.162 HD
ENDROOT
BRANCH   1  11
HETATM   11  C   UNL     1      40.288 -13.431   1.497  1.00  0.00     0.261 C 
HETATM   12  N   UNL     1      40.002 -12.185   0.968  1.00  0.00    -0.323 N 
HETATM   13  H   UNL     1      40.600 -11.429   1.284  1.00  0.00     0.169 HD
HETATM   14  O   UNL     1      39.788 -14.495   1.156  1.00  0.00    -0.267 OA
BRANCH  12  15
HETATM   15  C   UNL     1      39.088 -11.879  -0.059  1.00  0.00     0.035 A 
HETATM   16  C   UNL     1      39.239 -12.287  -1.384  1.00  0.00     0.030 A 
HETATM   17  C   UNL     1      38.305 -11.913  -2.360  1.00  0.00     0.012 A 
HETATM   18  C   UNL     1      37.199 -11.118  -2.037  1.00  0.00    -0.030 A 
HETATM   19  C   UNL     1      37.039 -10.739  -0.694  1.00  0.00     0.012 A 
HETATM   20  C   UNL     1      37.968 -11.115   0.281  1.00  0.00     0.030 A 
BRANCH  18  21
HETATM   21  C   UNL     1      36.180 -10.650  -3.054  1.00  0.00     0.147 C 
HETATM   22  C   UNL     1      36.620  -9.524  -3.987  1.00  0.00     0.044 C 
BRANCH  21  23
HETATM   23  O   UNL     1      35.799 -11.778  -3.841  1.00  0.00    -0.391 OA
HETATM   24  H   UNL     1      34.841 -11.719  -3.985  1.00  0.00     0.210 HD
ENDBRANCH  21  23
ENDBRANCH  18  21
ENDBRANCH  12  15
ENDBRANCH   1  11
BRANCH   4  25
HETATM   25  C   UNL     1      43.499 -13.177   6.501  1.00  0.00     0.409 C 
HETATM   26  F   UNL     1      42.590 -12.176   6.476  1.00  0.00    -0.169 F 
HETATM   27  F   UNL     1      43.447 -13.712   7.751  1.00  0.00    -0.169 F 
HETATM   28  F   UNL     1      44.728 -12.637   6.376  1.00  0.00    -0.169 F 
ENDBRANCH   4  25
BRANCH   6  29
HETATM   29  C   UNL     1      42.660 -17.163   4.439  1.00  0.00     0.005 A 
HETATM   30  S   UNL     1      43.716 -18.023   5.491  1.00  0.00    -0.104 SA
HETATM   31  C   UNL     1      44.508 -18.789   4.187  1.00  0.00     0.050 A 
HETATM   32  C   UNL     1      43.974 -18.425   2.973  1.00  0.00     0.008 A 
HETATM   33  C   UNL     1      42.907 -17.492   3.117  1.00  0.00     0.017 A 
ENDBRANCH   6  29
TORSDOF 6
ENDMDL
MODEL 9
REMARK VINA RESULT:      -7.5     10.003     13.823
REMARK  6 active torsions:
REMARK  status: ('A' for Active; 'I' for Inactive)
REMARK    1  A    between atoms: C_2  and  O_3 
REMARK    2  A    between atoms: C_2  and  C_4 
REMARK    3  A    between atoms: C_7  and  N_8 
REMARK       I    between atoms: N_8  and  C_9 
REMARK    4  A    between atoms: C_9  and  C_10 
REMARK    5  A    between atoms: C_13  and  C_14 
REMARK    6  A    between atoms: C_19  and  C_20 
ROOT
HETATM    1  C   UNL     1      41.539  -7.615  14.904  1.00  0.00     0.096 C 
HETATM    2  C   UNL     1      41.099  -8.254  13.760  1.00  0.00     0.138 C 
HETATM    3  N   UNL     1      42.195  -8.333  12.931  1.00  0.00    -0.240 N 
HETATM    4  C   UNL     1      42.182  -8.917  11.600  1.00  0.00     0.221 C 
HETATM    5  C   UNL     1      40.899  -9.740  11.389  1.00  0.00     0.067 C 
HETATM    6  C   UNL     1      39.662  -9.008  11.932  1.00  0.00     0.125 C 
HETATM    7  N   UNL     1      39.881  -8.724  13.365  1.00  0.00    -0.365 N 
HETATM    8  N   UNL     1      43.250  -7.635  13.376  1.00  0.00    -0.181 NA
HETATM    9  C   UNL     1      42.863  -7.227  14.587  1.00  0.00     0.160 C 
HETATM   10  H   UNL     1      39.050  -8.303  13.787  1.00  0.00     0.162 HD
ENDROOT
BRANCH   1  11
HETATM   11  C   UNL     1      40.838  -7.338  16.148  1.00  0.00     0.261 C 
HETATM   12  N   UNL     1      41.303  -8.082  17.217  1.00  0.00    -0.323 N 
HETATM   13  H   UNL     1      42.113  -8.662  17.024  1.00  0.00     0.169 HD
HETATM   14  O   UNL     1      39.967  -6.478  16.188  1.00  0.00    -0.267 OA
BRANCH  12  15
HETATM   15  C   UNL     1      40.883  -8.012  18.559  1.00  0.00     0.035 A 
HETATM   16  C   UNL     1      39.715  -8.602  19.042  1.00  0.00     0.030 A 
HETATM   17  C   UNL     1      39.343  -8.459  20.386  1.00  0.00     0.012 A 
HETATM   18  C   UNL     1      40.126  -7.718  21.279  1.00  0.00    -0.030 A 
HETATM   19  C   UNL     1      41.316  -7.154  20.791  1.00  0.00     0.012 A 
HETATM   20  C   UNL     1      41.690  -7.301  19.450  1.00  0.00     0.030 A 
BRANCH  18  21
HETATM   21  C   UNL     1      39.755  -7.496  22.730  1.00  0.00     0.147 C 
HETATM   22  C   UNL     1      39.315  -6.084  23.109  1.00  0.00     0.044 C 
BRANCH  21  23
HETATM   23  O   UNL     1      38.708  -8.408  23.057  1.00  0.00    -0.391 OA
HETATM   24  H   UNL     1      38.184  -8.548  22.252  1.00  0.00     0.210 HD
ENDBRANCH  21  23
ENDBRANCH  18  21
ENDBRANCH  12  15
ENDBRANCH   1  11
BRANCH   4  25
HETATM   25  C   UNL     1      43.390  -9.799  11.369  1.00  0.00     0.409 C 
HETATM   26  F   UNL     1      43.565 -10.700  12.362  1.00  0.00    -0.169 F 
HETATM   27  F   UNL     1      43.217 -10.517  10.225  1.00  0.00    -0.169 F 
HETATM   28  F   UNL     1      44.542  -9.115  11.210  1.00  0.00    -0.169 F 
ENDBRANCH   4  25
BRANCH   6  29
HETATM   29  C   UNL     1      39.294  -7.804  11.087  1.00  0.00     0.005 A 
HETATM   30  S   UNL     1      39.143  -7.975   9.381  1.00  0.00    -0.104 SA
HETATM   31  C   UNL     1      38.772  -6.322   9.176  1.00  0.00     0.050 A 
HETATM   32  C   UNL     1      38.737  -5.648  10.375  1.00  0.00     0.008 A 
HETATM   33  C   UNL     1      39.032  -6.502  11.476  1.00  0.00     0.017 A 
ENDBRANCH   6  29
TORSDOF 6
ENDMDL
MODEL 10
REMARK VINA RESULT:      -7.4      4.093      5.615
REMARK  6 active torsions:
REMARK  status: ('A' for Active; 'I' for Inactive)
REMARK    1  A    between atoms: C_2  and  O_3 
REMARK    2  A    between atoms: C_2  and  C_4 
REMARK    3  A    between atoms: C_7  and  N_8 
REMARK       I    between atoms: N_8  and  C_9 
REMARK    4  A    between atoms: C_9  and  C_10 
REMARK    5  A    between atoms: C_13  and  C_14 
REMARK    6  A    between atoms: C_19  and  C_20 
ROOT
HETATM    1  C   UNL     1      42.091 -11.867   5.254  1.00  0.00     0.096 C 
HETATM    2  C   UNL     1      42.228 -10.742   6.045  1.00  0.00     0.138 C 
HETATM    3  N   UNL     1      43.256 -11.020   6.918  1.00  0.00    -0.240 N 
HETATM    4  C   UNL     1      43.728 -10.116   7.952  1.00  0.00     0.221 C 
HETATM    5  C   UNL     1      43.181  -8.696   7.713  1.00  0.00     0.067 C 
HETATM    6  C   UNL     1      41.697  -8.723   7.317  1.00  0.00     0.125 C 
HETATM    7  N   UNL     1      41.552  -9.558   6.108  1.00  0.00    -0.365 N 
HETATM    8  N   UNL     1      43.663 -12.297   6.870  1.00  0.00    -0.181 NA
HETATM    9  C   UNL     1      42.980 -12.801   5.838  1.00  0.00     0.160 C 
HETATM   10  H   UNL     1      40.589  -9.544   5.764  1.00  0.00     0.162 HD
ENDROOT
BRANCH   1  11
HETATM   11  C   UNL     1      41.225 -12.106   4.111  1.00  0.00     0.261 C 
HETATM   12  N   UNL     1      41.855 -12.772   3.076  1.00  0.00    -0.323 N 
HETATM   13  H   UNL     1      42.804 -13.077   3.267  1.00  0.00     0.169 HD
HETATM   14  O   UNL     1      40.047 -11.773   4.148  1.00  0.00    -0.267 OA
BRANCH  12  15
HETATM   15  C   UNL     1      41.286 -13.204   1.861  1.00  0.00     0.035 A 
HETATM   16  C   UNL     1      40.800 -14.493   1.644  1.00  0.00     0.030 A 
HETATM   17  C   UNL     1      40.280 -14.861   0.395  1.00  0.00     0.012 A 
HETATM   18  C   UNL     1      40.237 -13.951  -0.668  1.00  0.00    -0.030 A 
HETATM   19  C   UNL     1      40.701 -12.647  -0.430  1.00  0.00     0.012 A 
HETATM   20  C   UNL     1      41.216 -12.278   0.818  1.00  0.00     0.030 A 
BRANCH  18  21
HETATM   21  C   UNL     1      39.724 -14.302  -2.048  1.00  0.00     0.147 C 
HETATM   22  C   UNL     1      38.434 -13.615  -2.489  1.00  0.00     0.044 C 
BRANCH  21  23
HETATM   23  O   UNL     1      40.753 -13.996  -2.988  1.00  0.00    -0.391 OA
HETATM   24  H   UNL     1      41.579 -14.373  -2.644  1.00  0.00     0.210 HD
ENDBRANCH  21  23
ENDBRANCH  18  21
ENDBRANCH  12  15
ENDBRANCH   1  11
BRANCH   4  25
HETATM   25  C   UNL     1      45.240 -10.071   8.003  1.00  0.00     0.409 C 
HETATM   26  F   UNL     1      45.751 -10.975   8.869  1.00  0.00    -0.169 F 
HETATM   27  F   UNL     1      45.746 -10.385   6.778  1.00  0.00    -0.169 F 
HETATM   28  F   UNL     1      45.739  -8.857   8.314  1.00  0.00    -0.169 F 
ENDBRANCH   4  25
BRANCH   6  29
HETATM   29  C   UNL     1      40.802  -9.111   8.478  1.00  0.00     0.005 A 
HETATM   30  S   UNL     1      41.280  -8.729  10.086  1.00  0.00    -0.104 SA
HETATM   31  C   UNL     1      39.886  -9.457  10.750  1.00  0.00     0.050 A 
HETATM   32  C   UNL     1      39.054  -9.962   9.777  1.00  0.00     0.008 A 
HETATM   33  C   UNL     1      39.579  -9.759   8.468  1.00  0.00     0.017 A 
ENDBRANCH   6  29
TORSDOF 6
ENDMDL
