MODEL 1
REMARK VINA RESULT:      -9.4      0.000      0.000
REMARK  5 active torsions:
REMARK  status: ('A' for Active; 'I' for Inactive)
REMARK    1  A    between atoms: C_3  and  N_4 
REMARK       I    between atoms: N_4  and  C_5 
REMARK    2  A    between atoms: C_5  and  C_6 
REMARK    3  A    between atoms: C_14  and  C_15 
REMARK    4  A    between atoms: C_24  and  O_25 
REMARK    5  A    between atoms: C_27  and  O_28 
ROOT
HETATM    1  C   UNL     1      41.682 -14.859   3.223  1.00  0.00     0.047 A 
HETATM    2  C   UNL     1      42.195 -14.198   4.368  1.00  0.00     0.008 A 
HETATM    3  C   UNL     1      43.141 -14.922   5.116  1.00  0.00     0.068 A 
HETATM    4  C   UNL     1      43.718 -14.331   6.231  1.00  0.00     0.032 A 
HETATM    5  C   UNL     1      43.369 -13.049   6.656  1.00  0.00     0.002 A 
HETATM    6  C   UNL     1      42.406 -12.338   5.961  1.00  0.00     0.001 A 
HETATM    7  C   UNL     1      41.818 -12.907   4.833  1.00  0.00     0.015 A 
HETATM    8  N   UNL     1      43.503 -16.178   4.816  1.00  0.00    -0.248 NA
HETATM    9  C   UNL     1      42.940 -16.828   3.767  1.00  0.00     0.068 A 
HETATM   10  C   UNL     1      42.033 -16.184   2.943  1.00  0.00     0.050 A 
ENDROOT
BRANCH   1  11
HETATM   11  C   UNL     1      40.711 -14.219   2.289  1.00  0.00     0.257 C 
HETATM   12  N   UNL     1      41.190 -14.009   1.016  1.00  0.00    -0.322 N 
HETATM   13  H   UNL     1      41.982 -14.588   0.758  1.00  0.00     0.169 HD
HETATM   14  O   UNL     1      39.573 -14.016   2.691  1.00  0.00    -0.267 OA
BRANCH  12  15
HETATM   15  C   UNL     1      40.745 -13.116   0.009  1.00  0.00     0.043 A 
HETATM   16  C   UNL     1      40.873 -11.716   0.014  1.00  0.00    -0.032 A 
HETATM   17  C   UNL     1      41.464 -10.900   1.130  1.00  0.00     0.050 C 
HETATM   18  C   UNL     1      40.454 -10.991  -1.124  1.00  0.00     0.048 A 
HETATM   19  C   UNL     1      39.970 -11.629  -2.270  1.00  0.00     0.102 A 
HETATM   20  C   UNL     1      39.836 -13.021  -2.274  1.00  0.00     0.103 A 
HETATM   21  C   UNL     1      40.232 -13.748  -1.144  1.00  0.00     0.069 A 
BRANCH  19  22
HETATM   22  O   UNL     1      39.587 -10.964  -3.408  1.00  0.00    -0.353 OA
HETATM   23  C   UNL     1      38.432 -10.140  -3.298  1.00  0.00     0.210 C 
ENDBRANCH  19  22
BRANCH  20  24
HETATM   24  O   UNL     1      39.353 -13.579  -3.431  1.00  0.00    -0.353 OA
HETATM   25  C   UNL     1      38.398 -14.623  -3.313  1.00  0.00     0.210 C 
ENDBRANCH  20  24
ENDBRANCH  12  15
ENDBRANCH   1  11
BRANCH   9  26
HETATM   26  C   UNL     1      43.338 -18.250   3.614  1.00  0.00    -0.007 A 
HETATM   27  C   UNL     1      43.855 -18.968   4.713  1.00  0.00     0.014 A 
HETATM   28  C   UNL     1      44.217 -20.315   4.614  1.00  0.00     0.001 A 
HETATM   29  C   UNL     1      44.072 -20.985   3.405  1.00  0.00     0.000 A 
HETATM   30  C   UNL     1      43.572 -20.305   2.299  1.00  0.00     0.001 A 
HETATM   31  C   UNL     1      43.213 -18.955   2.402  1.00  0.00     0.014 A 
ENDBRANCH   9  26
TORSDOF 5
ENDMDL
MODEL 2
REMARK VINA RESULT:      -8.9      3.307      7.154
REMARK  5 active torsions:
REMARK  status: ('A' for Active; 'I' for Inactive)
REMARK    1  A    between atoms: C_3  and  N_4 
REMARK       I    between atoms: N_4  and  C_5 
REMARK    2  A    between atoms: C_5  and  C_6 
REMARK    3  A    between atoms: C_14  and  C_15 
REMARK    4  A    between atoms: C_24  and  O_25 
REMARK    5  A    between atoms: C_27  and  O_28 
ROOT
HETATM    1  C   UNL     1      42.659 -13.895   3.083  1.00  0.00     0.047 A 
HETATM    2  C   UNL     1      41.749 -13.755   2.006  1.00  0.00     0.008 A 
HETATM    3  C   UNL     1      41.280 -14.955   1.444  1.00  0.00     0.068 A 
HETATM    4  C   UNL     1      40.358 -14.904   0.408  1.00  0.00     0.032 A 
HETATM    5  C   UNL     1      39.900 -13.696  -0.119  1.00  0.00     0.002 A 
HETATM    6  C   UNL     1      40.384 -12.503   0.388  1.00  0.00     0.001 A 
HETATM    7  C   UNL     1      41.305 -12.529   1.434  1.00  0.00     0.015 A 
HETATM    8  N   UNL     1      41.700 -16.164   1.849  1.00  0.00    -0.248 NA
HETATM    9  C   UNL     1      42.635 -16.280   2.823  1.00  0.00     0.068 A 
HETATM   10  C   UNL     1      43.123 -15.157   3.470  1.00  0.00     0.050 A 
ENDROOT
BRANCH   1  11
HETATM   11  C   UNL     1      43.215 -12.728   3.828  1.00  0.00     0.257 C 
HETATM   12  N   UNL     1      42.832 -12.653   5.148  1.00  0.00    -0.322 N 
HETATM   13  H   UNL     1      42.514 -13.528   5.550  1.00  0.00     0.169 HD
HETATM   14  O   UNL     1      44.010 -12.001   3.249  1.00  0.00    -0.267 OA
BRANCH  12  15
HETATM   15  C   UNL     1      42.819 -11.546   6.033  1.00  0.00     0.043 A 
HETATM   16  C   UNL     1      41.727 -10.704   6.307  1.00  0.00    -0.032 A 
HETATM   17  C   UNL     1      40.373 -10.797   5.660  1.00  0.00     0.050 C 
HETATM   18  C   UNL     1      41.871  -9.703   7.294  1.00  0.00     0.048 A 
HETATM   19  C   UNL     1      43.046  -9.563   8.038  1.00  0.00     0.102 A 
HETATM   20  C   UNL     1      44.136 -10.394   7.761  1.00  0.00     0.103 A 
HETATM   21  C   UNL     1      44.009 -11.378   6.773  1.00  0.00     0.069 A 
BRANCH  19  22
HETATM   22  O   UNL     1      43.214  -8.627   9.029  1.00  0.00    -0.353 OA
HETATM   23  C   UNL     1      43.039  -7.267   8.647  1.00  0.00     0.210 C 
ENDBRANCH  19  22
BRANCH  20  24
HETATM   24  O   UNL     1      45.256 -10.200   8.530  1.00  0.00    -0.353 OA
HETATM   25  C   UNL     1      46.292  -9.391   7.994  1.00  0.00     0.210 C 
ENDBRANCH  20  24
ENDBRANCH  12  15
ENDBRANCH   1  11
BRANCH   9  26
HETATM   26  C   UNL     1      43.100 -17.664   3.095  1.00  0.00    -0.007 A 
HETATM   27  C   UNL     1      42.937 -18.674   2.125  1.00  0.00     0.014 A 
HETATM   28  C   UNL     1      43.385 -19.982   2.334  1.00  0.00     0.001 A 
HETATM   29  C   UNL     1      44.009 -20.318   3.529  1.00  0.00     0.000 A 
HETATM   30  C   UNL     1      44.179 -19.347   4.511  1.00  0.00     0.001 A 
HETATM   31  C   UNL     1      43.727 -18.039   4.298  1.00  0.00     0.014 A 
ENDBRANCH   9  26
TORSDOF 5
ENDMDL
MODEL 3
REMARK VINA RESULT:      -8.9      2.452      5.868
REMARK  5 active torsions:
REMARK  status: ('A' for Active; 'I' for Inactive)
REMARK    1  A    between atoms: C_3  and  N_4 
REMARK       I    between atoms: N_4  and  C_5 
REMARK    2  A    between atoms: C_5  and  C_6 
REMARK    3  A    between atoms: C_14  and  C_15 
REMARK    4  A    between atoms: C_24  and  O_25 
REMARK    5  A    between atoms: C_27  and  O_28 
ROOT
HETATM    1  C   UNL     1      43.184 -13.404   4.592  1.00  0.00     0.047 A 
HETATM    2  C   UNL     1      43.024 -14.569   5.384  1.00  0.00     0.008 A 
HETATM    3  C   UNL     1      43.224 -14.399   6.765  1.00  0.00     0.068 A 
HETATM    4  C   UNL     1      43.052 -15.483   7.613  1.00  0.00     0.032 A 
HETATM    5  C   UNL     1      42.715 -16.752   7.138  1.00  0.00     0.002 A 
HETATM    6  C   UNL     1      42.560 -16.951   5.777  1.00  0.00     0.001 A 
HETATM    7  C   UNL     1      42.720 -15.874   4.906  1.00  0.00     0.015 A 
HETATM    8  N   UNL     1      43.598 -13.232   7.310  1.00  0.00    -0.248 NA
HETATM    9  C   UNL     1      43.830 -12.147   6.531  1.00  0.00     0.068 A 
HETATM   10  C   UNL     1      43.615 -12.202   5.164  1.00  0.00     0.050 A 
ENDROOT
BRANCH   1  11
HETATM   11  C   UNL     1      42.959 -13.393   3.118  1.00  0.00     0.257 C 
HETATM   12  N   UNL     1      41.648 -13.211   2.737  1.00  0.00    -0.322 N 
HETATM   13  H   UNL     1      41.055 -12.783   3.440  1.00  0.00     0.169 HD
HETATM   14  O   UNL     1      43.936 -13.457   2.385  1.00  0.00    -0.267 OA
BRANCH  12  15
HETATM   15  C   UNL     1      41.001 -13.523   1.515  1.00  0.00     0.043 A 
HETATM   16  C   UNL     1      40.468 -14.770   1.143  1.00  0.00    -0.032 A 
HETATM   17  C   UNL     1      40.539 -16.027   1.965  1.00  0.00     0.050 C 
HETATM   18  C   UNL     1      39.771 -14.873  -0.082  1.00  0.00     0.048 A 
HETATM   19  C   UNL     1      39.552 -13.763  -0.903  1.00  0.00     0.102 A 
HETATM   20  C   UNL     1      40.087 -12.524  -0.538  1.00  0.00     0.103 A 
HETATM   21  C   UNL     1      40.795 -12.415   0.666  1.00  0.00     0.069 A 
BRANCH  19  22
HETATM   22  O   UNL     1      38.850 -13.813  -2.082  1.00  0.00    -0.353 OA
HETATM   23  C   UNL     1      38.745 -15.092  -2.698  1.00  0.00     0.210 C 
ENDBRANCH  19  22
BRANCH  20  24
HETATM   24  O   UNL     1      39.833 -11.479  -1.391  1.00  0.00    -0.353 OA
HETATM   25  C   UNL     1      40.939 -10.879  -2.048  1.00  0.00     0.210 C 
ENDBRANCH  20  24
ENDBRANCH  12  15
ENDBRANCH   1  11
BRANCH   9  26
HETATM   26  C   UNL     1      44.353 -10.953   7.243  1.00  0.00    -0.007 A 
HETATM   27  C   UNL     1      45.741 -10.719   7.316  1.00  0.00     0.014 A 
HETATM   28  C   UNL     1      46.270  -9.593   7.955  1.00  0.00     0.001 A 
HETATM   29  C   UNL     1      45.419  -8.666   8.545  1.00  0.00     0.000 A 
HETATM   30  C   UNL     1      44.043  -8.871   8.498  1.00  0.00     0.001 A 
HETATM   31  C   UNL     1      43.518 -10.001   7.858  1.00  0.00     0.014 A 
ENDBRANCH   9  26
TORSDOF 5
ENDMDL
MODEL 4
REMARK VINA RESULT:      -8.9      0.947      2.089
REMARK  5 active torsions:
REMARK  status: ('A' for Active; 'I' for Inactive)
REMARK    1  A    between atoms: C_3  and  N_4 
REMARK       I    between atoms: N_4  and  C_5 
REMARK    2  A    between atoms: C_5  and  C_6 
REMARK    3  A    between atoms: C_14  and  C_15 
REMARK    4  A    between atoms: C_24  and  O_25 
REMARK    5  A    between atoms: C_27  and  O_28 
ROOT
HETATM    1  C   UNL     1      41.512 -14.792   2.633  1.00  0.00     0.047 A 
HETATM    2  C   UNL     1      41.978 -14.049   3.747  1.00  0.00     0.008 A 
HETATM    3  C   UNL     1      42.909 -14.705   4.571  1.00  0.00     0.068 A 
HETATM    4  C   UNL     1      43.441 -14.033   5.662  1.00  0.00     0.032 A 
HETATM    5  C   UNL     1      43.059 -12.731   5.990  1.00  0.00     0.002 A 
HETATM    6  C   UNL     1      42.108 -12.084   5.219  1.00  0.00     0.001 A 
HETATM    7  C   UNL     1      41.566 -12.737   4.113  1.00  0.00     0.015 A 
HETATM    8  N   UNL     1      43.300 -15.972   4.366  1.00  0.00    -0.248 NA
HETATM    9  C   UNL     1      42.782 -16.700   3.346  1.00  0.00     0.068 A 
HETATM   10  C   UNL     1      41.892 -16.127   2.452  1.00  0.00     0.050 A 
ENDROOT
BRANCH   1  11
HETATM   11  C   UNL     1      40.563 -14.232   1.629  1.00  0.00     0.257 C 
HETATM   12  N   UNL     1      41.071 -14.124   0.354  1.00  0.00    -0.322 N 
HETATM   13  H   UNL     1      41.869 -14.720   0.161  1.00  0.00     0.169 HD
HETATM   14  O   UNL     1      39.416 -14.000   1.986  1.00  0.00    -0.267 OA
BRANCH  12  15
HETATM   15  C   UNL     1      40.649 -13.316  -0.731  1.00  0.00     0.043 A 
HETATM   16  C   UNL     1      39.752 -13.683  -1.750  1.00  0.00    -0.032 A 
HETATM   17  C   UNL     1      39.114 -15.036  -1.903  1.00  0.00     0.050 C 
HETATM   18  C   UNL     1      39.371 -12.711  -2.702  1.00  0.00     0.048 A 
HETATM   19  C   UNL     1      39.816 -11.388  -2.627  1.00  0.00     0.102 A 
HETATM   20  C   UNL     1      40.714 -11.024  -1.619  1.00  0.00     0.103 A 
HETATM   21  C   UNL     1      41.112 -11.984  -0.680  1.00  0.00     0.069 A 
BRANCH  19  22
HETATM   22  O   UNL     1      39.442 -10.406  -3.511  1.00  0.00    -0.353 OA
HETATM   23  C   UNL     1      38.084  -9.984  -3.445  1.00  0.00     0.210 C 
ENDBRANCH  19  22
BRANCH  20  24
HETATM   24  O   UNL     1      41.109  -9.710  -1.606  1.00  0.00    -0.353 OA
HETATM   25  C   UNL     1      40.685  -8.902  -0.518  1.00  0.00     0.210 C 
ENDBRANCH  20  24
ENDBRANCH  12  15
ENDBRANCH   1  11
BRANCH   9  26
HETATM   26  C   UNL     1      43.206 -18.122   3.301  1.00  0.00    -0.007 A 
HETATM   27  C   UNL     1      43.797 -18.726   4.429  1.00  0.00     0.014 A 
HETATM   28  C   UNL     1      44.186 -20.069   4.433  1.00  0.00     0.001 A 
HETATM   29  C   UNL     1      43.995 -20.849   3.299  1.00  0.00     0.000 A 
HETATM   30  C   UNL     1      43.421 -20.283   2.165  1.00  0.00     0.001 A 
HETATM   31  C   UNL     1      43.035 -18.936   2.165  1.00  0.00     0.014 A 
ENDBRANCH   9  26
TORSDOF 5
ENDMDL
MODEL 5
REMARK VINA RESULT:      -8.8      3.044      6.875
REMARK  5 active torsions:
REMARK  status: ('A' for Active; 'I' for Inactive)
REMARK    1  A    between atoms: C_3  and  N_4 
REMARK       I    between atoms: N_4  and  C_5 
REMARK    2  A    between atoms: C_5  and  C_6 
REMARK    3  A    between atoms: C_14  and  C_15 
REMARK    4  A    between atoms: C_24  and  O_25 
REMARK    5  A    between atoms: C_27  and  O_28 
ROOT
HETATM    1  C   UNL     1      42.685 -13.923   3.096  1.00  0.00     0.047 A 
HETATM    2  C   UNL     1      41.770 -13.774   2.024  1.00  0.00     0.008 A 
HETATM    3  C   UNL     1      41.294 -14.970   1.458  1.00  0.00     0.068 A 
HETATM    4  C   UNL     1      40.367 -14.910   0.427  1.00  0.00     0.032 A 
HETATM    5  C   UNL     1      39.911 -13.697  -0.091  1.00  0.00     0.002 A 
HETATM    6  C   UNL     1      40.403 -12.508   0.420  1.00  0.00     0.001 A 
HETATM    7  C   UNL     1      41.329 -12.544   1.461  1.00  0.00     0.015 A 
HETATM    8  N   UNL     1      41.711 -16.182   1.855  1.00  0.00    -0.248 NA
HETATM    9  C   UNL     1      42.650 -16.307   2.824  1.00  0.00     0.068 A 
HETATM   10  C   UNL     1      43.146 -15.189   3.474  1.00  0.00     0.050 A 
ENDROOT
BRANCH   1  11
HETATM   11  C   UNL     1      43.249 -12.763   3.845  1.00  0.00     0.257 C 
HETATM   12  N   UNL     1      42.963 -12.753   5.192  1.00  0.00    -0.322 N 
HETATM   13  H   UNL     1      42.710 -13.655   5.580  1.00  0.00     0.169 HD
HETATM   14  O   UNL     1      43.970 -11.982   3.239  1.00  0.00    -0.267 OA
BRANCH  12  15
HETATM   15  C   UNL     1      42.973 -11.680   6.118  1.00  0.00     0.043 A 
HETATM   16  C   UNL     1      44.101 -11.127   6.748  1.00  0.00    -0.032 A 
HETATM   17  C   UNL     1      45.514 -11.618   6.590  1.00  0.00     0.050 C 
HETATM   18  C   UNL     1      43.932  -9.994   7.574  1.00  0.00     0.048 A 
HETATM   19  C   UNL     1      42.688  -9.378   7.737  1.00  0.00     0.102 A 
HETATM   20  C   UNL     1      41.563  -9.931   7.117  1.00  0.00     0.103 A 
HETATM   21  C   UNL     1      41.717 -11.065   6.311  1.00  0.00     0.069 A 
BRANCH  19  22
HETATM   22  O   UNL     1      42.487  -8.255   8.502  1.00  0.00    -0.353 OA
HETATM   23  C   UNL     1      43.504  -7.947   9.448  1.00  0.00     0.210 C 
ENDBRANCH  19  22
BRANCH  20  24
HETATM   24  O   UNL     1      40.375  -9.275   7.323  1.00  0.00    -0.353 OA
HETATM   25  C   UNL     1      39.278 -10.032   7.811  1.00  0.00     0.210 C 
ENDBRANCH  20  24
ENDBRANCH  12  15
ENDBRANCH   1  11
BRANCH   9  26
HETATM   26  C   UNL     1      43.111 -17.694   3.086  1.00  0.00    -0.007 A 
HETATM   27  C   UNL     1      42.912 -18.705   2.123  1.00  0.00     0.014 A 
HETATM   28  C   UNL     1      43.355 -20.017   2.324  1.00  0.00     0.001 A 
HETATM   29  C   UNL     1      44.011 -20.355   3.501  1.00  0.00     0.000 A 
HETATM   30  C   UNL     1      44.217 -19.383   4.476  1.00  0.00     0.001 A 
HETATM   31  C   UNL     1      43.770 -18.071   4.272  1.00  0.00     0.014 A 
ENDBRANCH   9  26
TORSDOF 5
ENDMDL
MODEL 6
REMARK VINA RESULT:      -8.6      4.043      8.193
REMARK  5 active torsions:
REMARK  status: ('A' for Active; 'I' for Inactive)
REMARK    1  A    between atoms: C_3  and  N_4 
REMARK       I    between atoms: N_4  and  C_5 
REMARK    2  A    between atoms: C_5  and  C_6 
REMARK    3  A    between atoms: C_14  and  C_15 
REMARK    4  A    between atoms: C_24  and  O_25 
REMARK    5  A    between atoms: C_27  and  O_28 
ROOT
HETATM    1  C   UNL     1      41.948 -12.961   5.419  1.00  0.00     0.047 A 
HETATM    2  C   UNL     1      40.973 -12.151   4.786  1.00  0.00     0.008 A 
HETATM    3  C   UNL     1      41.133 -10.764   4.950  1.00  0.00     0.068 A 
HETATM    4  C   UNL     1      40.240  -9.901   4.331  1.00  0.00     0.032 A 
HETATM    5  C   UNL     1      39.165 -10.363   3.572  1.00  0.00     0.002 A 
HETATM    6  C   UNL     1      38.962 -11.727   3.436  1.00  0.00     0.001 A 
HETATM    7  C   UNL     1      39.851 -12.613   4.042  1.00  0.00     0.015 A 
HETATM    8  N   UNL     1      42.105 -10.225   5.702  1.00  0.00    -0.248 NA
HETATM    9  C   UNL     1      42.980 -11.015   6.371  1.00  0.00     0.068 A 
HETATM   10  C   UNL     1      42.932 -12.393   6.235  1.00  0.00     0.050 A 
ENDROOT
BRANCH   1  11
HETATM   11  C   UNL     1      41.960 -14.448   5.305  1.00  0.00     0.257 C 
HETATM   12  N   UNL     1      43.038 -14.964   4.620  1.00  0.00    -0.322 N 
HETATM   13  H   UNL     1      43.843 -14.349   4.566  1.00  0.00     0.169 HD
HETATM   14  O   UNL     1      41.086 -15.078   5.885  1.00  0.00    -0.267 OA
BRANCH  12  15
HETATM   15  C   UNL     1      43.198 -16.221   3.985  1.00  0.00     0.043 A 
HETATM   16  C   UNL     1      43.048 -16.494   2.614  1.00  0.00    -0.032 A 
HETATM   17  C   UNL     1      42.633 -15.496   1.569  1.00  0.00     0.050 C 
HETATM   18  C   UNL     1      43.342 -17.793   2.144  1.00  0.00     0.048 A 
HETATM   19  C   UNL     1      43.825 -18.794   2.990  1.00  0.00     0.102 A 
HETATM   20  C   UNL     1      43.968 -18.527   4.356  1.00  0.00     0.103 A 
HETATM   21  C   UNL     1      43.663 -17.247   4.835  1.00  0.00     0.069 A 
BRANCH  19  22
HETATM   22  O   UNL     1      44.156 -20.058   2.566  1.00  0.00    -0.353 OA
HETATM   23  C   UNL     1      43.396 -20.577   1.481  1.00  0.00     0.210 C 
ENDBRANCH  19  22
BRANCH  20  24
HETATM   24  O   UNL     1      44.447 -19.556   5.127  1.00  0.00    -0.353 OA
HETATM   25  C   UNL     1      43.548 -20.174   6.037  1.00  0.00     0.210 C 
ENDBRANCH  20  24
ENDBRANCH  12  15
ENDBRANCH   1  11
BRANCH   9  26
HETATM   26  C   UNL     1      43.930 -10.300   7.260  1.00  0.00    -0.007 A 
HETATM   27  C   UNL     1      45.289 -10.674   7.299  1.00  0.00     0.014 A 
HETATM   28  C   UNL     1      46.218 -10.008   8.104  1.00  0.00     0.001 A 
HETATM   29  C   UNL     1      45.810  -8.945   8.899  1.00  0.00     0.000 A 
HETATM   30  C   UNL     1      44.475  -8.554   8.891  1.00  0.00     0.001 A 
HETATM   31  C   UNL     1      43.547  -9.225   8.085  1.00  0.00     0.014 A 
ENDBRANCH   9  26
TORSDOF 5
ENDMDL
MODEL 7
REMARK VINA RESULT:      -8.4      1.785      2.083
REMARK  5 active torsions:
REMARK  status: ('A' for Active; 'I' for Inactive)
REMARK    1  A    between atoms: C_3  and  N_4 
REMARK       I    between atoms: N_4  and  C_5 
REMARK    2  A    between atoms: C_5  and  C_6 
REMARK    3  A    between atoms: C_14  and  C_15 
REMARK    4  A    between atoms: C_24  and  O_25 
REMARK    5  A    between atoms: C_27  and  O_28 
ROOT
HETATM    1  C   UNL     1      42.333 -13.497   3.393  1.00  0.00     0.047 A 
HETATM    2  C   UNL     1      42.741 -13.054   4.676  1.00  0.00     0.008 A 
HETATM    3  C   UNL     1      43.421 -14.003   5.461  1.00  0.00     0.068 A 
HETATM    4  C   UNL     1      43.885 -13.637   6.716  1.00  0.00     0.032 A 
HETATM    5  C   UNL     1      43.674 -12.362   7.243  1.00  0.00     0.002 A 
HETATM    6  C   UNL     1      42.966 -11.427   6.506  1.00  0.00     0.001 A 
HETATM    7  C   UNL     1      42.497 -11.770   5.239  1.00  0.00     0.015 A 
HETATM    8  N   UNL     1      43.627 -15.267   5.062  1.00  0.00    -0.248 NA
HETATM    9  C   UNL     1      43.157 -15.700   3.867  1.00  0.00     0.068 A 
HETATM   10  C   UNL     1      42.515 -14.828   3.003  1.00  0.00     0.050 A 
ENDROOT
BRANCH   1  11
HETATM   11  C   UNL     1      41.647 -12.607   2.412  1.00  0.00     0.257 C 
HETATM   12  N   UNL     1      40.282 -12.772   2.341  1.00  0.00    -0.322 N 
HETATM   13  H   UNL     1      39.862 -13.207   3.156  1.00  0.00     0.169 HD
HETATM   14  O   UNL     1      42.319 -11.767   1.829  1.00  0.00    -0.267 OA
BRANCH  12  15
HETATM   15  C   UNL     1      39.374 -12.424   1.311  1.00  0.00     0.043 A 
HETATM   16  C   UNL     1      38.411 -11.400   1.352  1.00  0.00    -0.032 A 
HETATM   17  C   UNL     1      38.133 -10.514   2.535  1.00  0.00     0.050 C 
HETATM   18  C   UNL     1      37.653 -11.132   0.191  1.00  0.00     0.048 A 
HETATM   19  C   UNL     1      37.870 -11.817  -1.008  1.00  0.00     0.102 A 
HETATM   20  C   UNL     1      38.822 -12.841  -1.049  1.00  0.00     0.103 A 
HETATM   21  C   UNL     1      39.567 -13.126   0.102  1.00  0.00     0.069 A 
BRANCH  19  22
HETATM   22  O   UNL     1      37.180 -11.564  -2.168  1.00  0.00    -0.353 OA
HETATM   23  C   UNL     1      36.466 -10.334  -2.219  1.00  0.00     0.210 C 
ENDBRANCH  19  22
BRANCH  20  24
HETATM   24  O   UNL     1      38.981 -13.472  -2.258  1.00  0.00    -0.353 OA
HETATM   25  C   UNL     1      40.255 -14.027  -2.550  1.00  0.00     0.210 C 
ENDBRANCH  20  24
ENDBRANCH  12  15
ENDBRANCH   1  11
BRANCH   9  26
HETATM   26  C   UNL     1      43.347 -17.148   3.596  1.00  0.00    -0.007 A 
HETATM   27  C   UNL     1      42.833 -17.726   2.417  1.00  0.00     0.014 A 
HETATM   28  C   UNL     1      43.014 -19.079   2.115  1.00  0.00     0.001 A 
HETATM   29  C   UNL     1      43.717 -19.897   2.992  1.00  0.00     0.000 A 
HETATM   30  C   UNL     1      44.231 -19.361   4.168  1.00  0.00     0.001 A 
HETATM   31  C   UNL     1      44.045 -18.005   4.468  1.00  0.00     0.014 A 
ENDBRANCH   9  26
TORSDOF 5
ENDMDL
MODEL 8
REMARK VINA RESULT:      -8.4      1.930      2.910
REMARK  5 active torsions:
REMARK  status: ('A' for Active; 'I' for Inactive)
REMARK    1  A    between atoms: C_3  and  N_4 
REMARK       I    between atoms: N_4  and  C_5 
REMARK    2  A    between atoms: C_5  and  C_6 
REMARK    3  A    between atoms: C_14  and  C_15 
REMARK    4  A    between atoms: C_24  and  O_25 
REMARK    5  A    between atoms: C_27  and  O_28 
ROOT
HETATM    1  C   UNL     1      40.599 -14.699   1.755  1.00  0.00     0.047 A 
HETATM    2  C   UNL     1      40.294 -13.971   2.933  1.00  0.00     0.008 A 
HETATM    3  C   UNL     1      40.926 -14.419   4.107  1.00  0.00     0.068 A 
HETATM    4  C   UNL     1      40.707 -13.738   5.296  1.00  0.00     0.032 A 
HETATM    5  C   UNL     1      39.855 -12.636   5.375  1.00  0.00     0.002 A 
HETATM    6  C   UNL     1      39.188 -12.207   4.240  1.00  0.00     0.001 A 
HETATM    7  C   UNL     1      39.397 -12.871   3.032  1.00  0.00     0.015 A 
HETATM    8  N   UNL     1      41.722 -15.499   4.141  1.00  0.00    -0.248 NA
HETATM    9  C   UNL     1      41.936 -16.236   3.024  1.00  0.00     0.068 A 
HETATM   10  C   UNL     1      41.396 -15.848   1.809  1.00  0.00     0.050 A 
ENDROOT
BRANCH   1  11
HETATM   11  C   UNL     1      40.059 -14.329   0.415  1.00  0.00     0.257 C 
HETATM   12  N   UNL     1      40.251 -13.012   0.061  1.00  0.00    -0.322 N 
HETATM   13  H   UNL     1      40.997 -12.541   0.560  1.00  0.00     0.169 HD
HETATM   14  O   UNL     1      39.580 -15.216  -0.278  1.00  0.00    -0.267 OA
BRANCH  12  15
HETATM   15  C   UNL     1      39.573 -12.218  -0.897  1.00  0.00     0.043 A 
HETATM   16  C   UNL     1      39.891 -12.096  -2.261  1.00  0.00    -0.032 A 
HETATM   17  C   UNL     1      41.057 -12.754  -2.946  1.00  0.00     0.050 C 
HETATM   18  C   UNL     1      39.043 -11.329  -3.091  1.00  0.00     0.048 A 
HETATM   19  C   UNL     1      37.873 -10.736  -2.606  1.00  0.00     0.102 A 
HETATM   20  C   UNL     1      37.560 -10.850  -1.248  1.00  0.00     0.103 A 
HETATM   21  C   UNL     1      38.403 -11.594  -0.414  1.00  0.00     0.069 A 
BRANCH  19  22
HETATM   22  O   UNL     1      37.005 -10.013  -3.386  1.00  0.00    -0.353 OA
HETATM   23  C   UNL     1      37.534  -8.845  -4.002  1.00  0.00     0.210 C 
ENDBRANCH  19  22
BRANCH  20  24
HETATM   24  O   UNL     1      36.398 -10.243  -0.842  1.00  0.00    -0.353 OA
HETATM   25  C   UNL     1      36.196 -10.068   0.552  1.00  0.00     0.210 C 
ENDBRANCH  20  24
ENDBRANCH  12  15
ENDBRANCH   1  11
BRANCH   9  26
HETATM   26  C   UNL     1      42.738 -17.469   3.221  1.00  0.00    -0.007 A 
HETATM   27  C   UNL     1      42.766 -18.468   2.225  1.00  0.00     0.014 A 
HETATM   28  C   UNL     1      43.529 -19.632   2.363  1.00  0.00     0.001 A 
HETATM   29  C   UNL     1      44.288 -19.831   3.510  1.00  0.00     0.000 A 
HETATM   30  C   UNL     1      44.277 -18.869   4.516  1.00  0.00     0.001 A 
HETATM   31  C   UNL     1      43.510 -17.706   4.374  1.00  0.00     0.014 A 
ENDBRANCH   9  26
TORSDOF 5
ENDMDL
MODEL 9
REMARK VINA RESULT:      -8.4      1.413      5.023
REMARK  5 active torsions:
REMARK  status: ('A' for Active; 'I' for Inactive)
REMARK    1  A    between atoms: C_3  and  N_4 
REMARK       I    between atoms: N_4  and  C_5 
REMARK    2  A    between atoms: C_5  and  C_6 
REMARK    3  A    between atoms: C_14  and  C_15 
REMARK    4  A    between atoms: C_24  and  O_25 
REMARK    5  A    between atoms: C_27  and  O_28 
ROOT
HETATM    1  C   UNL     1      41.613 -14.368   2.924  1.00  0.00     0.047 A 
HETATM    2  C   UNL     1      42.267 -15.615   3.077  1.00  0.00     0.008 A 
HETATM    3  C   UNL     1      43.085 -15.739   4.214  1.00  0.00     0.068 A 
HETATM    4  C   UNL     1      43.734 -16.942   4.455  1.00  0.00     0.032 A 
HETATM    5  C   UNL     1      43.626 -18.030   3.589  1.00  0.00     0.002 A 
HETATM    6  C   UNL     1      42.863 -17.914   2.439  1.00  0.00     0.001 A 
HETATM    7  C   UNL     1      42.197 -16.717   2.179  1.00  0.00     0.015 A 
HETATM    8  N   UNL     1      43.291 -14.733   5.078  1.00  0.00    -0.248 NA
HETATM    9  C   UNL     1      42.725 -13.518   4.873  1.00  0.00     0.068 A 
HETATM   10  C   UNL     1      41.866 -13.312   3.806  1.00  0.00     0.050 A 
ENDROOT
BRANCH   1  11
HETATM   11  C   UNL     1      40.669 -14.083   1.805  1.00  0.00     0.257 C 
HETATM   12  N   UNL     1      41.272 -13.706   0.625  1.00  0.00    -0.322 N 
HETATM   13  H   UNL     1      42.245 -13.977   0.538  1.00  0.00     0.169 HD
HETATM   14  O   UNL     1      39.477 -14.285   1.991  1.00  0.00    -0.267 OA
BRANCH  12  15
HETATM   15  C   UNL     1      40.742 -13.004  -0.486  1.00  0.00     0.043 A 
HETATM   16  C   UNL     1      39.845 -13.506  -1.445  1.00  0.00    -0.032 A 
HETATM   17  C   UNL     1      39.323 -14.916  -1.495  1.00  0.00     0.050 C 
HETATM   18  C   UNL     1      39.346 -12.630  -2.435  1.00  0.00     0.048 A 
HETATM   19  C   UNL     1      39.676 -11.272  -2.453  1.00  0.00     0.102 A 
HETATM   20  C   UNL     1      40.573 -10.772  -1.504  1.00  0.00     0.103 A 
HETATM   21  C   UNL     1      41.087 -11.636  -0.530  1.00  0.00     0.069 A 
BRANCH  19  22
HETATM   22  O   UNL     1      39.185 -10.380  -3.375  1.00  0.00    -0.353 OA
HETATM   23  C   UNL     1      37.797 -10.081  -3.285  1.00  0.00     0.210 C 
ENDBRANCH  19  22
BRANCH  20  24
HETATM   24  O   UNL     1      40.852  -9.430  -1.583  1.00  0.00    -0.353 OA
HETATM   25  C   UNL     1      42.169  -9.009  -1.260  1.00  0.00     0.210 C 
ENDBRANCH  20  24
ENDBRANCH  12  15
ENDBRANCH   1  11
BRANCH   9  26
HETATM   26  C   UNL     1      43.127 -12.460   5.834  1.00  0.00    -0.007 A 
HETATM   27  C   UNL     1      44.349 -12.557   6.531  1.00  0.00     0.014 A 
HETATM   28  C   UNL     1      44.773 -11.568   7.424  1.00  0.00     0.001 A 
HETATM   29  C   UNL     1      43.979 -10.450   7.649  1.00  0.00     0.000 A 
HETATM   30  C   UNL     1      42.763 -10.327   6.983  1.00  0.00     0.001 A 
HETATM   31  C   UNL     1      42.341 -11.321   6.091  1.00  0.00     0.014 A 
ENDBRANCH   9  26
TORSDOF 5
ENDMDL
MODEL 10
REMARK VINA RESULT:      -8.2      1.979      2.790
REMARK  5 active torsions:
REMARK  status: ('A' for Active; 'I' for Inactive)
REMARK    1  A    between atoms: C_3  and  N_4 
REMARK       I    between atoms: N_4  and  C_5 
REMARK    2  A    between atoms: C_5  and  C_6 
REMARK    3  A    between atoms: C_14  and  C_15 
REMARK    4  A    between atoms: C_24  and  O_25 
REMARK    5  A    between atoms: C_27  and  O_28 
ROOT
HETATM    1  C   UNL     1      42.443 -13.490   3.395  1.00  0.00     0.047 A 
HETATM    2  C   UNL     1      42.803 -13.064   4.698  1.00  0.00     0.008 A 
HETATM    3  C   UNL     1      43.428 -14.031   5.504  1.00  0.00     0.068 A 
HETATM    4  C   UNL     1      43.844 -13.683   6.781  1.00  0.00     0.032 A 
HETATM    5  C   UNL     1      43.637 -12.407   7.308  1.00  0.00     0.002 A 
HETATM    6  C   UNL     1      42.981 -11.454   6.547  1.00  0.00     0.001 A 
HETATM    7  C   UNL     1      42.560 -11.779   5.259  1.00  0.00     0.015 A 
HETATM    8  N   UNL     1      43.627 -15.297   5.105  1.00  0.00    -0.248 NA
HETATM    9  C   UNL     1      43.200 -15.713   3.888  1.00  0.00     0.068 A 
HETATM   10  C   UNL     1      42.615 -14.822   3.003  1.00  0.00     0.050 A 
ENDROOT
BRANCH   1  11
HETATM   11  C   UNL     1      41.819 -12.580   2.391  1.00  0.00     0.257 C 
HETATM   12  N   UNL     1      40.487 -12.825   2.142  1.00  0.00    -0.322 N 
HETATM   13  H   UNL     1      40.004 -13.339   2.871  1.00  0.00     0.169 HD
HETATM   14  O   UNL     1      42.495 -11.662   1.947  1.00  0.00    -0.267 OA
BRANCH  12  15
HETATM   15  C   UNL     1      39.686 -12.465   1.029  1.00  0.00     0.043 A 
HETATM   16  C   UNL     1      39.520 -13.200  -0.158  1.00  0.00    -0.032 A 
HETATM   17  C   UNL     1      40.216 -14.492  -0.485  1.00  0.00     0.050 C 
HETATM   18  C   UNL     1      38.604 -12.731  -1.125  1.00  0.00     0.048 A 
HETATM   19  C   UNL     1      37.822 -11.593  -0.912  1.00  0.00     0.102 A 
HETATM   20  C   UNL     1      37.991 -10.856   0.265  1.00  0.00     0.103 A 
HETATM   21  C   UNL     1      38.910 -11.303   1.223  1.00  0.00     0.069 A 
BRANCH  19  22
HETATM   22  O   UNL     1      36.895 -11.125  -1.810  1.00  0.00    -0.353 OA
HETATM   23  C   UNL     1      37.410 -10.462  -2.959  1.00  0.00     0.210 C 
ENDBRANCH  19  22
BRANCH  20  24
HETATM   24  O   UNL     1      37.191  -9.750   0.407  1.00  0.00    -0.353 OA
HETATM   25  C   UNL     1      37.407  -8.919   1.537  1.00  0.00     0.210 C 
ENDBRANCH  20  24
ENDBRANCH  12  15
ENDBRANCH   1  11
BRANCH   9  26
HETATM   26  C   UNL     1      43.373 -17.162   3.616  1.00  0.00    -0.007 A 
HETATM   27  C   UNL     1      42.885 -17.726   2.418  1.00  0.00     0.014 A 
HETATM   28  C   UNL     1      43.051 -19.081   2.115  1.00  0.00     0.001 A 
HETATM   29  C   UNL     1      43.712 -19.915   3.008  1.00  0.00     0.000 A 
HETATM   30  C   UNL     1      44.200 -19.393   4.202  1.00  0.00     0.001 A 
HETATM   31  C   UNL     1      44.029 -18.036   4.503  1.00  0.00     0.014 A 
ENDBRANCH   9  26
TORSDOF 5
ENDMDL
