MODEL 1
REMARK VINA RESULT:      -8.9      0.000      0.000
REMARK  7 active torsions:
REMARK  status: ('A' for Active; 'I' for Inactive)
REMARK    1  A    between atoms: C_4  and  C_5 
REMARK    2  A    between atoms: C_5  and  N_6 
REMARK       I    between atoms: N_6  and  C_7 
REMARK    3  A    between atoms: N_6  and  C_18 
REMARK       I    between atoms: C_7  and  N_8 
REMARK    4  A    between atoms: N_8  and  C_9 
REMARK    5  A    between atoms: C_10  and  O_11 
REMARK    6  A    between atoms: N_21  and  C_23 
REMARK    7  A    between atoms: C_23  and  C_24 
ROOT
HETATM    1  N   UNL     1      41.661 -11.882   4.609  1.00  0.00    -0.323 N 
HETATM    2  C   UNL     1      42.606 -11.043   5.247  1.00  0.00     0.323 C 
HETATM    3  N   UNL     1      42.260 -10.601   6.503  1.00  0.00    -0.306 N 
HETATM    4  O   UNL     1      43.655 -10.785   4.665  1.00  0.00    -0.247 OA
HETATM    5  H   UNL     1      41.450 -11.004   6.933  1.00  0.00     0.171 HD
ENDROOT
BRANCH   1   6
HETATM    6  C   UNL     1      40.469 -12.417   5.278  1.00  0.00     0.193 C 
BRANCH   6   7
HETATM    7  C   UNL     1      40.763 -13.724   5.910  1.00  0.00     0.071 A 
HETATM    8  O   UNL     1      41.947 -13.812   6.586  1.00  0.00    -0.318 OA
HETATM    9  C   UNL     1      42.034 -15.082   7.074  1.00  0.00     0.049 A 
HETATM   10  C   UNL     1      43.255 -15.426   7.834  1.00  0.00     0.076 C 
HETATM   11  C   UNL     1      40.915 -15.803   6.723  1.00  0.00     0.035 A 
HETATM   12  C   UNL     1      40.094 -14.929   5.972  1.00  0.00     0.037 A 
ENDBRANCH   6   7
ENDBRANCH   1   6
BRANCH   1  13
HETATM   13  C   UNL     1      41.942 -12.190   3.175  1.00  0.00     0.092 C 
HETATM   14  C   UNL     1      40.789 -12.648   2.270  1.00  0.00     0.053 C 
HETATM   15  C   UNL     1      40.404 -14.117   2.376  1.00  0.00     0.237 C 
HETATM   16  N   UNL     1      41.617 -15.018   2.343  1.00  0.00    -0.067 N 
HETATM   17  H   UNL     1      41.977 -14.992   1.381  1.00  0.00     0.280 HD
HETATM   18  C   UNL     1      42.729 -14.586   3.270  1.00  0.00     0.237 C 
HETATM   19  C   UNL     1      43.125 -13.152   2.999  1.00  0.00     0.053 C 
BRANCH  16  20
HETATM   20  C   UNL     1      41.276 -16.476   2.622  1.00  0.00     0.273 C 
BRANCH  20  21
HETATM   21  C   UNL     1      42.427 -17.324   3.080  1.00  0.00    -0.033 A 
HETATM   22  C   UNL     1      42.984 -17.157   4.356  1.00  0.00     0.009 A 
HETATM   23  C   UNL     1      44.053 -17.955   4.765  1.00  0.00     0.001 A 
HETATM   24  C   UNL     1      44.579 -18.919   3.906  1.00  0.00     0.000 A 
HETATM   25  C   UNL     1      44.036 -19.091   2.636  1.00  0.00     0.001 A 
HETATM   26  C   UNL     1      42.966 -18.300   2.224  1.00  0.00     0.009 A 
ENDBRANCH  20  21
ENDBRANCH  16  20
ENDBRANCH   1  13
BRANCH   3  27
HETATM   27  C   UNL     1      42.965  -9.742   7.387  1.00  0.00     0.069 A 
HETATM   28  C   UNL     1      44.101 -10.047   8.149  1.00  0.00     0.095 A 
HETATM   29  C   UNL     1      44.647  -9.098   9.027  1.00  0.00     0.039 A 
HETATM   30  C   UNL     1      44.107  -7.818   9.115  1.00  0.00     0.003 A 
HETATM   31  C   UNL     1      43.015  -7.480   8.326  1.00  0.00     0.002 A 
HETATM   32  C   UNL     1      42.453  -8.432   7.470  1.00  0.00     0.032 A 
BRANCH  28  33
HETATM   33  O   UNL     1      44.757 -11.244   8.099  1.00  0.00    -0.354 OA
HETATM   34  C   UNL     1      45.893 -11.154   7.240  1.00  0.00     0.210 C 
ENDBRANCH  28  33
ENDBRANCH   3  27
TORSDOF 7
ENDMDL
MODEL 2
REMARK VINA RESULT:      -8.9      2.501      7.940
REMARK  7 active torsions:
REMARK  status: ('A' for Active; 'I' for Inactive)
REMARK    1  A    between atoms: C_4  and  C_5 
REMARK    2  A    between atoms: C_5  and  N_6 
REMARK       I    between atoms: N_6  and  C_7 
REMARK    3  A    between atoms: N_6  and  C_18 
REMARK       I    between atoms: C_7  and  N_8 
REMARK    4  A    between atoms: N_8  and  C_9 
REMARK    5  A    between atoms: C_10  and  O_11 
REMARK    6  A    between atoms: N_21  and  C_23 
REMARK    7  A    between atoms: C_23  and  C_24 
ROOT
HETATM    1  N   UNL     1      41.497 -13.915   3.778  1.00  0.00    -0.323 N 
HETATM    2  C   UNL     1      40.423 -13.739   2.872  1.00  0.00     0.323 C 
HETATM    3  N   UNL     1      40.770 -13.664   1.543  1.00  0.00    -0.306 N 
HETATM    4  O   UNL     1      39.279 -13.686   3.313  1.00  0.00    -0.247 OA
HETATM    5  H   UNL     1      41.717 -13.876   1.294  1.00  0.00     0.171 HD
ENDROOT
BRANCH   1   6
HETATM    6  C   UNL     1      42.876 -14.189   3.358  1.00  0.00     0.193 C 
BRANCH   6   7
HETATM    7  C   UNL     1      43.067 -15.633   3.091  1.00  0.00     0.071 A 
HETATM    8  O   UNL     1      43.576 -16.373   4.120  1.00  0.00    -0.318 OA
HETATM    9  C   UNL     1      43.688 -17.655   3.674  1.00  0.00     0.049 A 
HETATM   10  C   UNL     1      44.242 -18.648   4.618  1.00  0.00     0.076 C 
HETATM   11  C   UNL     1      43.249 -17.744   2.371  1.00  0.00     0.035 A 
HETATM   12  C   UNL     1      42.849 -16.440   1.994  1.00  0.00     0.037 A 
ENDBRANCH   6   7
ENDBRANCH   1   6
BRANCH   1  13
HETATM   13  C   UNL     1      41.142 -13.789   5.223  1.00  0.00     0.092 C 
HETATM   14  C   UNL     1      40.522 -12.478   5.727  1.00  0.00     0.053 C 
HETATM   15  C   UNL     1      41.498 -11.342   6.000  1.00  0.00     0.237 C 
HETATM   16  N   UNL     1      42.696 -11.811   6.795  1.00  0.00    -0.067 N 
HETATM   17  H   UNL     1      42.361 -11.998   7.749  1.00  0.00     0.280 HD
HETATM   18  C   UNL     1      43.327 -13.077   6.266  1.00  0.00     0.237 C 
HETATM   19  C   UNL     1      42.301 -14.180   6.151  1.00  0.00     0.053 C 
BRANCH  16  20
HETATM   20  C   UNL     1      43.769 -10.739   6.932  1.00  0.00     0.273 C 
BRANCH  20  21
HETATM   21  C   UNL     1      43.965 -10.208   8.323  1.00  0.00    -0.033 A 
HETATM   22  C   UNL     1      45.205 -10.317   8.969  1.00  0.00     0.009 A 
HETATM   23  C   UNL     1      45.370  -9.817  10.261  1.00  0.00     0.001 A 
HETATM   24  C   UNL     1      44.301  -9.211  10.920  1.00  0.00     0.000 A 
HETATM   25  C   UNL     1      43.065  -9.100  10.290  1.00  0.00     0.001 A 
HETATM   26  C   UNL     1      42.896  -9.594   8.998  1.00  0.00     0.009 A 
ENDBRANCH  20  21
ENDBRANCH  16  20
ENDBRANCH   1  13
BRANCH   3  27
HETATM   27  C   UNL     1      39.947 -13.470   0.401  1.00  0.00     0.069 A 
HETATM   28  C   UNL     1      39.173 -12.344   0.088  1.00  0.00     0.095 A 
HETATM   29  C   UNL     1      38.361 -12.333  -1.057  1.00  0.00     0.039 A 
HETATM   30  C   UNL     1      38.354 -13.414  -1.934  1.00  0.00     0.003 A 
HETATM   31  C   UNL     1      39.158 -14.515  -1.669  1.00  0.00     0.002 A 
HETATM   32  C   UNL     1      39.947 -14.541  -0.515  1.00  0.00     0.032 A 
BRANCH  28  33
HETATM   33  O   UNL     1      39.148 -11.201   0.835  1.00  0.00    -0.354 OA
HETATM   34  C   UNL     1      37.874 -11.040   1.457  1.00  0.00     0.210 C 
ENDBRANCH  28  33
ENDBRANCH   3  27
TORSDOF 7
ENDMDL
MODEL 3
REMARK VINA RESULT:      -8.8      2.848      7.038
REMARK  7 active torsions:
REMARK  status: ('A' for Active; 'I' for Inactive)
REMARK    1  A    between atoms: C_4  and  C_5 
REMARK    2  A    between atoms: C_5  and  N_6 
REMARK       I    between atoms: N_6  and  C_7 
REMARK    3  A    between atoms: N_6  and  C_18 
REMARK       I    between atoms: C_7  and  N_8 
REMARK    4  A    between atoms: N_8  and  C_9 
REMARK    5  A    between atoms: C_10  and  O_11 
REMARK    6  A    between atoms: N_21  and  C_23 
REMARK    7  A    between atoms: C_23  and  C_24 
ROOT
HETATM    1  N   UNL     1      41.954 -13.464   3.715  1.00  0.00    -0.323 N 
HETATM    2  C   UNL     1      41.910 -14.879   3.748  1.00  0.00     0.323 C 
HETATM    3  N   UNL     1      43.127 -15.515   3.662  1.00  0.00    -0.306 N 
HETATM    4  O   UNL     1      40.823 -15.434   3.869  1.00  0.00    -0.247 OA
HETATM    5  H   UNL     1      43.954 -14.953   3.723  1.00  0.00     0.171 HD
ENDROOT
BRANCH   1   6
HETATM    6  C   UNL     1      43.199 -12.689   3.772  1.00  0.00     0.193 C 
BRANCH   6   7
HETATM    7  C   UNL     1      43.602 -12.445   5.176  1.00  0.00     0.071 A 
HETATM    8  O   UNL     1      44.718 -11.679   5.357  1.00  0.00    -0.318 OA
HETATM    9  C   UNL     1      44.926 -11.586   6.701  1.00  0.00     0.049 A 
HETATM   10  C   UNL     1      46.104 -10.812   7.146  1.00  0.00     0.076 C 
HETATM   11  C   UNL     1      43.949 -12.279   7.381  1.00  0.00     0.035 A 
HETATM   12  C   UNL     1      43.095 -12.834   6.398  1.00  0.00     0.037 A 
ENDBRANCH   6   7
ENDBRANCH   1   6
BRANCH   1  13
HETATM   13  C   UNL     1      40.628 -12.785   3.601  1.00  0.00     0.092 C 
HETATM   14  C   UNL     1      39.515 -13.456   2.783  1.00  0.00     0.053 C 
HETATM   15  C   UNL     1      39.595 -13.273   1.274  1.00  0.00     0.237 C 
HETATM   16  N   UNL     1      39.862 -11.834   0.898  1.00  0.00    -0.067 N 
HETATM   17  H   UNL     1      39.001 -11.311   1.100  1.00  0.00     0.280 HD
HETATM   18  C   UNL     1      40.990 -11.195   1.675  1.00  0.00     0.237 C 
HETATM   19  C   UNL     1      40.753 -11.319   3.162  1.00  0.00     0.053 C 
BRANCH  16  20
HETATM   20  C   UNL     1      40.120 -11.653  -0.592  1.00  0.00     0.273 C 
BRANCH  20  21
HETATM   21  C   UNL     1      39.371 -12.597  -1.488  1.00  0.00    -0.033 A 
HETATM   22  C   UNL     1      40.006 -13.711  -2.056  1.00  0.00     0.009 A 
HETATM   23  C   UNL     1      39.295 -14.579  -2.885  1.00  0.00     0.001 A 
HETATM   24  C   UNL     1      37.949 -14.341  -3.159  1.00  0.00     0.000 A 
HETATM   25  C   UNL     1      37.308 -13.237  -2.604  1.00  0.00     0.001 A 
HETATM   26  C   UNL     1      38.013 -12.369  -1.772  1.00  0.00     0.009 A 
ENDBRANCH  20  21
ENDBRANCH  16  20
ENDBRANCH   1  13
BRANCH   3  27
HETATM   27  C   UNL     1      43.423 -16.904   3.644  1.00  0.00     0.069 A 
HETATM   28  C   UNL     1      44.004 -17.667   4.667  1.00  0.00     0.095 A 
HETATM   29  C   UNL     1      44.289 -19.026   4.468  1.00  0.00     0.039 A 
HETATM   30  C   UNL     1      43.949 -19.658   3.276  1.00  0.00     0.003 A 
HETATM   31  C   UNL     1      43.323 -18.931   2.271  1.00  0.00     0.002 A 
HETATM   32  C   UNL     1      43.061 -17.570   2.456  1.00  0.00     0.032 A 
BRANCH  28  33
HETATM   33  O   UNL     1      44.321 -17.176   5.901  1.00  0.00    -0.354 OA
HETATM   34  C   UNL     1      43.241 -17.381   6.811  1.00  0.00     0.210 C 
ENDBRANCH  28  33
ENDBRANCH   3  27
TORSDOF 7
ENDMDL
MODEL 4
REMARK VINA RESULT:      -8.8      2.998      6.985
REMARK  7 active torsions:
REMARK  status: ('A' for Active; 'I' for Inactive)
REMARK    1  A    between atoms: C_4  and  C_5 
REMARK    2  A    between atoms: C_5  and  N_6 
REMARK       I    between atoms: N_6  and  C_7 
REMARK    3  A    between atoms: N_6  and  C_18 
REMARK       I    between atoms: C_7  and  N_8 
REMARK    4  A    between atoms: N_8  and  C_9 
REMARK    5  A    between atoms: C_10  and  O_11 
REMARK    6  A    between atoms: N_21  and  C_23 
REMARK    7  A    between atoms: C_23  and  C_24 
ROOT
HETATM    1  N   UNL     1      42.050 -12.570   2.495  1.00  0.00    -0.323 N 
HETATM    2  C   UNL     1      41.110 -12.453   1.443  1.00  0.00     0.323 C 
HETATM    3  N   UNL     1      41.316 -13.281   0.364  1.00  0.00    -0.306 N 
HETATM    4  O   UNL     1      40.184 -11.657   1.563  1.00  0.00    -0.247 OA
HETATM    5  H   UNL     1      42.014 -13.995   0.449  1.00  0.00     0.171 HD
ENDROOT
BRANCH   1   6
HETATM    6  C   UNL     1      43.077 -13.617   2.553  1.00  0.00     0.193 C 
BRANCH   6   7
HETATM    7  C   UNL     1      42.459 -14.950   2.738  1.00  0.00     0.071 A 
HETATM    8  O   UNL     1      43.225 -16.023   2.383  1.00  0.00    -0.318 OA
HETATM    9  C   UNL     1      42.479 -17.141   2.612  1.00  0.00     0.049 A 
HETATM   10  C   UNL     1      43.099 -18.441   2.280  1.00  0.00     0.076 C 
HETATM   11  C   UNL     1      41.246 -16.792   3.118  1.00  0.00     0.035 A 
HETATM   12  C   UNL     1      41.231 -15.380   3.199  1.00  0.00     0.037 A 
ENDBRANCH   6   7
ENDBRANCH   1   6
BRANCH   1  13
HETATM   13  C   UNL     1      41.946 -11.533   3.566  1.00  0.00     0.092 C 
HETATM   14  C   UNL     1      43.233 -10.953   4.170  1.00  0.00     0.053 C 
HETATM   15  C   UNL     1      43.909 -11.803   5.237  1.00  0.00     0.237 C 
HETATM   16  N   UNL     1      42.917 -12.314   6.257  1.00  0.00    -0.067 N 
HETATM   17  H   UNL     1      42.631 -11.504   6.822  1.00  0.00     0.280 HD
HETATM   18  C   UNL     1      41.674 -12.924   5.654  1.00  0.00     0.237 C 
HETATM   19  C   UNL     1      41.008 -11.955   4.705  1.00  0.00     0.053 C 
BRANCH  16  20
HETATM   20  C   UNL     1      43.535 -13.306   7.234  1.00  0.00     0.273 C 
BRANCH  20  21
HETATM   21  C   UNL     1      43.408 -14.750   6.842  1.00  0.00    -0.033 A 
HETATM   22  C   UNL     1      42.265 -15.491   7.178  1.00  0.00     0.009 A 
HETATM   23  C   UNL     1      42.164 -16.832   6.804  1.00  0.00     0.001 A 
HETATM   24  C   UNL     1      43.200 -17.445   6.101  1.00  0.00     0.000 A 
HETATM   25  C   UNL     1      44.339 -16.720   5.765  1.00  0.00     0.001 A 
HETATM   26  C   UNL     1      44.444 -15.380   6.132  1.00  0.00     0.009 A 
ENDBRANCH  20  21
ENDBRANCH  16  20
ENDBRANCH   1  13
BRANCH   3  27
HETATM   27  C   UNL     1      40.580 -13.392  -0.846  1.00  0.00     0.069 A 
HETATM   28  C   UNL     1      40.614 -12.529  -1.949  1.00  0.00     0.095 A 
HETATM   29  C   UNL     1      39.774 -12.747  -3.052  1.00  0.00     0.039 A 
HETATM   30  C   UNL     1      38.934 -13.856  -3.097  1.00  0.00     0.003 A 
HETATM   31  C   UNL     1      38.927 -14.753  -2.037  1.00  0.00     0.002 A 
HETATM   32  C   UNL     1      39.744 -14.524  -0.925  1.00  0.00     0.032 A 
BRANCH  28  33
HETATM   33  O   UNL     1      41.442 -11.447  -2.049  1.00  0.00    -0.354 OA
HETATM   34  C   UNL     1      40.726 -10.245  -1.772  1.00  0.00     0.210 C 
ENDBRANCH  28  33
ENDBRANCH   3  27
TORSDOF 7
ENDMDL
MODEL 5
REMARK VINA RESULT:      -8.7      2.284      7.778
REMARK  7 active torsions:
REMARK  status: ('A' for Active; 'I' for Inactive)
REMARK    1  A    between atoms: C_4  and  C_5 
REMARK    2  A    between atoms: C_5  and  N_6 
REMARK       I    between atoms: N_6  and  C_7 
REMARK    3  A    between atoms: N_6  and  C_18 
REMARK       I    between atoms: C_7  and  N_8 
REMARK    4  A    between atoms: N_8  and  C_9 
REMARK    5  A    between atoms: C_10  and  O_11 
REMARK    6  A    between atoms: N_21  and  C_23 
REMARK    7  A    between atoms: C_23  and  C_24 
ROOT
HETATM    1  N   UNL     1      41.376 -14.602   3.503  1.00  0.00    -0.323 N 
HETATM    2  C   UNL     1      41.670 -15.929   3.901  1.00  0.00     0.323 C 
HETATM    3  N   UNL     1      42.598 -16.590   3.131  1.00  0.00    -0.306 N 
HETATM    4  O   UNL     1      41.111 -16.387   4.892  1.00  0.00    -0.247 OA
HETATM    5  H   UNL     1      43.099 -16.060   2.443  1.00  0.00     0.171 HD
ENDROOT
BRANCH   1   6
HETATM    6  C   UNL     1      42.120 -13.883   2.463  1.00  0.00     0.193 C 
BRANCH   6   7
HETATM    7  C   UNL     1      41.366 -13.874   1.188  1.00  0.00     0.071 A 
HETATM    8  O   UNL     1      41.368 -12.697   0.496  1.00  0.00    -0.318 OA
HETATM    9  C   UNL     1      40.616 -12.891  -0.625  1.00  0.00     0.049 A 
HETATM   10  C   UNL     1      40.454 -11.736  -1.532  1.00  0.00     0.076 C 
HETATM   11  C   UNL     1      40.139 -14.183  -0.658  1.00  0.00     0.035 A 
HETATM   12  C   UNL     1      40.621 -14.818   0.511  1.00  0.00     0.037 A 
ENDBRANCH   6   7
ENDBRANCH   1   6
BRANCH   1  13
HETATM   13  C   UNL     1      40.225 -13.962   4.209  1.00  0.00     0.092 C 
HETATM   14  C   UNL     1      39.645 -12.653   3.654  1.00  0.00     0.053 C 
HETATM   15  C   UNL     1      40.405 -11.384   4.013  1.00  0.00     0.237 C 
HETATM   16  N   UNL     1      40.755 -11.336   5.483  1.00  0.00    -0.067 N 
HETATM   17  H   UNL     1      39.876 -11.173   5.990  1.00  0.00     0.280 HD
HETATM   18  C   UNL     1      41.367 -12.613   6.010  1.00  0.00     0.237 C 
HETATM   19  C   UNL     1      40.476 -13.797   5.715  1.00  0.00     0.053 C 
BRANCH  16  20
HETATM   20  C   UNL     1      41.663 -10.166   5.835  1.00  0.00     0.273 C 
BRANCH  20  21
HETATM   21  C   UNL     1      43.016 -10.546   6.364  1.00  0.00    -0.033 A 
HETATM   22  C   UNL     1      43.990 -11.103   5.522  1.00  0.00     0.009 A 
HETATM   23  C   UNL     1      45.243 -11.449   6.031  1.00  0.00     0.001 A 
HETATM   24  C   UNL     1      45.532 -11.249   7.379  1.00  0.00     0.000 A 
HETATM   25  C   UNL     1      44.573 -10.699   8.225  1.00  0.00     0.001 A 
HETATM   26  C   UNL     1      43.322 -10.349   7.722  1.00  0.00     0.009 A 
ENDBRANCH  20  21
ENDBRANCH  16  20
ENDBRANCH   1  13
BRANCH   3  27
HETATM   27  C   UNL     1      43.090 -17.918   3.246  1.00  0.00     0.069 A 
HETATM   28  C   UNL     1      43.842 -18.462   4.296  1.00  0.00     0.095 A 
HETATM   29  C   UNL     1      44.307 -19.784   4.230  1.00  0.00     0.039 A 
HETATM   30  C   UNL     1      43.982 -20.599   3.149  1.00  0.00     0.003 A 
HETATM   31  C   UNL     1      43.192 -20.094   2.125  1.00  0.00     0.002 A 
HETATM   32  C   UNL     1      42.750 -18.768   2.175  1.00  0.00     0.032 A 
BRANCH  28  33
HETATM   33  O   UNL     1      44.166 -17.783   5.436  1.00  0.00    -0.354 OA
HETATM   34  C   UNL     1      43.428 -18.293   6.546  1.00  0.00     0.210 C 
ENDBRANCH  28  33
ENDBRANCH   3  27
TORSDOF 7
ENDMDL
MODEL 6
REMARK VINA RESULT:      -8.7      2.714      4.187
REMARK  7 active torsions:
REMARK  status: ('A' for Active; 'I' for Inactive)
REMARK    1  A    between atoms: C_4  and  C_5 
REMARK    2  A    between atoms: C_5  and  N_6 
REMARK       I    between atoms: N_6  and  C_7 
REMARK    3  A    between atoms: N_6  and  C_18 
REMARK       I    between atoms: C_7  and  N_8 
REMARK    4  A    between atoms: N_8  and  C_9 
REMARK    5  A    between atoms: C_10  and  O_11 
REMARK    6  A    between atoms: N_21  and  C_23 
REMARK    7  A    between atoms: C_23  and  C_24 
ROOT
HETATM    1  N   UNL     1      40.322 -11.331   6.121  1.00  0.00    -0.323 N 
HETATM    2  C   UNL     1      39.665 -10.769   7.242  1.00  0.00     0.323 C 
HETATM    3  N   UNL     1      40.316  -9.720   7.850  1.00  0.00    -0.306 N 
HETATM    4  O   UNL     1      38.579 -11.226   7.582  1.00  0.00    -0.247 OA
HETATM    5  H   UNL     1      41.119  -9.338   7.389  1.00  0.00     0.171 HD
ENDROOT
BRANCH   1   6
HETATM    6  C   UNL     1      41.519 -10.748   5.505  1.00  0.00     0.193 C 
BRANCH   6   7
HETATM    7  C   UNL     1      42.738 -11.139   6.251  1.00  0.00     0.071 A 
HETATM    8  O   UNL     1      42.987 -10.445   7.400  1.00  0.00    -0.318 OA
HETATM    9  C   UNL     1      44.145 -10.940   7.922  1.00  0.00     0.049 A 
HETATM   10  C   UNL     1      44.635 -10.324   9.173  1.00  0.00     0.076 C 
HETATM   11  C   UNL     1      44.634 -11.949   7.121  1.00  0.00     0.035 A 
HETATM   12  C   UNL     1      43.727 -12.077   6.042  1.00  0.00     0.037 A 
ENDBRANCH   6   7
ENDBRANCH   1   6
BRANCH   1  13
HETATM   13  C   UNL     1      39.721 -12.593   5.593  1.00  0.00     0.092 C 
HETATM   14  C   UNL     1      40.193 -13.939   6.163  1.00  0.00     0.053 C 
HETATM   15  C   UNL     1      41.501 -14.477   5.599  1.00  0.00     0.237 C 
HETATM   16  N   UNL     1      41.538 -14.392   4.090  1.00  0.00    -0.067 N 
HETATM   17  H   UNL     1      40.881 -15.100   3.738  1.00  0.00     0.280 HD
HETATM   18  C   UNL     1      41.115 -13.050   3.540  1.00  0.00     0.237 C 
HETATM   19  C   UNL     1      39.750 -12.664   4.060  1.00  0.00     0.053 C 
BRANCH  16  20
HETATM   20  C   UNL     1      42.898 -14.760   3.512  1.00  0.00     0.273 C 
BRANCH  20  21
HETATM   21  C   UNL     1      43.180 -16.233   3.437  1.00  0.00    -0.033 A 
HETATM   22  C   UNL     1      42.754 -16.995   2.339  1.00  0.00     0.009 A 
HETATM   23  C   UNL     1      43.026 -18.363   2.285  1.00  0.00     0.001 A 
HETATM   24  C   UNL     1      43.718 -18.982   3.325  1.00  0.00     0.000 A 
HETATM   25  C   UNL     1      44.143 -18.237   4.421  1.00  0.00     0.001 A 
HETATM   26  C   UNL     1      43.877 -16.870   4.478  1.00  0.00     0.009 A 
ENDBRANCH  20  21
ENDBRANCH  16  20
ENDBRANCH   1  13
BRANCH   3  27
HETATM   27  C   UNL     1      39.944  -8.963   8.993  1.00  0.00     0.069 A 
HETATM   28  C   UNL     1      38.997  -7.932   9.063  1.00  0.00     0.095 A 
HETATM   29  C   UNL     1      38.787  -7.237  10.264  1.00  0.00     0.039 A 
HETATM   30  C   UNL     1      39.471  -7.595  11.422  1.00  0.00     0.003 A 
HETATM   31  C   UNL     1      40.373  -8.651  11.384  1.00  0.00     0.002 A 
HETATM   32  C   UNL     1      40.604  -9.328  10.183  1.00  0.00     0.032 A 
BRANCH  28  33
HETATM   33  O   UNL     1      38.218  -7.536   8.013  1.00  0.00    -0.354 OA
HETATM   34  C   UNL     1      38.281  -6.119   7.854  1.00  0.00     0.210 C 
ENDBRANCH  28  33
ENDBRANCH   3  27
TORSDOF 7
ENDMDL
MODEL 7
REMARK VINA RESULT:      -8.5      2.506      4.617
REMARK  7 active torsions:
REMARK  status: ('A' for Active; 'I' for Inactive)
REMARK    1  A    between atoms: C_4  and  C_5 
REMARK    2  A    between atoms: C_5  and  N_6 
REMARK       I    between atoms: N_6  and  C_7 
REMARK    3  A    between atoms: N_6  and  C_18 
REMARK       I    between atoms: C_7  and  N_8 
REMARK    4  A    between atoms: N_8  and  C_9 
REMARK    5  A    between atoms: C_10  and  O_11 
REMARK    6  A    between atoms: N_21  and  C_23 
REMARK    7  A    between atoms: C_23  and  C_24 
ROOT
HETATM    1  N   UNL     1      41.523 -12.650   5.909  1.00  0.00    -0.323 N 
HETATM    2  C   UNL     1      40.407 -11.792   6.061  1.00  0.00     0.323 C 
HETATM    3  N   UNL     1      40.629 -10.467   5.764  1.00  0.00    -0.306 N 
HETATM    4  O   UNL     1      39.336 -12.271   6.418  1.00  0.00    -0.247 OA
HETATM    5  H   UNL     1      41.501 -10.224   5.335  1.00  0.00     0.171 HD
ENDROOT
BRANCH   1   6
HETATM    6  C   UNL     1      42.792 -12.231   5.303  1.00  0.00     0.193 C 
BRANCH   6   7
HETATM    7  C   UNL     1      43.710 -11.687   6.331  1.00  0.00     0.071 A 
HETATM    8  O   UNL     1      43.171 -10.784   7.202  1.00  0.00    -0.318 OA
HETATM    9  C   UNL     1      44.168 -10.398   8.047  1.00  0.00     0.049 A 
HETATM   10  C   UNL     1      43.824  -9.397   9.078  1.00  0.00     0.076 C 
HETATM   11  C   UNL     1      45.338 -11.051   7.728  1.00  0.00     0.035 A 
HETATM   12  C   UNL     1      45.044 -11.882   6.621  1.00  0.00     0.037 A 
ENDBRANCH   6   7
ENDBRANCH   1   6
BRANCH   1  13
HETATM   13  C   UNL     1      41.337 -14.039   6.426  1.00  0.00     0.092 C 
HETATM   14  C   UNL     1      42.551 -14.794   6.988  1.00  0.00     0.053 C 
HETATM   15  C   UNL     1      43.469 -15.438   5.959  1.00  0.00     0.237 C 
HETATM   16  N   UNL     1      42.689 -16.202   4.913  1.00  0.00    -0.067 N 
HETATM   17  H   UNL     1      42.318 -17.040   5.377  1.00  0.00     0.280 HD
HETATM   18  C   UNL     1      41.524 -15.435   4.332  1.00  0.00     0.237 C 
HETATM   19  C   UNL     1      40.605 -14.947   5.428  1.00  0.00     0.053 C 
BRANCH  16  20
HETATM   20  C   UNL     1      43.568 -16.708   3.777  1.00  0.00     0.273 C 
BRANCH  20  21
HETATM   21  C   UNL     1      43.665 -18.202   3.663  1.00  0.00    -0.033 A 
HETATM   22  C   UNL     1      43.360 -18.856   2.460  1.00  0.00     0.009 A 
HETATM   23  C   UNL     1      43.455 -20.246   2.373  1.00  0.00     0.001 A 
HETATM   24  C   UNL     1      43.850 -20.993   3.481  1.00  0.00     0.000 A 
HETATM   25  C   UNL     1      44.153 -20.355   4.681  1.00  0.00     0.001 A 
HETATM   26  C   UNL     1      44.062 -18.968   4.773  1.00  0.00     0.009 A 
ENDBRANCH  20  21
ENDBRANCH  16  20
ENDBRANCH   1  13
BRANCH   3  27
HETATM   27  C   UNL     1      39.740  -9.361   5.834  1.00  0.00     0.069 A 
HETATM   28  C   UNL     1      38.798  -8.961   4.876  1.00  0.00     0.095 A 
HETATM   29  C   UNL     1      38.031  -7.802   5.071  1.00  0.00     0.039 A 
HETATM   30  C   UNL     1      38.149  -7.060   6.243  1.00  0.00     0.003 A 
HETATM   31  C   UNL     1      39.038  -7.472   7.227  1.00  0.00     0.002 A 
HETATM   32  C   UNL     1      39.822  -8.612   7.025  1.00  0.00     0.032 A 
BRANCH  28  33
HETATM   33  O   UNL     1      38.545  -9.643   3.721  1.00  0.00    -0.354 OA
HETATM   34  C   UNL     1      37.961  -8.777   2.749  1.00  0.00     0.210 C 
ENDBRANCH  28  33
ENDBRANCH   3  27
TORSDOF 7
ENDMDL
MODEL 8
REMARK VINA RESULT:      -8.5      3.150      5.166
REMARK  7 active torsions:
REMARK  status: ('A' for Active; 'I' for Inactive)
REMARK    1  A    between atoms: C_4  and  C_5 
REMARK    2  A    between atoms: C_5  and  N_6 
REMARK       I    between atoms: N_6  and  C_7 
REMARK    3  A    between atoms: N_6  and  C_18 
REMARK       I    between atoms: C_7  and  N_8 
REMARK    4  A    between atoms: N_8  and  C_9 
REMARK    5  A    between atoms: C_10  and  O_11 
REMARK    6  A    between atoms: N_21  and  C_23 
REMARK    7  A    between atoms: C_23  and  C_24 
ROOT
HETATM    1  N   UNL     1      41.525 -13.575   5.335  1.00  0.00    -0.323 N 
HETATM    2  C   UNL     1      40.371 -12.756   5.286  1.00  0.00     0.323 C 
HETATM    3  N   UNL     1      40.473 -11.629   4.503  1.00  0.00    -0.306 N 
HETATM    4  O   UNL     1      39.374 -13.102   5.911  1.00  0.00    -0.247 OA
HETATM    5  H   UNL     1      41.282 -11.536   3.921  1.00  0.00     0.171 HD
ENDROOT
BRANCH   1   6
HETATM    6  C   UNL     1      42.701 -13.372   4.481  1.00  0.00     0.193 C 
BRANCH   6   7
HETATM    7  C   UNL     1      42.551 -14.098   3.199  1.00  0.00     0.071 A 
HETATM    8  O   UNL     1      41.280 -14.201   2.711  1.00  0.00    -0.318 OA
HETATM    9  C   UNL     1      41.354 -14.906   1.547  1.00  0.00     0.049 A 
HETATM   10  C   UNL     1      40.084 -15.166   0.838  1.00  0.00     0.076 C 
HETATM   11  C   UNL     1      42.662 -15.249   1.283  1.00  0.00     0.035 A 
HETATM   12  C   UNL     1      43.435 -14.728   2.348  1.00  0.00     0.037 A 
ENDBRANCH   6   7
ENDBRANCH   1   6
BRANCH   1  13
HETATM   13  C   UNL     1      41.485 -14.679   6.341  1.00  0.00     0.092 C 
HETATM   14  C   UNL     1      42.684 -14.876   7.280  1.00  0.00     0.053 C 
HETATM   15  C   UNL     1      43.871 -15.628   6.694  1.00  0.00     0.237 C 
HETATM   16  N   UNL     1      43.438 -16.879   5.965  1.00  0.00    -0.067 N 
HETATM   17  H   UNL     1      43.134 -17.548   6.683  1.00  0.00     0.280 HD
HETATM   18  C   UNL     1      42.287 -16.667   5.009  1.00  0.00     0.237 C 
HETATM   19  C   UNL     1      41.113 -16.031   5.717  1.00  0.00     0.053 C 
BRANCH  16  20
HETATM   20  C   UNL     1      44.583 -17.555   5.222  1.00  0.00     0.273 C 
BRANCH  20  21
HETATM   21  C   UNL     1      44.174 -18.647   4.276  1.00  0.00    -0.033 A 
HETATM   22  C   UNL     1      44.138 -19.986   4.691  1.00  0.00     0.009 A 
HETATM   23  C   UNL     1      43.755 -20.987   3.798  1.00  0.00     0.001 A 
HETATM   24  C   UNL     1      43.410 -20.664   2.487  1.00  0.00     0.000 A 
HETATM   25  C   UNL     1      43.444 -19.338   2.063  1.00  0.00     0.001 A 
HETATM   26  C   UNL     1      43.823 -18.334   2.951  1.00  0.00     0.009 A 
ENDBRANCH  20  21
ENDBRANCH  16  20
ENDBRANCH   1  13
BRANCH   3  27
HETATM   27  C   UNL     1      39.519 -10.605   4.263  1.00  0.00     0.069 A 
HETATM   28  C   UNL     1      38.851 -10.324   3.063  1.00  0.00     0.095 A 
HETATM   29  C   UNL     1      37.977  -9.230   2.973  1.00  0.00     0.039 A 
HETATM   30  C   UNL     1      37.711  -8.438   4.087  1.00  0.00     0.003 A 
HETATM   31  C   UNL     1      38.321  -8.735   5.298  1.00  0.00     0.002 A 
HETATM   32  C   UNL     1      39.213  -9.808   5.385  1.00  0.00     0.032 A 
BRANCH  28  33
HETATM   33  O   UNL     1      38.979 -11.066   1.925  1.00  0.00    -0.354 OA
HETATM   34  C   UNL     1      38.137 -10.549   0.895  1.00  0.00     0.210 C 
ENDBRANCH  28  33
ENDBRANCH   3  27
TORSDOF 7
ENDMDL
MODEL 9
REMARK VINA RESULT:      -8.4      2.002      3.567
REMARK  7 active torsions:
REMARK  status: ('A' for Active; 'I' for Inactive)
REMARK    1  A    between atoms: C_4  and  C_5 
REMARK    2  A    between atoms: C_5  and  N_6 
REMARK       I    between atoms: N_6  and  C_7 
REMARK    3  A    between atoms: N_6  and  C_18 
REMARK       I    between atoms: C_7  and  N_8 
REMARK    4  A    between atoms: N_8  and  C_9 
REMARK    5  A    between atoms: C_10  and  O_11 
REMARK    6  A    between atoms: N_21  and  C_23 
REMARK    7  A    between atoms: C_23  and  C_24 
ROOT
HETATM    1  N   UNL     1      42.279 -11.402   5.774  1.00  0.00    -0.323 N 
HETATM    2  C   UNL     1      41.572 -10.257   6.215  1.00  0.00     0.323 C 
HETATM    3  N   UNL     1      41.490 -10.096   7.579  1.00  0.00    -0.306 N 
HETATM    4  O   UNL     1      41.106  -9.491   5.378  1.00  0.00    -0.247 OA
HETATM    5  H   UNL     1      42.042 -10.702   8.155  1.00  0.00     0.171 HD
ENDROOT
BRANCH   1   6
HETATM    6  C   UNL     1      43.044 -12.278   6.668  1.00  0.00     0.193 C 
BRANCH   6   7
HETATM    7  C   UNL     1      44.244 -11.581   7.187  1.00  0.00     0.071 A 
HETATM    8  O   UNL     1      44.172 -11.138   8.476  1.00  0.00    -0.318 OA
HETATM    9  C   UNL     1      45.355 -10.520   8.753  1.00  0.00     0.049 A 
HETATM   10  C   UNL     1      45.507  -9.935  10.102  1.00  0.00     0.076 C 
HETATM   11  C   UNL     1      46.185 -10.571   7.655  1.00  0.00     0.035 A 
HETATM   12  C   UNL     1      45.469 -11.254   6.643  1.00  0.00     0.037 A 
ENDBRANCH   6   7
ENDBRANCH   1   6
BRANCH   1  13
HETATM   13  C   UNL     1      42.190 -11.685   4.309  1.00  0.00     0.092 C 
HETATM   14  C   UNL     1      40.823 -12.030   3.699  1.00  0.00     0.053 C 
HETATM   15  C   UNL     1      40.361 -13.470   3.875  1.00  0.00     0.237 C 
HETATM   16  N   UNL     1      41.459 -14.455   3.543  1.00  0.00    -0.067 N 
HETATM   17  H   UNL     1      41.583 -14.426   2.524  1.00  0.00     0.280 HD
HETATM   18  C   UNL     1      42.788 -14.133   4.185  1.00  0.00     0.237 C 
HETATM   19  C   UNL     1      43.219 -12.725   3.846  1.00  0.00     0.053 C 
BRANCH  16  20
HETATM   20  C   UNL     1      41.080 -15.892   3.877  1.00  0.00     0.273 C 
BRANCH  20  21
HETATM   21  C   UNL     1      42.202 -16.886   3.779  1.00  0.00    -0.033 A 
HETATM   22  C   UNL     1      42.939 -17.257   4.913  1.00  0.00     0.009 A 
HETATM   23  C   UNL     1      43.978 -18.183   4.804  1.00  0.00     0.001 A 
HETATM   24  C   UNL     1      44.294 -18.739   3.566  1.00  0.00     0.000 A 
HETATM   25  C   UNL     1      43.572 -18.376   2.433  1.00  0.00     0.001 A 
HETATM   26  C   UNL     1      42.531 -17.455   2.537  1.00  0.00     0.009 A 
ENDBRANCH  20  21
ENDBRANCH  16  20
ENDBRANCH   1  13
BRANCH   3  27
HETATM   27  C   UNL     1      40.842  -9.082   8.334  1.00  0.00     0.069 A 
HETATM   28  C   UNL     1      41.228  -7.742   8.472  1.00  0.00     0.095 A 
HETATM   29  C   UNL     1      40.509  -6.876   9.309  1.00  0.00     0.039 A 
HETATM   30  C   UNL     1      39.366  -7.314   9.973  1.00  0.00     0.003 A 
HETATM   31  C   UNL     1      38.937  -8.624   9.805  1.00  0.00     0.002 A 
HETATM   32  C   UNL     1      39.667  -9.497   8.992  1.00  0.00     0.032 A 
BRANCH  28  33
HETATM   33  O   UNL     1      42.289  -7.180   7.821  1.00  0.00    -0.354 OA
HETATM   34  C   UNL     1      41.836  -6.234   6.854  1.00  0.00     0.210 C 
ENDBRANCH  28  33
ENDBRANCH   3  27
TORSDOF 7
ENDMDL
MODEL 10
REMARK VINA RESULT:      -8.4      1.705      2.657
REMARK  7 active torsions:
REMARK  status: ('A' for Active; 'I' for Inactive)
REMARK    1  A    between atoms: C_4  and  C_5 
REMARK    2  A    between atoms: C_5  and  N_6 
REMARK       I    between atoms: N_6  and  C_7 
REMARK    3  A    between atoms: N_6  and  C_18 
REMARK       I    between atoms: C_7  and  N_8 
REMARK    4  A    between atoms: N_8  and  C_9 
REMARK    5  A    between atoms: C_10  and  O_11 
REMARK    6  A    between atoms: N_21  and  C_23 
REMARK    7  A    between atoms: C_23  and  C_24 
ROOT
HETATM    1  N   UNL     1      41.076 -11.489   5.009  1.00  0.00    -0.323 N 
HETATM    2  C   UNL     1      42.024 -10.684   5.686  1.00  0.00     0.323 C 
HETATM    3  N   UNL     1      42.397 -11.125   6.935  1.00  0.00    -0.306 N 
HETATM    4  O   UNL     1      42.456  -9.682   5.126  1.00  0.00    -0.247 OA
HETATM    5  H   UNL     1      42.093 -12.036   7.219  1.00  0.00     0.171 HD
ENDROOT
BRANCH   1   6
HETATM    6  C   UNL     1      40.638 -12.805   5.489  1.00  0.00     0.193 C 
BRANCH   6   7
HETATM    7  C   UNL     1      41.799 -13.697   5.709  1.00  0.00     0.071 A 
HETATM    8  O   UNL     1      41.822 -14.374   6.894  1.00  0.00    -0.318 OA
HETATM    9  C   UNL     1      42.964 -15.119   6.908  1.00  0.00     0.049 A 
HETATM   10  C   UNL     1      43.220 -15.932   8.115  1.00  0.00     0.076 C 
HETATM   11  C   UNL     1      43.667 -14.930   5.738  1.00  0.00     0.035 A 
HETATM   12  C   UNL     1      42.918 -14.012   4.965  1.00  0.00     0.037 A 
ENDBRANCH   6   7
ENDBRANCH   1   6
BRANCH   1  13
HETATM   13  C   UNL     1      40.520 -10.904   3.751  1.00  0.00     0.092 C 
HETATM   14  C   UNL     1      39.121 -11.331   3.285  1.00  0.00     0.053 C 
HETATM   15  C   UNL     1      39.043 -12.661   2.548  1.00  0.00     0.237 C 
HETATM   16  N   UNL     1      40.116 -12.779   1.489  1.00  0.00    -0.067 N 
HETATM   17  H   UNL     1      39.855 -12.134   0.732  1.00  0.00     0.280 HD
HETATM   18  C   UNL     1      41.498 -12.400   1.969  1.00  0.00     0.237 C 
HETATM   19  C   UNL     1      41.494 -11.013   2.570  1.00  0.00     0.053 C 
BRANCH  16  20
HETATM   20  C   UNL     1      40.171 -14.164   0.858  1.00  0.00     0.273 C 
BRANCH  20  21
HETATM   21  C   UNL     1      41.061 -15.149   1.560  1.00  0.00    -0.033 A 
HETATM   22  C   UNL     1      42.366 -15.394   1.107  1.00  0.00     0.009 A 
HETATM   23  C   UNL     1      43.179 -16.313   1.771  1.00  0.00     0.001 A 
HETATM   24  C   UNL     1      42.698 -16.998   2.887  1.00  0.00     0.000 A 
HETATM   25  C   UNL     1      41.404 -16.765   3.343  1.00  0.00     0.001 A 
HETATM   26  C   UNL     1      40.589 -15.846   2.685  1.00  0.00     0.009 A 
ENDBRANCH  20  21
ENDBRANCH  16  20
ENDBRANCH   1  13
BRANCH   3  27
HETATM   27  C   UNL     1      43.295 -10.544   7.869  1.00  0.00     0.069 A 
HETATM   28  C   UNL     1      42.989  -9.657   8.910  1.00  0.00     0.095 A 
HETATM   29  C   UNL     1      44.008  -9.123   9.714  1.00  0.00     0.039 A 
HETATM   30  C   UNL     1      45.333  -9.507   9.531  1.00  0.00     0.003 A 
HETATM   31  C   UNL     1      45.649 -10.427   8.540  1.00  0.00     0.002 A 
HETATM   32  C   UNL     1      44.640 -10.941   7.720  1.00  0.00     0.032 A 
BRANCH  28  33
HETATM   33  O   UNL     1      41.723  -9.259   9.228  1.00  0.00    -0.354 OA
HETATM   34  C   UNL     1      41.675  -8.772  10.568  1.00  0.00     0.210 C 
ENDBRANCH  28  33
ENDBRANCH   3  27
TORSDOF 7
ENDMDL
