MODEL 1
REMARK VINA RESULT:      -9.2      0.000      0.000
REMARK  7 active torsions:
REMARK  status: ('A' for Active; 'I' for Inactive)
REMARK    1  A    between atoms: C_2  and  N_3 
REMARK    2  A    between atoms: C_2  and  C_12 
REMARK       I    between atoms: N_3  and  C_4 
REMARK    3  A    between atoms: C_4  and  C_5 
REMARK    4  A    between atoms: N_17  and  C_19 
REMARK    5  A    between atoms: C_19  and  C_20 
REMARK    6  A    between atoms: C_22  and  C_23 
REMARK    7  A    between atoms: C_23  and  N_24 
ROOT
HETATM    1  C   UNL     1      43.711  -9.276   9.111  1.00  0.00     0.152 A 
HETATM    2  N   UNL     1      43.710  -9.994   7.931  1.00  0.00    -0.317 N 
HETATM    3  C   UNL     1      44.840 -10.775   7.968  1.00  0.00     0.131 A 
HETATM    4  C   UNL     1      45.234 -11.800   6.972  1.00  0.00     0.108 C 
HETATM    5  C   UNL     1      44.083 -12.760   6.710  1.00  0.00     0.243 C 
HETATM    6  N   UNL     1      43.067 -12.218   5.707  1.00  0.00    -0.065 N 
HETATM    7  H   UNL     1      43.416 -12.504   4.783  1.00  0.00     0.280 HD
HETATM    8  C   UNL     1      42.952 -10.697   5.613  1.00  0.00     0.255 C 
HETATM    9  C   UNL     1      42.657 -10.001   6.942  1.00  0.00     0.159 C 
HETATM   10  N   UNL     1      45.481 -10.545   9.089  1.00  0.00    -0.135 NA
HETATM   11  N   UNL     1      44.778  -9.621   9.803  1.00  0.00    -0.133 NA
ENDROOT
BRANCH   6  12
HETATM   12  C   UNL     1      41.710 -12.908   5.846  1.00  0.00     0.280 C 
BRANCH  12  13
HETATM   13  C   UNL     1      41.622 -14.194   5.065  1.00  0.00     0.009 A 
HETATM   14  S   UNL     1      42.750 -14.530   3.814  1.00  0.00    -0.096 SA
HETATM   15  C   UNL     1      41.995 -16.017   3.416  1.00  0.00     0.009 A 
HETATM   16  C   UNL     1      40.922 -16.267   4.250  1.00  0.00     0.017 A 
HETATM   17  C   UNL     1      40.717 -15.228   5.207  1.00  0.00     0.017 A 
BRANCH  15  18
HETATM   18  C   UNL     1      42.499 -16.850   2.271  1.00  0.00     0.280 C 
BRANCH  18  19
HETATM   19  N   UNL     1      43.358 -18.027   2.686  1.00  0.00    -0.067 N 
HETATM   20  H   UNL     1      44.271 -17.895   2.233  1.00  0.00     0.280 HD
HETATM   21  C   UNL     1      43.588 -18.090   4.179  1.00  0.00     0.235 C 
HETATM   22  C   UNL     1      44.518 -19.249   4.511  1.00  0.00     0.028 C 
HETATM   23  C   UNL     1      43.982 -20.571   3.978  1.00  0.00     0.003 C 
HETATM   24  C   UNL     1      43.704 -20.482   2.484  1.00  0.00     0.028 C 
HETATM   25  C   UNL     1      42.777 -19.322   2.153  1.00  0.00     0.235 C 
ENDBRANCH  18  19
ENDBRANCH  15  18
ENDBRANCH  12  13
ENDBRANCH   6  12
BRANCH   1  26
HETATM   26  C   UNL     1      42.641  -8.330   9.579  1.00  0.00     0.152 C 
HETATM   27  C   UNL     1      42.763  -6.976   8.890  1.00  0.00     0.040 C 
BRANCH  26  28
HETATM   28  N   UNL     1      42.797  -8.189  11.019  1.00  0.00    -0.349 N 
HETATM   29  C   UNL     1      42.019  -8.891  11.906  1.00  0.00     0.222 C 
HETATM   30  O   UNL     1      41.051  -9.555  11.543  1.00  0.00    -0.273 OA
HETATM   31  H   UNL     1      43.673  -7.789  11.339  1.00  0.00     0.163 HD
BRANCH  29  32
HETATM   32  C   UNL     1      42.489  -8.827  13.359  1.00  0.00     0.082 C 
HETATM   33  C   UNL     1      43.279  -7.544  13.637  1.00  0.00     0.040 C 
HETATM   34  C   UNL     1      42.379  -6.312  13.686  1.00  0.00     0.168 C 
HETATM   35  O   UNL     1      41.278  -6.480  14.580  1.00  0.00    -0.391 OA
HETATM   36  C   UNL     1      40.478  -7.622  14.278  1.00  0.00     0.168 C 
HETATM   37  C   UNL     1      41.300  -8.905  14.322  1.00  0.00     0.040 C 
ENDBRANCH  29  32
ENDBRANCH  26  28
ENDBRANCH   1  26
TORSDOF 7
ENDMDL
MODEL 2
REMARK VINA RESULT:      -8.8      2.953      3.883
REMARK  7 active torsions:
REMARK  status: ('A' for Active; 'I' for Inactive)
REMARK    1  A    between atoms: C_2  and  N_3 
REMARK    2  A    between atoms: C_2  and  C_12 
REMARK       I    between atoms: N_3  and  C_4 
REMARK    3  A    between atoms: C_4  and  C_5 
REMARK    4  A    between atoms: N_17  and  C_19 
REMARK    5  A    between atoms: C_19  and  C_20 
REMARK    6  A    between atoms: C_22  and  C_23 
REMARK    7  A    between atoms: C_23  and  N_24 
ROOT
HETATM    1  C   UNL     1      43.812  -9.407   8.824  1.00  0.00     0.152 A 
HETATM    2  N   UNL     1      43.700 -10.173   7.682  1.00  0.00    -0.317 N 
HETATM    3  C   UNL     1      44.770 -11.034   7.702  1.00  0.00     0.131 A 
HETATM    4  C   UNL     1      45.038 -12.128   6.738  1.00  0.00     0.108 C 
HETATM    5  C   UNL     1      43.809 -13.010   6.576  1.00  0.00     0.243 C 
HETATM    6  N   UNL     1      42.786 -12.437   5.597  1.00  0.00    -0.065 N 
HETATM    7  H   UNL     1      43.066 -12.789   4.672  1.00  0.00     0.280 HD
HETATM    8  C   UNL     1      42.777 -10.918   5.437  1.00  0.00     0.255 C 
HETATM    9  C   UNL     1      42.600 -10.144   6.744  1.00  0.00     0.159 C 
HETATM   10  N   UNL     1      45.482 -10.804   8.779  1.00  0.00    -0.135 NA
HETATM   11  N   UNL     1      44.885  -9.800   9.481  1.00  0.00    -0.133 NA
ENDROOT
BRANCH   6  12
HETATM   12  C   UNL     1      41.391 -13.018   5.832  1.00  0.00     0.280 C 
BRANCH  12  13
HETATM   13  C   UNL     1      40.631 -13.259   4.554  1.00  0.00     0.009 A 
HETATM   14  S   UNL     1      41.153 -14.464   3.447  1.00  0.00    -0.096 SA
HETATM   15  C   UNL     1      39.909 -14.096   2.327  1.00  0.00     0.009 A 
HETATM   16  C   UNL     1      39.088 -13.094   2.809  1.00  0.00     0.017 A 
HETATM   17  C   UNL     1      39.494 -12.623   4.094  1.00  0.00     0.017 A 
BRANCH  15  18
HETATM   18  C   UNL     1      39.828 -14.811   1.007  1.00  0.00     0.280 C 
BRANCH  18  19
HETATM   19  N   UNL     1      39.648 -13.898  -0.188  1.00  0.00    -0.067 N 
HETATM   20  H   UNL     1      38.799 -13.347  -0.007  1.00  0.00     0.280 HD
HETATM   21  C   UNL     1      40.796 -12.931  -0.367  1.00  0.00     0.235 C 
HETATM   22  C   UNL     1      40.510 -11.999  -1.537  1.00  0.00     0.028 C 
HETATM   23  C   UNL     1      40.233 -12.772  -2.819  1.00  0.00     0.003 C 
HETATM   24  C   UNL     1      39.111 -13.780  -2.614  1.00  0.00     0.028 C 
HETATM   25  C   UNL     1      39.396 -14.710  -1.444  1.00  0.00     0.235 C 
ENDBRANCH  18  19
ENDBRANCH  15  18
ENDBRANCH  12  13
ENDBRANCH   6  12
BRANCH   1  26
HETATM   26  C   UNL     1      42.839  -8.364   9.297  1.00  0.00     0.152 C 
HETATM   27  C   UNL     1      43.125  -7.011   8.655  1.00  0.00     0.040 C 
BRANCH  26  28
HETATM   28  N   UNL     1      42.970  -8.282  10.745  1.00  0.00    -0.349 N 
HETATM   29  C   UNL     1      42.105  -8.932  11.589  1.00  0.00     0.222 C 
HETATM   30  O   UNL     1      41.087  -9.488  11.183  1.00  0.00    -0.273 OA
HETATM   31  H   UNL     1      43.872  -7.980  11.097  1.00  0.00     0.163 HD
BRANCH  29  32
HETATM   32  C   UNL     1      42.541  -8.959  13.055  1.00  0.00     0.082 C 
HETATM   33  C   UNL     1      43.322  -7.695  13.430  1.00  0.00     0.040 C 
HETATM   34  C   UNL     1      42.419  -6.469  13.535  1.00  0.00     0.168 C 
HETATM   35  O   UNL     1      41.298  -6.693  14.390  1.00  0.00    -0.391 OA
HETATM   36  C   UNL     1      40.508  -7.815  14.000  1.00  0.00     0.168 C 
HETATM   37  C   UNL     1      41.330  -9.097  13.982  1.00  0.00     0.040 C 
ENDBRANCH  29  32
ENDBRANCH  26  28
ENDBRANCH   1  26
TORSDOF 7
ENDMDL
MODEL 3
REMARK VINA RESULT:      -8.4      3.988     10.329
REMARK  7 active torsions:
REMARK  status: ('A' for Active; 'I' for Inactive)
REMARK    1  A    between atoms: C_2  and  N_3 
REMARK    2  A    between atoms: C_2  and  C_12 
REMARK       I    between atoms: N_3  and  C_4 
REMARK    3  A    between atoms: C_4  and  C_5 
REMARK    4  A    between atoms: N_17  and  C_19 
REMARK    5  A    between atoms: C_19  and  C_20 
REMARK    6  A    between atoms: C_22  and  C_23 
REMARK    7  A    between atoms: C_23  and  N_24 
ROOT
HETATM    1  C   UNL     1      40.077 -12.586   0.920  1.00  0.00     0.152 A 
HETATM    2  N   UNL     1      40.624 -11.795   1.910  1.00  0.00    -0.317 N 
HETATM    3  C   UNL     1      39.593 -11.017   2.379  1.00  0.00     0.131 A 
HETATM    4  C   UNL     1      39.653 -10.071   3.520  1.00  0.00     0.108 C 
HETATM    5  C   UNL     1      40.241 -10.751   4.747  1.00  0.00     0.243 C 
HETATM    6  N   UNL     1      41.768 -10.790   4.737  1.00  0.00    -0.065 N 
HETATM    7  H   UNL     1      42.066  -9.909   5.176  1.00  0.00     0.280 HD
HETATM    8  C   UNL     1      42.438 -10.773   3.363  1.00  0.00     0.255 C 
HETATM    9  C   UNL     1      41.974 -11.883   2.419  1.00  0.00     0.159 C 
HETATM   10  N   UNL     1      38.500 -11.313   1.718  1.00  0.00    -0.135 NA
HETATM   11  N   UNL     1      38.796 -12.293   0.818  1.00  0.00    -0.133 NA
ENDROOT
BRANCH   6  12
HETATM   12  C   UNL     1      42.313 -11.889   5.650  1.00  0.00     0.280 C 
BRANCH  12  13
HETATM   13  C   UNL     1      43.370 -11.392   6.601  1.00  0.00     0.009 A 
HETATM   14  S   UNL     1      43.042 -10.077   7.656  1.00  0.00    -0.096 SA
HETATM   15  C   UNL     1      44.629 -10.088   8.302  1.00  0.00     0.009 A 
HETATM   16  C   UNL     1      45.384 -11.102   7.746  1.00  0.00     0.017 A 
HETATM   17  C   UNL     1      44.657 -11.861   6.780  1.00  0.00     0.017 A 
BRANCH  15  18
HETATM   18  C   UNL     1      45.051  -9.063   9.318  1.00  0.00     0.280 C 
BRANCH  18  19
HETATM   19  N   UNL     1      44.491  -9.293  10.707  1.00  0.00    -0.067 N 
HETATM   20  H   UNL     1      45.283  -9.211  11.357  1.00  0.00     0.280 HD
HETATM   21  C   UNL     1      43.458  -8.262  11.104  1.00  0.00     0.235 C 
HETATM   22  C   UNL     1      43.000  -8.514  12.533  1.00  0.00     0.028 C 
HETATM   23  C   UNL     1      42.465  -9.928  12.713  1.00  0.00     0.003 C 
HETATM   24  C   UNL     1      43.491 -10.958  12.261  1.00  0.00     0.028 C 
HETATM   25  C   UNL     1      43.951 -10.705  10.833  1.00  0.00     0.235 C 
ENDBRANCH  18  19
ENDBRANCH  15  18
ENDBRANCH  12  13
ENDBRANCH   6  12
BRANCH   1  26
HETATM   26  C   UNL     1      40.784 -13.664   0.147  1.00  0.00     0.152 C 
HETATM   27  C   UNL     1      40.153 -13.860  -1.227  1.00  0.00     0.040 C 
BRANCH  26  28
HETATM   28  N   UNL     1      40.691 -14.885   0.934  1.00  0.00    -0.349 N 
HETATM   29  C   UNL     1      41.796 -15.470   1.498  1.00  0.00     0.222 C 
HETATM   30  O   UNL     1      42.938 -15.091   1.246  1.00  0.00    -0.273 OA
HETATM   31  H   UNL     1      39.771 -15.120   1.289  1.00  0.00     0.163 HD
BRANCH  29  32
HETATM   32  C   UNL     1      41.489 -16.582   2.501  1.00  0.00     0.082 C 
HETATM   33  C   UNL     1      42.763 -17.080   3.193  1.00  0.00     0.040 C 
HETATM   34  C   UNL     1      43.301 -16.072   4.204  1.00  0.00     0.168 C 
HETATM   35  O   UNL     1      42.303 -15.650   5.134  1.00  0.00    -0.391 OA
HETATM   36  C   UNL     1      41.147 -15.099   4.506  1.00  0.00     0.168 C 
HETATM   37  C   UNL     1      40.494 -16.102   3.562  1.00  0.00     0.040 C 
ENDBRANCH  29  32
ENDBRANCH  26  28
ENDBRANCH   1  26
TORSDOF 7
ENDMDL
MODEL 4
REMARK VINA RESULT:      -8.3      4.061     11.987
REMARK  7 active torsions:
REMARK  status: ('A' for Active; 'I' for Inactive)
REMARK    1  A    between atoms: C_2  and  N_3 
REMARK    2  A    between atoms: C_2  and  C_12 
REMARK       I    between atoms: N_3  and  C_4 
REMARK    3  A    between atoms: C_4  and  C_5 
REMARK    4  A    between atoms: N_17  and  C_19 
REMARK    5  A    between atoms: C_19  and  C_20 
REMARK    6  A    between atoms: C_22  and  C_23 
REMARK    7  A    between atoms: C_23  and  N_24 
ROOT
HETATM    1  C   UNL     1      43.092 -10.856   7.065  1.00  0.00     0.152 A 
HETATM    2  N   UNL     1      43.210  -9.910   8.063  1.00  0.00    -0.317 N 
HETATM    3  C   UNL     1      42.292  -8.933   7.762  1.00  0.00     0.131 A 
HETATM    4  C   UNL     1      41.965  -7.747   8.590  1.00  0.00     0.108 C 
HETATM    5  C   UNL     1      41.662  -8.163  10.021  1.00  0.00     0.243 C 
HETATM    6  N   UNL     1      42.919  -8.369  10.864  1.00  0.00    -0.065 N 
HETATM    7  H   UNL     1      43.137  -7.445  11.260  1.00  0.00     0.280 HD
HETATM    8  C   UNL     1      44.186  -8.764  10.107  1.00  0.00     0.255 C 
HETATM    9  C   UNL     1      44.041 -10.015   9.241  1.00  0.00     0.159 C 
HETATM   10  N   UNL     1      41.665  -9.262   6.658  1.00  0.00    -0.135 NA
HETATM   11  N   UNL     1      42.155 -10.460   6.228  1.00  0.00    -0.133 NA
ENDROOT
BRANCH   6  12
HETATM   12  C   UNL     1      42.648  -9.261  12.077  1.00  0.00     0.280 C 
BRANCH  12  13
HETATM   13  C   UNL     1      42.434  -8.478  13.346  1.00  0.00     0.009 A 
HETATM   14  S   UNL     1      41.081  -8.807  14.352  1.00  0.00    -0.096 SA
HETATM   15  C   UNL     1      41.490  -7.561  15.455  1.00  0.00     0.009 A 
HETATM   16  C   UNL     1      42.661  -6.930  15.079  1.00  0.00     0.017 A 
HETATM   17  C   UNL     1      43.211  -7.467  13.876  1.00  0.00     0.017 A 
BRANCH  15  18
HETATM   18  C   UNL     1      40.606  -7.257  16.632  1.00  0.00     0.280 C 
BRANCH  18  19
HETATM   19  N   UNL     1      40.962  -8.018  17.893  1.00  0.00    -0.067 N 
HETATM   20  H   UNL     1      41.256  -8.956  17.593  1.00  0.00     0.280 HD
HETATM   21  C   UNL     1      42.113  -7.394  18.651  1.00  0.00     0.235 C 
HETATM   22  C   UNL     1      42.461  -8.252  19.859  1.00  0.00     0.028 C 
HETATM   23  C   UNL     1      41.256  -8.468  20.764  1.00  0.00     0.003 C 
HETATM   24  C   UNL     1      40.086  -9.048  19.981  1.00  0.00     0.028 C 
HETATM   25  C   UNL     1      39.739  -8.191  18.772  1.00  0.00     0.235 C 
ENDBRANCH  18  19
ENDBRANCH  15  18
ENDBRANCH  12  13
ENDBRANCH   6  12
BRANCH   1  26
HETATM   26  C   UNL     1      43.833 -12.161   6.983  1.00  0.00     0.152 C 
HETATM   27  C   UNL     1      45.262 -11.954   6.493  1.00  0.00     0.040 C 
BRANCH  26  28
HETATM   28  N   UNL     1      43.095 -13.014   6.063  1.00  0.00    -0.349 N 
HETATM   29  C   UNL     1      42.817 -14.326   6.355  1.00  0.00     0.222 C 
HETATM   30  O   UNL     1      43.303 -14.897   7.329  1.00  0.00    -0.273 OA
HETATM   31  H   UNL     1      42.551 -12.540   5.350  1.00  0.00     0.163 HD
BRANCH  29  32
HETATM   32  C   UNL     1      41.814 -14.993   5.412  1.00  0.00     0.082 C 
HETATM   33  C   UNL     1      41.807 -14.321   4.035  1.00  0.00     0.040 C 
HETATM   34  C   UNL     1      43.059 -14.650   3.227  1.00  0.00     0.168 C 
HETATM   35  O   UNL     1      43.300 -16.055   3.148  1.00  0.00    -0.391 OA
HETATM   36  C   UNL     1      43.399 -16.681   4.426  1.00  0.00     0.168 C 
HETATM   37  C   UNL     1      42.130 -16.483   5.245  1.00  0.00     0.040 C 
ENDBRANCH  29  32
ENDBRANCH  26  28
ENDBRANCH   1  26
TORSDOF 7
ENDMDL
MODEL 5
REMARK VINA RESULT:      -8.2      5.890      9.164
REMARK  7 active torsions:
REMARK  status: ('A' for Active; 'I' for Inactive)
REMARK    1  A    between atoms: C_2  and  N_3 
REMARK    2  A    between atoms: C_2  and  C_12 
REMARK       I    between atoms: N_3  and  C_4 
REMARK    3  A    between atoms: C_4  and  C_5 
REMARK    4  A    between atoms: N_17  and  C_19 
REMARK    5  A    between atoms: C_19  and  C_20 
REMARK    6  A    between atoms: C_22  and  C_23 
REMARK    7  A    between atoms: C_23  and  N_24 
ROOT
HETATM    1  C   UNL     1      39.990  -9.418   2.144  1.00  0.00     0.152 A 
HETATM    2  N   UNL     1      40.278 -10.080   3.321  1.00  0.00    -0.317 N 
HETATM    3  C   UNL     1      39.459  -9.524   4.273  1.00  0.00     0.131 A 
HETATM    4  C   UNL     1      39.323  -9.965   5.683  1.00  0.00     0.108 C 
HETATM    5  C   UNL     1      39.068 -11.463   5.751  1.00  0.00     0.243 C 
HETATM    6  N   UNL     1      40.345 -12.294   5.645  1.00  0.00    -0.065 N 
HETATM    7  H   UNL     1      40.691 -12.386   6.609  1.00  0.00     0.280 HD
HETATM    8  C   UNL     1      41.508 -11.656   4.885  1.00  0.00     0.255 C 
HETATM    9  C   UNL     1      41.167 -11.211   3.463  1.00  0.00     0.159 C 
HETATM   10  N   UNL     1      38.729  -8.589   3.715  1.00  0.00    -0.135 NA
HETATM   11  N   UNL     1      39.051  -8.527   2.392  1.00  0.00    -0.133 NA
ENDROOT
BRANCH   6  12
HETATM   12  C   UNL     1      40.054 -13.726   5.193  1.00  0.00     0.280 C 
BRANCH  12  13
HETATM   13  C   UNL     1      41.168 -14.684   5.524  1.00  0.00     0.009 A 
HETATM   14  S   UNL     1      42.214 -15.261   4.290  1.00  0.00    -0.096 SA
HETATM   15  C   UNL     1      43.084 -16.261   5.377  1.00  0.00     0.009 A 
HETATM   16  C   UNL     1      42.606 -16.127   6.666  1.00  0.00     0.017 A 
HETATM   17  C   UNL     1      41.515 -15.210   6.754  1.00  0.00     0.017 A 
BRANCH  15  18
HETATM   18  C   UNL     1      44.190 -17.152   4.882  1.00  0.00     0.280 C 
BRANCH  18  19
HETATM   19  N   UNL     1      43.717 -18.467   4.298  1.00  0.00    -0.067 N 
HETATM   20  H   UNL     1      42.708 -18.524   4.488  1.00  0.00     0.280 HD
HETATM   21  C   UNL     1      43.910 -18.550   2.800  1.00  0.00     0.235 C 
HETATM   22  C   UNL     1      43.344 -19.863   2.277  1.00  0.00     0.028 C 
HETATM   23  C   UNL     1      43.964 -21.063   2.981  1.00  0.00     0.003 C 
HETATM   24  C   UNL     1      43.810 -20.945   4.491  1.00  0.00     0.028 C 
HETATM   25  C   UNL     1      44.374 -19.632   5.013  1.00  0.00     0.235 C 
ENDBRANCH  18  19
ENDBRANCH  15  18
ENDBRANCH  12  13
ENDBRANCH   6  12
BRANCH   1  26
HETATM   26  C   UNL     1      40.571  -9.712   0.790  1.00  0.00     0.152 C 
HETATM   27  C   UNL     1      40.654  -8.449  -0.060  1.00  0.00     0.040 C 
BRANCH  26  28
HETATM   28  N   UNL     1      39.708 -10.699   0.159  1.00  0.00    -0.349 N 
HETATM   29  C   UNL     1      40.141 -11.971  -0.116  1.00  0.00     0.222 C 
HETATM   30  O   UNL     1      41.318 -12.303   0.008  1.00  0.00    -0.273 OA
HETATM   31  H   UNL     1      38.711 -10.513   0.198  1.00  0.00     0.163 HD
BRANCH  29  32
HETATM   32  C   UNL     1      39.039 -12.948  -0.528  1.00  0.00     0.082 C 
HETATM   33  C   UNL     1      38.080 -12.315  -1.542  1.00  0.00     0.040 C 
HETATM   34  C   UNL     1      38.714 -12.169  -2.923  1.00  0.00     0.168 C 
HETATM   35  O   UNL     1      39.276 -13.394  -3.393  1.00  0.00    -0.391 OA
HETATM   36  C   UNL     1      40.240 -13.951  -2.500  1.00  0.00     0.168 C 
HETATM   37  C   UNL     1      39.636 -14.224  -1.128  1.00  0.00     0.040 C 
ENDBRANCH  29  32
ENDBRANCH  26  28
ENDBRANCH   1  26
TORSDOF 7
ENDMDL
MODEL 6
REMARK VINA RESULT:      -8.2      3.670     11.698
REMARK  7 active torsions:
REMARK  status: ('A' for Active; 'I' for Inactive)
REMARK    1  A    between atoms: C_2  and  N_3 
REMARK    2  A    between atoms: C_2  and  C_12 
REMARK       I    between atoms: N_3  and  C_4 
REMARK    3  A    between atoms: C_4  and  C_5 
REMARK    4  A    between atoms: N_17  and  C_19 
REMARK    5  A    between atoms: C_19  and  C_20 
REMARK    6  A    between atoms: C_22  and  C_23 
REMARK    7  A    between atoms: C_23  and  N_24 
ROOT
HETATM    1  C   UNL     1      41.981 -11.545   5.579  1.00  0.00     0.152 A 
HETATM    2  N   UNL     1      42.059 -10.555   6.538  1.00  0.00    -0.317 N 
HETATM    3  C   UNL     1      40.782 -10.069   6.679  1.00  0.00     0.131 A 
HETATM    4  C   UNL     1      40.329  -9.058   7.665  1.00  0.00     0.108 C 
HETATM    5  C   UNL     1      40.777  -9.442   9.068  1.00  0.00     0.243 C 
HETATM    6  N   UNL     1      42.221  -9.044   9.366  1.00  0.00    -0.065 N 
HETATM    7  H   UNL     1      42.170  -8.083   9.728  1.00  0.00     0.280 HD
HETATM    8  C   UNL     1      43.159  -8.945   8.164  1.00  0.00     0.255 C 
HETATM    9  C   UNL     1      43.231 -10.212   7.311  1.00  0.00     0.159 C 
HETATM   10  N   UNL     1      39.986 -10.717   5.863  1.00  0.00    -0.135 NA
HETATM   11  N   UNL     1      40.727 -11.639   5.184  1.00  0.00    -0.133 NA
ENDROOT
BRANCH   6  12
HETATM   12  C   UNL     1      42.810  -9.865  10.513  1.00  0.00     0.280 C 
BRANCH  12  13
HETATM   13  C   UNL     1      42.722  -9.164  11.844  1.00  0.00     0.009 A 
HETATM   14  S   UNL     1      41.505  -9.597  12.976  1.00  0.00    -0.096 SA
HETATM   15  C   UNL     1      42.004  -8.401  14.098  1.00  0.00     0.009 A 
HETATM   16  C   UNL     1      43.103  -7.709  13.629  1.00  0.00     0.017 A 
HETATM   17  C   UNL     1      43.526  -8.156  12.341  1.00  0.00     0.017 A 
BRANCH  15  18
HETATM   18  C   UNL     1      41.253  -8.196  15.385  1.00  0.00     0.280 C 
BRANCH  18  19
HETATM   19  N   UNL     1      40.548  -6.859  15.490  1.00  0.00    -0.067 N 
HETATM   20  H   UNL     1      41.268  -6.139  15.343  1.00  0.00     0.280 HD
HETATM   21  C   UNL     1      39.483  -6.671  14.433  1.00  0.00     0.235 C 
HETATM   22  C   UNL     1      38.875  -5.281  14.555  1.00  0.00     0.028 C 
HETATM   23  C   UNL     1      38.319  -5.029  15.950  1.00  0.00     0.003 C 
HETATM   24  C   UNL     1      39.385  -5.272  17.010  1.00  0.00     0.028 C 
HETATM   25  C   UNL     1      39.995  -6.660  16.888  1.00  0.00     0.235 C 
ENDBRANCH  18  19
ENDBRANCH  15  18
ENDBRANCH  12  13
ENDBRANCH   6  12
BRANCH   1  26
HETATM   26  C   UNL     1      43.103 -12.433   5.120  1.00  0.00     0.152 C 
HETATM   27  C   UNL     1      43.693 -11.939   3.803  1.00  0.00     0.040 C 
BRANCH  26  28
HETATM   28  N   UNL     1      42.553 -13.771   4.965  1.00  0.00    -0.349 N 
HETATM   29  C   UNL     1      42.993 -14.828   5.722  1.00  0.00     0.222 C 
HETATM   30  O   UNL     1      43.974 -14.743   6.458  1.00  0.00    -0.273 OA
HETATM   31  H   UNL     1      41.653 -13.836   4.501  1.00  0.00     0.163 HD
BRANCH  29  32
HETATM   32  C   UNL     1      42.133 -16.089   5.621  1.00  0.00     0.082 C 
HETATM   33  C   UNL     1      41.662 -16.333   4.184  1.00  0.00     0.040 C 
HETATM   34  C   UNL     1      42.794 -16.816   3.281  1.00  0.00     0.168 C 
HETATM   35  O   UNL     1      43.483 -17.940   3.829  1.00  0.00    -0.391 OA
HETATM   36  C   UNL     1      44.006 -17.698   5.134  1.00  0.00     0.168 C 
HETATM   37  C   UNL     1      42.905 -17.317   6.115  1.00  0.00     0.040 C 
ENDBRANCH  29  32
ENDBRANCH  26  28
ENDBRANCH   1  26
TORSDOF 7
ENDMDL
MODEL 7
REMARK VINA RESULT:      -8.0      3.864     11.152
REMARK  7 active torsions:
REMARK  status: ('A' for Active; 'I' for Inactive)
REMARK    1  A    between atoms: C_2  and  N_3 
REMARK    2  A    between atoms: C_2  and  C_12 
REMARK       I    between atoms: N_3  and  C_4 
REMARK    3  A    between atoms: C_4  and  C_5 
REMARK    4  A    between atoms: N_17  and  C_19 
REMARK    5  A    between atoms: C_19  and  C_20 
REMARK    6  A    between atoms: C_22  and  C_23 
REMARK    7  A    between atoms: C_23  and  N_24 
ROOT
HETATM    1  C   UNL     1      40.722 -13.901   4.791  1.00  0.00     0.152 A 
HETATM    2  N   UNL     1      41.773 -13.028   4.990  1.00  0.00    -0.317 N 
HETATM    3  C   UNL     1      41.358 -11.821   4.482  1.00  0.00     0.131 A 
HETATM    4  C   UNL     1      42.097 -10.537   4.549  1.00  0.00     0.108 C 
HETATM    5  C   UNL     1      42.538 -10.249   5.976  1.00  0.00     0.243 C 
HETATM    6  N   UNL     1      43.824 -10.976   6.364  1.00  0.00    -0.065 N 
HETATM    7  H   UNL     1      44.589 -10.348   6.082  1.00  0.00     0.280 HD
HETATM    8  C   UNL     1      44.115 -12.282   5.624  1.00  0.00     0.255 C 
HETATM    9  C   UNL     1      42.994 -13.318   5.706  1.00  0.00     0.159 C 
HETATM   10  N   UNL     1      40.143 -11.953   4.007  1.00  0.00    -0.135 NA
HETATM   11  N   UNL     1      39.743 -13.241   4.205  1.00  0.00    -0.133 NA
ENDROOT
BRANCH   6  12
HETATM   12  C   UNL     1      43.965 -11.109   7.881  1.00  0.00     0.280 C 
BRANCH  12  13
HETATM   13  C   UNL     1      43.823  -9.795   8.602  1.00  0.00     0.009 A 
HETATM   14  S   UNL     1      42.640  -9.601   9.831  1.00  0.00    -0.096 SA
HETATM   15  C   UNL     1      43.046  -7.955  10.082  1.00  0.00     0.009 A 
HETATM   16  C   UNL     1      44.093  -7.572   9.265  1.00  0.00     0.017 A 
HETATM   17  C   UNL     1      44.549  -8.632   8.426  1.00  0.00     0.017 A 
BRANCH  15  18
HETATM   18  C   UNL     1      42.281  -7.117  11.069  1.00  0.00     0.280 C 
BRANCH  18  19
HETATM   19  N   UNL     1      42.382  -7.594  12.503  1.00  0.00    -0.067 N 
HETATM   20  H   UNL     1      43.181  -8.240  12.539  1.00  0.00     0.280 HD
HETATM   21  C   UNL     1      42.652  -6.470  13.479  1.00  0.00     0.235 C 
HETATM   22  C   UNL     1      42.816  -7.034  14.883  1.00  0.00     0.028 C 
HETATM   23  C   UNL     1      41.604  -7.853  15.307  1.00  0.00     0.003 C 
HETATM   24  C   UNL     1      41.309  -8.949  14.291  1.00  0.00     0.028 C 
HETATM   25  C   UNL     1      41.147  -8.385  12.887  1.00  0.00     0.235 C 
ENDBRANCH  18  19
ENDBRANCH  15  18
ENDBRANCH  12  13
ENDBRANCH   6  12
BRANCH   1  26
HETATM   26  C   UNL     1      40.655 -15.333   5.241  1.00  0.00     0.152 C 
HETATM   27  C   UNL     1      40.382 -15.428   6.738  1.00  0.00     0.040 C 
BRANCH  26  28
HETATM   28  N   UNL     1      41.935 -15.944   4.913  1.00  0.00    -0.349 N 
HETATM   29  C   UNL     1      42.164 -16.541   3.699  1.00  0.00     0.222 C 
HETATM   30  O   UNL     1      41.264 -16.731   2.883  1.00  0.00    -0.273 OA
HETATM   31  H   UNL     1      42.726 -15.663   5.483  1.00  0.00     0.163 HD
BRANCH  29  32
HETATM   32  C   UNL     1      43.627 -16.890   3.423  1.00  0.00     0.082 C 
HETATM   33  C   UNL     1      44.316 -17.445   4.674  1.00  0.00     0.040 C 
HETATM   34  C   UNL     1      43.854 -18.861   5.007  1.00  0.00     0.168 C 
HETATM   35  O   UNL     1      43.959 -19.743   3.888  1.00  0.00    -0.391 OA
HETATM   36  C   UNL     1      43.247 -19.283   2.741  1.00  0.00     0.168 C 
HETATM   37  C   UNL     1      43.740 -17.914   2.289  1.00  0.00     0.040 C 
ENDBRANCH  29  32
ENDBRANCH  26  28
ENDBRANCH   1  26
TORSDOF 7
ENDMDL
MODEL 8
REMARK VINA RESULT:      -7.9      3.883     10.756
REMARK  7 active torsions:
REMARK  status: ('A' for Active; 'I' for Inactive)
REMARK    1  A    between atoms: C_2  and  N_3 
REMARK    2  A    between atoms: C_2  and  C_12 
REMARK       I    between atoms: N_3  and  C_4 
REMARK    3  A    between atoms: C_4  and  C_5 
REMARK    4  A    between atoms: N_17  and  C_19 
REMARK    5  A    between atoms: C_19  and  C_20 
REMARK    6  A    between atoms: C_22  and  C_23 
REMARK    7  A    between atoms: C_23  and  N_24 
ROOT
HETATM    1  C   UNL     1      43.630 -11.352   5.218  1.00  0.00     0.152 A 
HETATM    2  N   UNL     1      44.082 -11.088   6.495  1.00  0.00    -0.317 N 
HETATM    3  C   UNL     1      45.447 -10.971   6.392  1.00  0.00     0.131 A 
HETATM    4  C   UNL     1      46.382 -10.590   7.478  1.00  0.00     0.108 C 
HETATM    5  C   UNL     1      45.915  -9.313   8.161  1.00  0.00     0.243 C 
HETATM    6  N   UNL     1      44.836  -9.558   9.215  1.00  0.00    -0.065 N 
HETATM    7  H   UNL     1      45.346  -9.748  10.088  1.00  0.00     0.280 HD
HETATM    8  C   UNL     1      43.959 -10.793   9.013  1.00  0.00     0.255 C 
HETATM    9  C   UNL     1      43.255 -10.855   7.657  1.00  0.00     0.159 C 
HETATM   10  N   UNL     1      45.798 -11.154   5.142  1.00  0.00    -0.135 NA
HETATM   11  N   UNL     1      44.671 -11.384   4.410  1.00  0.00    -0.133 NA
ENDROOT
BRANCH   6  12
HETATM   12  C   UNL     1      44.026  -8.293   9.501  1.00  0.00     0.280 C 
BRANCH  12  13
HETATM   13  C   UNL     1      43.190  -8.400  10.750  1.00  0.00     0.009 A 
HETATM   14  S   UNL     1      41.476  -8.365  10.654  1.00  0.00    -0.096 SA
HETATM   15  C   UNL     1      41.294  -8.466  12.356  1.00  0.00     0.009 A 
HETATM   16  C   UNL     1      42.522  -8.560  12.981  1.00  0.00     0.017 A 
HETATM   17  C   UNL     1      43.611  -8.538  12.058  1.00  0.00     0.017 A 
BRANCH  15  18
HETATM   18  C   UNL     1      39.929  -8.419  12.985  1.00  0.00     0.280 C 
BRANCH  18  19
HETATM   19  N   UNL     1      39.343  -7.027  13.101  1.00  0.00    -0.067 N 
HETATM   20  H   UNL     1      39.728  -6.483  12.319  1.00  0.00     0.280 HD
HETATM   21  C   UNL     1      37.836  -7.011  12.977  1.00  0.00     0.235 C 
HETATM   22  C   UNL     1      37.328  -5.577  13.026  1.00  0.00     0.028 C 
HETATM   23  C   UNL     1      37.785  -4.860  14.290  1.00  0.00     0.003 C 
HETATM   24  C   UNL     1      39.300  -4.927  14.434  1.00  0.00     0.028 C 
HETATM   25  C   UNL     1      39.807  -6.360  14.382  1.00  0.00     0.235 C 
ENDBRANCH  18  19
ENDBRANCH  15  18
ENDBRANCH  12  13
ENDBRANCH   6  12
BRANCH   1  26
HETATM   26  C   UNL     1      42.196 -11.492   4.791  1.00  0.00     0.152 C 
HETATM   27  C   UNL     1      41.356 -10.320   5.287  1.00  0.00     0.040 C 
BRANCH  26  28
HETATM   28  N   UNL     1      41.705 -12.746   5.344  1.00  0.00    -0.349 N 
HETATM   29  C   UNL     1      41.747 -13.919   4.634  1.00  0.00     0.222 C 
HETATM   30  O   UNL     1      42.054 -13.952   3.444  1.00  0.00    -0.273 OA
HETATM   31  H   UNL     1      41.606 -12.782   6.354  1.00  0.00     0.163 HD
BRANCH  29  32
HETATM   32  C   UNL     1      41.443 -15.174   5.453  1.00  0.00     0.082 C 
HETATM   33  C   UNL     1      41.921 -16.441   4.735  1.00  0.00     0.040 C 
HETATM   34  C   UNL     1      43.441 -16.578   4.756  1.00  0.00     0.168 C 
HETATM   35  O   UNL     1      43.977 -16.461   6.074  1.00  0.00    -0.391 OA
HETATM   36  C   UNL     1      43.615 -15.244   6.724  1.00  0.00     0.168 C 
HETATM   37  C   UNL     1      42.102 -15.098   6.834  1.00  0.00     0.040 C 
ENDBRANCH  29  32
ENDBRANCH  26  28
ENDBRANCH   1  26
TORSDOF 7
ENDMDL
MODEL 9
REMARK VINA RESULT:      -7.9      2.601      4.465
REMARK  7 active torsions:
REMARK  status: ('A' for Active; 'I' for Inactive)
REMARK    1  A    between atoms: C_2  and  N_3 
REMARK    2  A    between atoms: C_2  and  C_12 
REMARK       I    between atoms: N_3  and  C_4 
REMARK    3  A    between atoms: C_4  and  C_5 
REMARK    4  A    between atoms: N_17  and  C_19 
REMARK    5  A    between atoms: C_19  and  C_20 
REMARK    6  A    between atoms: C_22  and  C_23 
REMARK    7  A    between atoms: C_23  and  N_24 
ROOT
HETATM    1  C   UNL     1      42.819  -6.903  10.821  1.00  0.00     0.152 A 
HETATM    2  N   UNL     1      43.561  -7.850  10.143  1.00  0.00    -0.317 N 
HETATM    3  C   UNL     1      43.750  -8.882  11.029  1.00  0.00     0.131 A 
HETATM    4  C   UNL     1      44.405 -10.181  10.741  1.00  0.00     0.108 C 
HETATM    5  C   UNL     1      43.802 -10.818   9.498  1.00  0.00     0.243 C 
HETATM    6  N   UNL     1      44.387 -10.267   8.199  1.00  0.00    -0.065 N 
HETATM    7  H   UNL     1      45.213 -10.849   8.003  1.00  0.00     0.280 HD
HETATM    8  C   UNL     1      44.934  -8.841   8.252  1.00  0.00     0.255 C 
HETATM    9  C   UNL     1      43.933  -7.798   8.747  1.00  0.00     0.159 C 
HETATM   10  N   UNL     1      43.168  -8.581  12.165  1.00  0.00    -0.135 NA
HETATM   11  N   UNL     1      42.583  -7.357  12.036  1.00  0.00    -0.133 NA
ENDROOT
BRANCH   6  12
HETATM   12  C   UNL     1      43.452 -10.501   7.012  1.00  0.00     0.280 C 
BRANCH  12  13
HETATM   13  C   UNL     1      43.327 -11.956   6.639  1.00  0.00     0.009 A 
HETATM   14  S   UNL     1      41.863 -12.560   5.974  1.00  0.00    -0.096 SA
HETATM   15  C   UNL     1      42.461 -14.164   5.895  1.00  0.00     0.009 A 
HETATM   16  C   UNL     1      43.769 -14.228   6.336  1.00  0.00     0.017 A 
HETATM   17  C   UNL     1      44.272 -12.958   6.750  1.00  0.00     0.017 A 
BRANCH  15  18
HETATM   18  C   UNL     1      41.583 -15.288   5.418  1.00  0.00     0.280 C 
BRANCH  18  19
HETATM   19  N   UNL     1      41.833 -15.708   3.984  1.00  0.00    -0.067 N 
HETATM   20  H   UNL     1      40.973 -16.173   3.664  1.00  0.00     0.280 HD
HETATM   21  C   UNL     1      42.095 -14.537   3.064  1.00  0.00     0.235 C 
HETATM   22  C   UNL     1      42.260 -15.031   1.633  1.00  0.00     0.028 C 
HETATM   23  C   UNL     1      43.360 -16.078   1.521  1.00  0.00     0.003 C 
HETATM   24  C   UNL     1      43.114 -17.228   2.489  1.00  0.00     0.028 C 
HETATM   25  C   UNL     1      42.947 -16.735   3.918  1.00  0.00     0.235 C 
ENDBRANCH  18  19
ENDBRANCH  15  18
ENDBRANCH  12  13
ENDBRANCH   6  12
BRANCH   1  26
HETATM   26  C   UNL     1      42.289  -5.615  10.258  1.00  0.00     0.152 C 
HETATM   27  C   UNL     1      42.464  -4.468  11.247  1.00  0.00     0.040 C 
BRANCH  26  28
HETATM   28  N   UNL     1      40.880  -5.826   9.962  1.00  0.00    -0.349 N 
HETATM   29  C   UNL     1      40.431  -6.039   8.683  1.00  0.00     0.222 C 
HETATM   30  O   UNL     1      41.162  -5.911   7.703  1.00  0.00    -0.273 OA
HETATM   31  H   UNL     1      40.293  -6.098  10.744  1.00  0.00     0.163 HD
BRANCH  29  32
HETATM   32  C   UNL     1      38.977  -6.504   8.583  1.00  0.00     0.082 C 
HETATM   33  C   UNL     1      38.681  -7.129   7.216  1.00  0.00     0.040 C 
HETATM   34  C   UNL     1      39.319  -8.506   7.061  1.00  0.00     0.168 C 
HETATM   35  O   UNL     1      38.995  -9.379   8.143  1.00  0.00    -0.391 OA
HETATM   36  C   UNL     1      39.348  -8.849   9.419  1.00  0.00     0.168 C 
HETATM   37  C   UNL     1      38.652  -7.520   9.683  1.00  0.00     0.040 C 
ENDBRANCH  29  32
ENDBRANCH  26  28
ENDBRANCH   1  26
TORSDOF 7
ENDMDL
MODEL 10
REMARK VINA RESULT:      -7.9      5.012     11.987
REMARK  7 active torsions:
REMARK  status: ('A' for Active; 'I' for Inactive)
REMARK    1  A    between atoms: C_2  and  N_3 
REMARK    2  A    between atoms: C_2  and  C_12 
REMARK       I    between atoms: N_3  and  C_4 
REMARK    3  A    between atoms: C_4  and  C_5 
REMARK    4  A    between atoms: N_17  and  C_19 
REMARK    5  A    between atoms: C_19  and  C_20 
REMARK    6  A    between atoms: C_22  and  C_23 
REMARK    7  A    between atoms: C_23  and  N_24 
ROOT
HETATM    1  C   UNL     1      41.296 -14.029   2.324  1.00  0.00     0.152 A 
HETATM    2  N   UNL     1      41.493 -13.594   3.619  1.00  0.00    -0.317 N 
HETATM    3  C   UNL     1      42.814 -13.222   3.691  1.00  0.00     0.131 A 
HETATM    4  C   UNL     1      43.488 -12.592   4.852  1.00  0.00     0.108 C 
HETATM    5  C   UNL     1      42.698 -11.386   5.339  1.00  0.00     0.243 C 
HETATM    6  N   UNL     1      41.535 -11.763   6.255  1.00  0.00    -0.065 N 
HETATM    7  H   UNL     1      41.933 -11.789   7.204  1.00  0.00     0.280 HD
HETATM    8  C   UNL     1      40.939 -13.156   6.057  1.00  0.00     0.255 C 
HETATM    9  C   UNL     1      40.472 -13.447   4.631  1.00  0.00     0.159 C 
HETATM   10  N   UNL     1      43.377 -13.419   2.524  1.00  0.00    -0.135 NA
HETATM   11  N   UNL     1      42.435 -13.913   1.671  1.00  0.00    -0.133 NA
ENDROOT
BRANCH   6  12
HETATM   12  C   UNL     1      40.474 -10.663   6.305  1.00  0.00     0.280 C 
BRANCH  12  13
HETATM   13  C   UNL     1      40.804  -9.571   7.288  1.00  0.00     0.009 A 
HETATM   14  S   UNL     1      39.879  -9.384   8.724  1.00  0.00    -0.096 SA
HETATM   15  C   UNL     1      40.772  -8.009   9.222  1.00  0.00     0.009 A 
HETATM   16  C   UNL     1      41.782  -7.721   8.324  1.00  0.00     0.017 A 
HETATM   17  C   UNL     1      41.811  -8.627   7.221  1.00  0.00     0.017 A 
BRANCH  15  18
HETATM   18  C   UNL     1      40.403  -7.268  10.477  1.00  0.00     0.280 C 
BRANCH  18  19
HETATM   19  N   UNL     1      41.555  -7.055  11.438  1.00  0.00    -0.067 N 
HETATM   20  H   UNL     1      42.300  -6.595  10.900  1.00  0.00     0.280 HD
HETATM   21  C   UNL     1      41.196  -6.151  12.596  1.00  0.00     0.235 C 
HETATM   22  C   UNL     1      42.419  -5.924  13.473  1.00  0.00     0.028 C 
HETATM   23  C   UNL     1      43.014  -7.237  13.962  1.00  0.00     0.003 C 
HETATM   24  C   UNL     1      43.323  -8.161  12.792  1.00  0.00     0.028 C 
HETATM   25  C   UNL     1      42.101  -8.387  11.914  1.00  0.00     0.235 C 
ENDBRANCH  18  19
ENDBRANCH  15  18
ENDBRANCH  12  13
ENDBRANCH   6  12
BRANCH   1  26
HETATM   26  C   UNL     1      39.993 -14.475   1.722  1.00  0.00     0.152 C 
HETATM   27  C   UNL     1      39.774 -15.970   1.926  1.00  0.00     0.040 C 
BRANCH  26  28
HETATM   28  N   UNL     1      40.046 -14.154   0.303  1.00  0.00    -0.349 N 
HETATM   29  C   UNL     1      39.493 -13.003  -0.201  1.00  0.00     0.222 C 
HETATM   30  O   UNL     1      38.792 -12.260   0.482  1.00  0.00    -0.273 OA
HETATM   31  H   UNL     1      40.743 -14.649  -0.243  1.00  0.00     0.163 HD
BRANCH  29  32
HETATM   32  C   UNL     1      39.868 -12.696  -1.652  1.00  0.00     0.082 C 
HETATM   33  C   UNL     1      40.192 -13.975  -2.430  1.00  0.00     0.040 C 
HETATM   34  C   UNL     1      38.941 -14.794  -2.739  1.00  0.00     0.168 C 
HETATM   35  O   UNL     1      37.924 -14.015  -3.368  1.00  0.00    -0.391 OA
HETATM   36  C   UNL     1      37.546 -12.866  -2.610  1.00  0.00     0.168 C 
HETATM   37  C   UNL     1      38.736 -11.947  -2.361  1.00  0.00     0.040 C 
ENDBRANCH  29  32
ENDBRANCH  26  28
ENDBRANCH   1  26
TORSDOF 7
ENDMDL
