MODEL 1
REMARK VINA RESULT:      -8.5      0.000      0.000
REMARK  6 active torsions:
REMARK  status: ('A' for Active; 'I' for Inactive)
REMARK    1  A    between atoms: C_2  and  O_3 
REMARK    2  A    between atoms: O_3  and  C_4 
REMARK    3  A    between atoms: C_8  and  C_9 
REMARK    4  A    between atoms: C_9  and  N_10 
REMARK       I    between atoms: N_10  and  C_11 
REMARK       I    between atoms: C_11  and  N_12 
REMARK    5  A    between atoms: N_12  and  C_13 
REMARK    6  A    between atoms: C_14  and  C_15 
ROOT
HETATM    1  N   UNL     1      43.232 -13.546   7.019  1.00  0.00    -0.339 N 
HETATM    2  C   UNL     1      43.135 -14.649   6.207  1.00  0.00     0.316 C 
HETATM    3  N   UNL     1      43.062 -15.812   6.938  1.00  0.00    -0.338 N 
HETATM    4  O   UNL     1      43.096 -14.597   4.984  1.00  0.00    -0.247 OA
HETATM    5  H   UNL     1      42.847 -13.647   7.946  1.00  0.00     0.164 HD
HETATM    6  H   UNL     1      43.486 -15.785   7.854  1.00  0.00     0.164 HD
ENDROOT
BRANCH   1   7
HETATM    7  C   UNL     1      43.221 -12.212   6.460  1.00  0.00     0.163 C 
BRANCH   7   8
HETATM    8  C   UNL     1      44.075 -11.260   7.255  1.00  0.00    -0.035 A 
HETATM    9  C   UNL     1      45.459 -11.204   7.066  1.00  0.00     0.028 A 
HETATM   10  C   UNL     1      46.202 -10.320   7.830  1.00  0.00     0.120 A 
HETATM   11  N   UNL     1      45.672  -9.509   8.769  1.00  0.00    -0.237 NA
HETATM   12  C   UNL     1      44.343  -9.587   8.956  1.00  0.00     0.165 A 
HETATM   13  C   UNL     1      43.511 -10.420   8.220  1.00  0.00     0.066 A 
BRANCH  12  14
HETATM   14  O   UNL     1      43.722  -8.798   9.898  1.00  0.00    -0.324 OA
BRANCH  14  15
HETATM   15  C   UNL     1      43.166  -9.408  11.078  1.00  0.00     0.058 C 
HETATM   16  C   UNL     1      43.851 -10.734  11.435  1.00  0.00     0.045 C 
HETATM   17  C   UNL     1      41.636  -9.538  11.022  1.00  0.00     0.045 C 
HETATM   18  C   UNL     1      43.500  -8.402  12.199  1.00  0.00     0.045 C 
ENDBRANCH  14  15
ENDBRANCH  12  14
ENDBRANCH   7   8
ENDBRANCH   1   7
BRANCH   3  19
HETATM   19  C   UNL     1      42.880 -17.092   6.318  1.00  0.00     0.095 A 
HETATM   20  C   UNL     1      44.038 -17.845   5.696  1.00  0.00     0.043 A 
HETATM   21  C   UNL     1      43.422 -18.317   6.992  1.00  0.00     0.037 A 
BRANCH  20  22
HETATM   22  C   UNL     1      43.826 -18.654   4.436  1.00  0.00    -0.052 A 
HETATM   23  C   UNL     1      44.005 -20.047   4.421  1.00  0.00     0.007 A 
HETATM   24  C   UNL     1      43.810 -20.794   3.256  1.00  0.00     0.001 A 
HETATM   25  C   UNL     1      43.423 -20.160   2.079  1.00  0.00     0.000 A 
HETATM   26  C   UNL     1      43.226 -18.782   2.070  1.00  0.00     0.001 A 
HETATM   27  C   UNL     1      43.422 -18.042   3.238  1.00  0.00     0.007 A 
ENDBRANCH  20  22
ENDBRANCH   3  19
TORSDOF 6
ENDMDL
MODEL 2
REMARK VINA RESULT:      -8.0      2.116      9.670
REMARK  6 active torsions:
REMARK  status: ('A' for Active; 'I' for Inactive)
REMARK    1  A    between atoms: C_2  and  O_3 
REMARK    2  A    between atoms: O_3  and  C_4 
REMARK    3  A    between atoms: C_8  and  C_9 
REMARK    4  A    between atoms: C_9  and  N_10 
REMARK       I    between atoms: N_10  and  C_11 
REMARK       I    between atoms: C_11  and  N_12 
REMARK    5  A    between atoms: N_12  and  C_13 
REMARK    6  A    between atoms: C_14  and  C_15 
ROOT
HETATM    1  N   UNL     1      43.293 -11.768   6.351  1.00  0.00    -0.339 N 
HETATM    2  C   UNL     1      43.171 -10.672   7.169  1.00  0.00     0.316 C 
HETATM    3  N   UNL     1      43.577 -10.950   8.453  1.00  0.00    -0.338 N 
HETATM    4  O   UNL     1      42.769  -9.578   6.791  1.00  0.00    -0.247 OA
HETATM    5  H   UNL     1      43.988 -12.446   6.625  1.00  0.00     0.164 HD
HETATM    6  H   UNL     1      43.506 -11.916   8.740  1.00  0.00     0.164 HD
ENDROOT
BRANCH   1   7
HETATM    7  C   UNL     1      43.015 -11.670   4.934  1.00  0.00     0.163 C 
BRANCH   7   8
HETATM    8  C   UNL     1      43.059 -13.014   4.256  1.00  0.00    -0.035 A 
HETATM    9  C   UNL     1      43.270 -13.119   2.878  1.00  0.00     0.028 A 
HETATM   10  C   UNL     1      43.291 -14.377   2.300  1.00  0.00     0.120 A 
HETATM   11  N   UNL     1      43.101 -15.523   2.987  1.00  0.00    -0.237 NA
HETATM   12  C   UNL     1      42.877 -15.407   4.307  1.00  0.00     0.165 A 
HETATM   13  C   UNL     1      42.868 -14.193   4.982  1.00  0.00     0.066 A 
BRANCH  12  14
HETATM   14  O   UNL     1      42.670 -16.526   5.082  1.00  0.00    -0.324 OA
BRANCH  14  15
HETATM   15  C   UNL     1      43.802 -17.278   5.558  1.00  0.00     0.058 C 
HETATM   16  C   UNL     1      44.863 -16.390   6.223  1.00  0.00     0.045 C 
HETATM   17  C   UNL     1      44.403 -18.200   4.484  1.00  0.00     0.045 C 
HETATM   18  C   UNL     1      43.204 -18.182   6.656  1.00  0.00     0.045 C 
ENDBRANCH  14  15
ENDBRANCH  12  14
ENDBRANCH   7   8
ENDBRANCH   1   7
BRANCH   3  19
HETATM   19  C   UNL     1      43.613  -9.946   9.475  1.00  0.00     0.095 A 
HETATM   20  C   UNL     1      43.895 -10.295  10.923  1.00  0.00     0.043 A 
HETATM   21  C   UNL     1      44.929  -9.574  10.092  1.00  0.00     0.037 A 
BRANCH  20  22
HETATM   22  C   UNL     1      43.185  -9.553  12.032  1.00  0.00    -0.052 A 
HETATM   23  C   UNL     1      42.079 -10.110  12.696  1.00  0.00     0.007 A 
HETATM   24  C   UNL     1      41.422  -9.422  13.720  1.00  0.00     0.001 A 
HETATM   25  C   UNL     1      41.864  -8.160  14.107  1.00  0.00     0.000 A 
HETATM   26  C   UNL     1      42.965  -7.591  13.474  1.00  0.00     0.001 A 
HETATM   27  C   UNL     1      43.618  -8.283  12.452  1.00  0.00     0.007 A 
ENDBRANCH  20  22
ENDBRANCH   3  19
TORSDOF 6
ENDMDL
MODEL 3
REMARK VINA RESULT:      -8.0      1.274      1.884
REMARK  6 active torsions:
REMARK  status: ('A' for Active; 'I' for Inactive)
REMARK    1  A    between atoms: C_2  and  O_3 
REMARK    2  A    between atoms: O_3  and  C_4 
REMARK    3  A    between atoms: C_8  and  C_9 
REMARK    4  A    between atoms: C_9  and  N_10 
REMARK       I    between atoms: N_10  and  C_11 
REMARK       I    between atoms: C_11  and  N_12 
REMARK    5  A    between atoms: N_12  and  C_13 
REMARK    6  A    between atoms: C_14  and  C_15 
ROOT
HETATM    1  N   UNL     1      43.943 -12.520   7.097  1.00  0.00    -0.339 N 
HETATM    2  C   UNL     1      43.286 -13.528   6.435  1.00  0.00     0.316 C 
HETATM    3  N   UNL     1      43.919 -14.739   6.601  1.00  0.00    -0.338 N 
HETATM    4  O   UNL     1      42.254 -13.368   5.796  1.00  0.00    -0.247 OA
HETATM    5  H   UNL     1      44.495 -12.803   7.892  1.00  0.00     0.164 HD
HETATM    6  H   UNL     1      44.911 -14.698   6.786  1.00  0.00     0.164 HD
ENDROOT
BRANCH   1   7
HETATM    7  C   UNL     1      43.394 -11.182   7.139  1.00  0.00     0.163 C 
BRANCH   7   8
HETATM    8  C   UNL     1      43.844 -10.426   8.361  1.00  0.00    -0.035 A 
HETATM    9  C   UNL     1      45.172 -10.479   8.793  1.00  0.00     0.028 A 
HETATM   10  C   UNL     1      45.535  -9.776   9.929  1.00  0.00     0.120 A 
HETATM   11  N   UNL     1      44.673  -9.045  10.667  1.00  0.00    -0.237 NA
HETATM   12  C   UNL     1      43.394  -9.018  10.254  1.00  0.00     0.165 A 
HETATM   13  C   UNL     1      42.941  -9.666   9.112  1.00  0.00     0.066 A 
BRANCH  12  14
HETATM   14  O   UNL     1      42.449  -8.300  10.951  1.00  0.00    -0.324 OA
BRANCH  14  15
HETATM   15  C   UNL     1      42.184  -8.627  12.328  1.00  0.00     0.058 C 
HETATM   16  C   UNL     1      43.067  -7.834  13.302  1.00  0.00     0.045 C 
HETATM   17  C   UNL     1      42.222 -10.138  12.604  1.00  0.00     0.045 C 
HETATM   18  C   UNL     1      40.730  -8.158  12.540  1.00  0.00     0.045 C 
ENDBRANCH  14  15
ENDBRANCH  12  14
ENDBRANCH   7   8
ENDBRANCH   1   7
BRANCH   3  19
HETATM   19  C   UNL     1      43.384 -15.957   6.067  1.00  0.00     0.095 A 
HETATM   20  C   UNL     1      44.284 -17.088   5.612  1.00  0.00     0.043 A 
HETATM   21  C   UNL     1      43.471 -17.215   6.879  1.00  0.00     0.037 A 
BRANCH  20  22
HETATM   22  C   UNL     1      43.908 -17.916   4.404  1.00  0.00    -0.052 A 
HETATM   23  C   UNL     1      43.267 -17.342   3.294  1.00  0.00     0.007 A 
HETATM   24  C   UNL     1      42.918 -18.107   2.178  1.00  0.00     0.001 A 
HETATM   25  C   UNL     1      43.212 -19.467   2.147  1.00  0.00     0.000 A 
HETATM   26  C   UNL     1      43.858 -20.059   3.228  1.00  0.00     0.001 A 
HETATM   27  C   UNL     1      44.205 -19.288   4.340  1.00  0.00     0.007 A 
ENDBRANCH  20  22
ENDBRANCH   3  19
TORSDOF 6
ENDMDL
MODEL 4
REMARK VINA RESULT:      -7.9      2.037      3.440
REMARK  6 active torsions:
REMARK  status: ('A' for Active; 'I' for Inactive)
REMARK    1  A    between atoms: C_2  and  O_3 
REMARK    2  A    between atoms: O_3  and  C_4 
REMARK    3  A    between atoms: C_8  and  C_9 
REMARK    4  A    between atoms: C_9  and  N_10 
REMARK       I    between atoms: N_10  and  C_11 
REMARK       I    between atoms: C_11  and  N_12 
REMARK    5  A    between atoms: N_12  and  C_13 
REMARK    6  A    between atoms: C_14  and  C_15 
ROOT
HETATM    1  N   UNL     1      43.854 -11.609   8.378  1.00  0.00    -0.339 N 
HETATM    2  C   UNL     1      44.073 -12.221   7.169  1.00  0.00     0.316 C 
HETATM    3  N   UNL     1      43.179 -13.243   6.949  1.00  0.00    -0.338 N 
HETATM    4  O   UNL     1      44.946 -11.882   6.379  1.00  0.00    -0.247 OA
HETATM    5  H   UNL     1      42.913 -11.668   8.737  1.00  0.00     0.164 HD
HETATM    6  H   UNL     1      42.794 -13.680   7.774  1.00  0.00     0.164 HD
ENDROOT
BRANCH   1   7
HETATM    7  C   UNL     1      44.618 -10.444   8.768  1.00  0.00     0.163 C 
BRANCH   7   8
HETATM    8  C   UNL     1      43.782  -9.450   9.530  1.00  0.00    -0.035 A 
HETATM    9  C   UNL     1      43.818  -8.088   9.219  1.00  0.00     0.028 A 
HETATM   10  C   UNL     1      43.039  -7.213   9.957  1.00  0.00     0.120 A 
HETATM   11  N   UNL     1      42.249  -7.593  10.982  1.00  0.00    -0.237 NA
HETATM   12  C   UNL     1      42.239  -8.902  11.286  1.00  0.00     0.165 A 
HETATM   13  C   UNL     1      42.961  -9.859  10.586  1.00  0.00     0.066 A 
BRANCH  12  14
HETATM   14  O   UNL     1      41.463  -9.374  12.321  1.00  0.00    -0.324 OA
BRANCH  14  15
HETATM   15  C   UNL     1      40.032  -9.438  12.162  1.00  0.00     0.058 C 
HETATM   16  C   UNL     1      39.613  -9.732  10.715  1.00  0.00     0.045 C 
HETATM   17  C   UNL     1      39.309  -8.211  12.741  1.00  0.00     0.045 C 
HETATM   18  C   UNL     1      39.626 -10.656  13.016  1.00  0.00     0.045 C 
ENDBRANCH  14  15
ENDBRANCH  12  14
ENDBRANCH   7   8
ENDBRANCH   1   7
BRANCH   3  19
HETATM   19  C   UNL     1      43.157 -13.985   5.722  1.00  0.00     0.095 A 
HETATM   20  C   UNL     1      42.400 -15.292   5.598  1.00  0.00     0.043 A 
HETATM   21  C   UNL     1      41.891 -14.042   4.921  1.00  0.00     0.037 A 
BRANCH  20  22
HETATM   22  C   UNL     1      42.962 -16.415   4.756  1.00  0.00    -0.052 A 
HETATM   23  C   UNL     1      42.631 -16.548   3.397  1.00  0.00     0.007 A 
HETATM   24  C   UNL     1      43.149 -17.587   2.619  1.00  0.00     0.001 A 
HETATM   25  C   UNL     1      44.019 -18.514   3.186  1.00  0.00     0.000 A 
HETATM   26  C   UNL     1      44.373 -18.398   4.527  1.00  0.00     0.001 A 
HETATM   27  C   UNL     1      43.853 -17.357   5.299  1.00  0.00     0.007 A 
ENDBRANCH  20  22
ENDBRANCH   3  19
TORSDOF 6
ENDMDL
MODEL 5
REMARK VINA RESULT:      -7.9      2.309      3.328
REMARK  6 active torsions:
REMARK  status: ('A' for Active; 'I' for Inactive)
REMARK    1  A    between atoms: C_2  and  O_3 
REMARK    2  A    between atoms: O_3  and  C_4 
REMARK    3  A    between atoms: C_8  and  C_9 
REMARK    4  A    between atoms: C_9  and  N_10 
REMARK       I    between atoms: N_10  and  C_11 
REMARK       I    between atoms: C_11  and  N_12 
REMARK    5  A    between atoms: N_12  and  C_13 
REMARK    6  A    between atoms: C_14  and  C_15 
ROOT
HETATM    1  N   UNL     1      40.511 -13.072   4.994  1.00  0.00    -0.339 N 
HETATM    2  C   UNL     1      40.822 -14.325   5.463  1.00  0.00     0.316 C 
HETATM    3  N   UNL     1      41.762 -14.943   4.672  1.00  0.00    -0.338 N 
HETATM    4  O   UNL     1      40.334 -14.819   6.472  1.00  0.00    -0.247 OA
HETATM    5  H   UNL     1      41.227 -12.617   4.449  1.00  0.00     0.164 HD
HETATM    6  H   UNL     1      41.794 -14.646   3.707  1.00  0.00     0.164 HD
ENDROOT
BRANCH   1   7
HETATM    7  C   UNL     1      39.616 -12.207   5.732  1.00  0.00     0.163 C 
BRANCH   7   8
HETATM    8  C   UNL     1      40.353 -11.089   6.421  1.00  0.00    -0.035 A 
HETATM    9  C   UNL     1      39.663 -10.081   7.099  1.00  0.00     0.028 A 
HETATM   10  C   UNL     1      40.385  -9.068   7.707  1.00  0.00     0.120 A 
HETATM   11  N   UNL     1      41.732  -8.982   7.673  1.00  0.00    -0.237 NA
HETATM   12  C   UNL     1      42.384  -9.945   7.000  1.00  0.00     0.165 A 
HETATM   13  C   UNL     1      41.749 -11.016   6.384  1.00  0.00     0.066 A 
BRANCH  12  14
HETATM   14  O   UNL     1      43.757  -9.931   6.913  1.00  0.00    -0.324 OA
BRANCH  14  15
HETATM   15  C   UNL     1      44.544  -9.944   8.119  1.00  0.00     0.058 C 
HETATM   16  C   UNL     1      43.860 -10.709   9.261  1.00  0.00     0.045 C 
HETATM   17  C   UNL     1      45.005  -8.542   8.550  1.00  0.00     0.045 C 
HETATM   18  C   UNL     1      45.804 -10.740   7.723  1.00  0.00     0.045 C 
ENDBRANCH  14  15
ENDBRANCH  12  14
ENDBRANCH   7   8
ENDBRANCH   1   7
BRANCH   3  19
HETATM   19  C   UNL     1      42.305 -16.230   4.997  1.00  0.00     0.095 A 
HETATM   20  C   UNL     1      43.556 -16.758   4.323  1.00  0.00     0.043 A 
HETATM   21  C   UNL     1      43.590 -16.312   5.765  1.00  0.00     0.037 A 
BRANCH  20  22
HETATM   22  C   UNL     1      43.676 -18.230   3.999  1.00  0.00    -0.052 A 
HETATM   23  C   UNL     1      43.436 -18.716   2.703  1.00  0.00     0.007 A 
HETATM   24  C   UNL     1      43.546 -20.077   2.404  1.00  0.00     0.001 A 
HETATM   25  C   UNL     1      43.906 -20.982   3.399  1.00  0.00     0.000 A 
HETATM   26  C   UNL     1      44.161 -20.525   4.688  1.00  0.00     0.001 A 
HETATM   27  C   UNL     1      44.051 -19.163   4.980  1.00  0.00     0.007 A 
ENDBRANCH  20  22
ENDBRANCH   3  19
TORSDOF 6
ENDMDL
MODEL 6
REMARK VINA RESULT:      -7.7      1.680      2.430
REMARK  6 active torsions:
REMARK  status: ('A' for Active; 'I' for Inactive)
REMARK    1  A    between atoms: C_2  and  O_3 
REMARK    2  A    between atoms: O_3  and  C_4 
REMARK    3  A    between atoms: C_8  and  C_9 
REMARK    4  A    between atoms: C_9  and  N_10 
REMARK       I    between atoms: N_10  and  C_11 
REMARK       I    between atoms: C_11  and  N_12 
REMARK    5  A    between atoms: N_12  and  C_13 
REMARK    6  A    between atoms: C_14  and  C_15 
ROOT
HETATM    1  N   UNL     1      42.401 -11.433   6.986  1.00  0.00    -0.339 N 
HETATM    2  C   UNL     1      42.783 -12.124   5.862  1.00  0.00     0.316 C 
HETATM    3  N   UNL     1      42.280 -13.404   5.859  1.00  0.00    -0.338 N 
HETATM    4  O   UNL     1      43.468 -11.647   4.966  1.00  0.00    -0.247 OA
HETATM    5  H   UNL     1      41.546 -11.741   7.422  1.00  0.00     0.164 HD
HETATM    6  H   UNL     1      42.088 -13.806   6.766  1.00  0.00     0.164 HD
ENDROOT
BRANCH   1   7
HETATM    7  C   UNL     1      42.737 -10.035   7.145  1.00  0.00     0.163 C 
BRANCH   7   8
HETATM    8  C   UNL     1      43.517  -9.783   8.409  1.00  0.00    -0.035 A 
HETATM    9  C   UNL     1      44.750 -10.402   8.630  1.00  0.00     0.028 A 
HETATM   10  C   UNL     1      45.424 -10.147   9.813  1.00  0.00     0.120 A 
HETATM   11  N   UNL     1      44.953  -9.340  10.786  1.00  0.00    -0.237 NA
HETATM   12  C   UNL     1      43.756  -8.767  10.571  1.00  0.00     0.165 A 
HETATM   13  C   UNL     1      43.020  -8.938   9.405  1.00  0.00     0.066 A 
BRANCH  12  14
HETATM   14  O   UNL     1      43.200  -7.932  11.514  1.00  0.00    -0.324 OA
BRANCH  14  15
HETATM   15  C   UNL     1      42.338  -8.484  12.528  1.00  0.00     0.058 C 
HETATM   16  C   UNL     1      42.528  -9.997  12.705  1.00  0.00     0.045 C 
HETATM   17  C   UNL     1      40.862  -8.100  12.333  1.00  0.00     0.045 C 
HETATM   18  C   UNL     1      42.821  -7.804  13.826  1.00  0.00     0.045 C 
ENDBRANCH  14  15
ENDBRANCH  12  14
ENDBRANCH   7   8
ENDBRANCH   1   7
BRANCH   3  19
HETATM   19  C   UNL     1      42.478 -14.298   4.756  1.00  0.00     0.095 A 
HETATM   20  C   UNL     1      41.865 -15.684   4.736  1.00  0.00     0.043 A 
HETATM   21  C   UNL     1      41.331 -14.595   3.837  1.00  0.00     0.037 A 
BRANCH  20  22
HETATM   22  C   UNL     1      42.627 -16.840   4.129  1.00  0.00    -0.052 A 
HETATM   23  C   UNL     1      43.561 -17.576   4.878  1.00  0.00     0.007 A 
HETATM   24  C   UNL     1      44.267 -18.643   4.316  1.00  0.00     0.001 A 
HETATM   25  C   UNL     1      44.047 -19.002   2.989  1.00  0.00     0.000 A 
HETATM   26  C   UNL     1      43.118 -18.298   2.229  1.00  0.00     0.001 A 
HETATM   27  C   UNL     1      42.415 -17.233   2.797  1.00  0.00     0.007 A 
ENDBRANCH  20  22
ENDBRANCH   3  19
TORSDOF 6
ENDMDL
MODEL 7
REMARK VINA RESULT:      -7.7      5.700      8.770
REMARK  6 active torsions:
REMARK  status: ('A' for Active; 'I' for Inactive)
REMARK    1  A    between atoms: C_2  and  O_3 
REMARK    2  A    between atoms: O_3  and  C_4 
REMARK    3  A    between atoms: C_8  and  C_9 
REMARK    4  A    between atoms: C_9  and  N_10 
REMARK       I    between atoms: N_10  and  C_11 
REMARK       I    between atoms: C_11  and  N_12 
REMARK    5  A    between atoms: N_12  and  C_13 
REMARK    6  A    between atoms: C_14  and  C_15 
ROOT
HETATM    1  N   UNL     1      41.303 -12.842   2.351  1.00  0.00    -0.339 N 
HETATM    2  C   UNL     1      41.140 -14.022   3.034  1.00  0.00     0.316 C 
HETATM    3  N   UNL     1      42.255 -14.821   2.937  1.00  0.00    -0.338 N 
HETATM    4  O   UNL     1      40.132 -14.313   3.666  1.00  0.00    -0.247 OA
HETATM    5  H   UNL     1      42.255 -12.530   2.235  1.00  0.00     0.164 HD
HETATM    6  H   UNL     1      42.827 -14.685   2.116  1.00  0.00     0.164 HD
ENDROOT
BRANCH   1   7
HETATM    7  C   UNL     1      40.290 -11.810   2.404  1.00  0.00     0.163 C 
BRANCH   7   8
HETATM    8  C   UNL     1      39.745 -11.485   1.038  1.00  0.00    -0.035 A 
HETATM    9  C   UNL     1      39.771 -10.178   0.544  1.00  0.00     0.028 A 
HETATM   10  C   UNL     1      39.247  -9.928  -0.713  1.00  0.00     0.120 A 
HETATM   11  N   UNL     1      38.690 -10.875  -1.496  1.00  0.00    -0.237 NA
HETATM   12  C   UNL     1      38.650 -12.124  -1.001  1.00  0.00     0.165 A 
HETATM   13  C   UNL     1      39.177 -12.478   0.235  1.00  0.00     0.066 A 
BRANCH  12  14
HETATM   14  O   UNL     1      38.096 -13.150  -1.733  1.00  0.00    -0.324 OA
BRANCH  14  15
HETATM   15  C   UNL     1      38.958 -14.102  -2.385  1.00  0.00     0.058 C 
HETATM   16  C   UNL     1      39.186 -15.365  -1.543  1.00  0.00     0.045 C 
HETATM   17  C   UNL     1      40.276 -13.480  -2.874  1.00  0.00     0.045 C 
HETATM   18  C   UNL     1      38.157 -14.521  -3.635  1.00  0.00     0.045 C 
ENDBRANCH  14  15
ENDBRANCH  12  14
ENDBRANCH   7   8
ENDBRANCH   1   7
BRANCH   3  19
HETATM   19  C   UNL     1      42.356 -16.075   3.626  1.00  0.00     0.095 A 
HETATM   20  C   UNL     1      43.687 -16.775   3.811  1.00  0.00     0.043 A 
HETATM   21  C   UNL     1      42.997 -16.117   4.981  1.00  0.00     0.037 A 
BRANCH  20  22
HETATM   22  C   UNL     1      43.764 -18.283   3.747  1.00  0.00    -0.052 A 
HETATM   23  C   UNL     1      43.482 -18.982   2.561  1.00  0.00     0.007 A 
HETATM   24  C   UNL     1      43.551 -20.377   2.503  1.00  0.00     0.001 A 
HETATM   25  C   UNL     1      43.912 -21.104   3.634  1.00  0.00     0.000 A 
HETATM   26  C   UNL     1      44.208 -20.436   4.818  1.00  0.00     0.001 A 
HETATM   27  C   UNL     1      44.138 -19.042   4.869  1.00  0.00     0.007 A 
ENDBRANCH  20  22
ENDBRANCH   3  19
TORSDOF 6
ENDMDL
MODEL 8
REMARK VINA RESULT:      -7.6      2.721     10.387
REMARK  6 active torsions:
REMARK  status: ('A' for Active; 'I' for Inactive)
REMARK    1  A    between atoms: C_2  and  O_3 
REMARK    2  A    between atoms: O_3  and  C_4 
REMARK    3  A    between atoms: C_8  and  C_9 
REMARK    4  A    between atoms: C_9  and  N_10 
REMARK       I    between atoms: N_10  and  C_11 
REMARK       I    between atoms: C_11  and  N_12 
REMARK    5  A    between atoms: N_12  and  C_13 
REMARK    6  A    between atoms: C_14  and  C_15 
ROOT
HETATM    1  N   UNL     1      41.964 -10.701   7.064  1.00  0.00    -0.339 N 
HETATM    2  C   UNL     1      42.405  -9.696   7.889  1.00  0.00     0.316 C 
HETATM    3  N   UNL     1      42.259 -10.029   9.216  1.00  0.00    -0.338 N 
HETATM    4  O   UNL     1      42.889  -8.645   7.489  1.00  0.00    -0.247 OA
HETATM    5  H   UNL     1      41.985 -11.631   7.454  1.00  0.00     0.164 HD
HETATM    6  H   UNL     1      41.527 -10.692   9.427  1.00  0.00     0.164 HD
ENDROOT
BRANCH   1   7
HETATM    7  C   UNL     1      42.118 -10.602   5.629  1.00  0.00     0.163 C 
BRANCH   7   8
HETATM    8  C   UNL     1      41.420 -11.725   4.908  1.00  0.00    -0.035 A 
HETATM    9  C   UNL     1      40.253 -11.495   4.174  1.00  0.00     0.028 A 
HETATM   10  C   UNL     1      39.641 -12.562   3.539  1.00  0.00     0.120 A 
HETATM   11  N   UNL     1      40.097 -13.831   3.596  1.00  0.00    -0.237 NA
HETATM   12  C   UNL     1      41.208 -14.044   4.322  1.00  0.00     0.165 A 
HETATM   13  C   UNL     1      41.908 -13.034   4.970  1.00  0.00     0.066 A 
BRANCH  12  14
HETATM   14  O   UNL     1      41.738 -15.309   4.436  1.00  0.00    -0.324 OA
BRANCH  14  15
HETATM   15  C   UNL     1      42.509 -15.855   3.348  1.00  0.00     0.058 C 
HETATM   16  C   UNL     1      43.198 -14.769   2.510  1.00  0.00     0.045 C 
HETATM   17  C   UNL     1      41.708 -16.840   2.481  1.00  0.00     0.045 C 
HETATM   18  C   UNL     1      43.616 -16.662   4.056  1.00  0.00     0.045 C 
ENDBRANCH  14  15
ENDBRANCH  12  14
ENDBRANCH   7   8
ENDBRANCH   1   7
BRANCH   3  19
HETATM   19  C   UNL     1      42.716  -9.173  10.271  1.00  0.00     0.095 A 
HETATM   20  C   UNL     1      43.055  -9.716  11.645  1.00  0.00     0.043 A 
HETATM   21  C   UNL     1      44.147  -9.251  10.712  1.00  0.00     0.037 A 
BRANCH  20  22
HETATM   22  C   UNL     1      42.738  -8.903  12.879  1.00  0.00    -0.052 A 
HETATM   23  C   UNL     1      41.722  -9.289  13.769  1.00  0.00     0.007 A 
HETATM   24  C   UNL     1      41.428  -8.536  14.910  1.00  0.00     0.001 A 
HETATM   25  C   UNL     1      42.153  -7.380  15.188  1.00  0.00     0.000 A 
HETATM   26  C   UNL     1      43.174  -6.983  14.329  1.00  0.00     0.001 A 
HETATM   27  C   UNL     1      43.463  -7.741  13.191  1.00  0.00     0.007 A 
ENDBRANCH  20  22
ENDBRANCH   3  19
TORSDOF 6
ENDMDL
MODEL 9
REMARK VINA RESULT:      -7.5      2.041      3.142
REMARK  6 active torsions:
REMARK  status: ('A' for Active; 'I' for Inactive)
REMARK    1  A    between atoms: C_2  and  O_3 
REMARK    2  A    between atoms: O_3  and  C_4 
REMARK    3  A    between atoms: C_8  and  C_9 
REMARK    4  A    between atoms: C_9  and  N_10 
REMARK       I    between atoms: N_10  and  C_11 
REMARK       I    between atoms: C_11  and  N_12 
REMARK    5  A    between atoms: N_12  and  C_13 
REMARK    6  A    between atoms: C_14  and  C_15 
ROOT
HETATM    1  N   UNL     1      43.862 -11.802   7.968  1.00  0.00    -0.339 N 
HETATM    2  C   UNL     1      43.757 -12.323   6.702  1.00  0.00     0.316 C 
HETATM    3  N   UNL     1      43.469 -13.668   6.730  1.00  0.00    -0.338 N 
HETATM    4  O   UNL     1      43.884 -11.664   5.678  1.00  0.00    -0.247 OA
HETATM    5  H   UNL     1      43.351 -12.290   8.688  1.00  0.00     0.164 HD
HETATM    6  H   UNL     1      43.770 -14.168   7.554  1.00  0.00     0.164 HD
ENDROOT
BRANCH   1   7
HETATM    7  C   UNL     1      44.062 -10.384   8.170  1.00  0.00     0.163 C 
BRANCH   7   8
HETATM    8  C   UNL     1      42.829  -9.712   8.715  1.00  0.00    -0.035 A 
HETATM    9  C   UNL     1      41.823  -9.252   7.862  1.00  0.00     0.028 A 
HETATM   10  C   UNL     1      40.714  -8.631   8.411  1.00  0.00     0.120 A 
HETATM   11  N   UNL     1      40.547  -8.423   9.734  1.00  0.00    -0.237 NA
HETATM   12  C   UNL     1      41.532  -8.851  10.543  1.00  0.00     0.165 A 
HETATM   13  C   UNL     1      42.667  -9.511  10.089  1.00  0.00     0.066 A 
BRANCH  12  14
HETATM   14  O   UNL     1      41.444  -8.676  11.905  1.00  0.00    -0.324 OA
BRANCH  14  15
HETATM   15  C   UNL     1      41.972  -7.476  12.501  1.00  0.00     0.058 C 
HETATM   16  C   UNL     1      42.253  -6.378  11.466  1.00  0.00     0.045 C 
HETATM   17  C   UNL     1      43.182  -7.742  13.412  1.00  0.00     0.045 C 
HETATM   18  C   UNL     1      40.822  -6.979  13.400  1.00  0.00     0.045 C 
ENDBRANCH  14  15
ENDBRANCH  12  14
ENDBRANCH   7   8
ENDBRANCH   1   7
BRANCH   3  19
HETATM   19  C   UNL     1      43.237 -14.423   5.533  1.00  0.00     0.095 A 
HETATM   20  C   UNL     1      42.604 -15.800   5.572  1.00  0.00     0.043 A 
HETATM   21  C   UNL     1      41.832 -14.614   5.046  1.00  0.00     0.037 A 
BRANCH  20  22
HETATM   22  C   UNL     1      43.064 -16.871   4.609  1.00  0.00    -0.052 A 
HETATM   23  C   UNL     1      44.028 -17.823   4.979  1.00  0.00     0.007 A 
HETATM   24  C   UNL     1      44.454 -18.813   4.089  1.00  0.00     0.001 A 
HETATM   25  C   UNL     1      43.917 -18.873   2.806  1.00  0.00     0.000 A 
HETATM   26  C   UNL     1      42.951 -17.949   2.418  1.00  0.00     0.001 A 
HETATM   27  C   UNL     1      42.529 -16.964   3.313  1.00  0.00     0.007 A 
ENDBRANCH  20  22
ENDBRANCH   3  19
TORSDOF 6
ENDMDL
MODEL 10
REMARK VINA RESULT:      -7.5      2.974     10.322
REMARK  6 active torsions:
REMARK  status: ('A' for Active; 'I' for Inactive)
REMARK    1  A    between atoms: C_2  and  O_3 
REMARK    2  A    between atoms: O_3  and  C_4 
REMARK    3  A    between atoms: C_8  and  C_9 
REMARK    4  A    between atoms: C_9  and  N_10 
REMARK       I    between atoms: N_10  and  C_11 
REMARK       I    between atoms: C_11  and  N_12 
REMARK    5  A    between atoms: N_12  and  C_13 
REMARK    6  A    between atoms: C_14  and  C_15 
ROOT
HETATM    1  N   UNL     1      42.924 -11.222   7.199  1.00  0.00    -0.339 N 
HETATM    2  C   UNL     1      43.430 -10.270   8.049  1.00  0.00     0.316 C 
HETATM    3  N   UNL     1      42.711 -10.205   9.220  1.00  0.00    -0.338 N 
HETATM    4  O   UNL     1      44.412  -9.583   7.801  1.00  0.00    -0.247 OA
HETATM    5  H   UNL     1      42.421 -11.979   7.635  1.00  0.00     0.164 HD
HETATM    6  H   UNL     1      41.746 -10.498   9.164  1.00  0.00     0.164 HD
ENDROOT
BRANCH   1   7
HETATM    7  C   UNL     1      43.590 -11.528   5.951  1.00  0.00     0.163 C 
BRANCH   7   8
HETATM    8  C   UNL     1      43.227 -12.897   5.439  1.00  0.00    -0.035 A 
HETATM    9  C   UNL     1      43.309 -14.021   6.267  1.00  0.00     0.028 A 
HETATM   10  C   UNL     1      42.976 -15.260   5.746  1.00  0.00     0.120 A 
HETATM   11  N   UNL     1      42.588 -15.458   4.469  1.00  0.00    -0.237 NA
HETATM   12  C   UNL     1      42.534 -14.374   3.677  1.00  0.00     0.165 A 
HETATM   13  C   UNL     1      42.820 -13.087   4.115  1.00  0.00     0.066 A 
BRANCH  12  14
HETATM   14  O   UNL     1      42.152 -14.488   2.359  1.00  0.00    -0.324 OA
BRANCH  14  15
HETATM   15  C   UNL     1      40.754 -14.419   2.019  1.00  0.00     0.058 C 
HETATM   16  C   UNL     1      39.922 -13.699   3.089  1.00  0.00     0.045 C 
HETATM   17  C   UNL     1      40.161 -15.785   1.640  1.00  0.00     0.045 C 
HETATM   18  C   UNL     1      40.732 -13.541   0.750  1.00  0.00     0.045 C 
ENDBRANCH  14  15
ENDBRANCH  12  14
ENDBRANCH   7   8
ENDBRANCH   1   7
BRANCH   3  19
HETATM   19  C   UNL     1      43.088  -9.338  10.299  1.00  0.00     0.095 A 
HETATM   20  C   UNL     1      43.245  -9.855  11.715  1.00  0.00     0.043 A 
HETATM   21  C   UNL     1      44.456  -9.468  10.900  1.00  0.00     0.037 A 
BRANCH  20  22
HETATM   22  C   UNL     1      42.832  -8.991  12.885  1.00  0.00    -0.052 A 
HETATM   23  C   UNL     1      43.455  -7.758  13.141  1.00  0.00     0.007 A 
HETATM   24  C   UNL     1      43.074  -6.960  14.224  1.00  0.00     0.001 A 
HETATM   25  C   UNL     1      42.053  -7.379  15.072  1.00  0.00     0.000 A 
HETATM   26  C   UNL     1      41.411  -8.590  14.834  1.00  0.00     0.001 A 
HETATM   27  C   UNL     1      41.796  -9.382  13.750  1.00  0.00     0.007 A 
ENDBRANCH  20  22
ENDBRANCH   3  19
TORSDOF 6
ENDMDL
