MODEL 1
REMARK VINA RESULT:     -11.5      0.000      0.000
REMARK  6 active torsions:
REMARK  status: ('A' for Active; 'I' for Inactive)
REMARK       I    between atoms: N_1  and  C_2 
REMARK    1  A    between atoms: C_2  and  C_4 
REMARK    2  A    between atoms: C_9  and  C_13 
REMARK       I    between atoms: C_13  and  N_15 
REMARK    3  A    between atoms: C_19  and  C_20 
REMARK    4  A    between atoms: C_24  and  C_26 
REMARK       I    between atoms: C_26  and  N_28 
REMARK    5  A    between atoms: N_28  and  C_29 
REMARK    6  A    between atoms: C_34  and  N_38 
ROOT
HETATM    1  C   UNL     1      43.816 -11.229   6.610  1.00  0.00    -0.034 A 
HETATM    2  C   UNL     1      45.119 -11.177   6.083  1.00  0.00     0.009 A 
HETATM    3  C   UNL     1      46.210 -10.852   6.891  1.00  0.00     0.002 A 
HETATM    4  C   UNL     1      46.018 -10.564   8.241  1.00  0.00     0.017 A 
HETATM    5  C   UNL     1      44.726 -10.605   8.780  1.00  0.00     0.033 A 
HETATM    6  C   UNL     1      43.637 -10.956   7.976  1.00  0.00     0.026 A 
ENDROOT
BRANCH   1   7
HETATM    7  C   UNL     1      42.659 -11.586   5.690  1.00  0.00     0.120 C 
HETATM    8  N   UNL     1      42.839 -12.850   4.985  1.00  0.00    -0.338 N 
HETATM    9  C   UNL     1      42.692 -14.060   5.649  1.00  0.00     0.274 C 
HETATM   10  C   UNL     1      43.051 -12.643   3.560  1.00  0.00     0.127 C 
HETATM   11  O   UNL     1      42.482 -14.102   6.863  1.00  0.00    -0.266 OA
HETATM   12  C   UNL     1      43.279 -11.144   3.410  1.00  0.00     0.022 C 
HETATM   13  C   UNL     1      42.478 -10.558   4.566  1.00  0.00     0.032 C 
BRANCH   9  14
HETATM   14  C   UNL     1      42.810 -15.309   4.878  1.00  0.00     0.142 A 
HETATM   15  N   UNL     1      42.312 -15.533   3.604  1.00  0.00    -0.224 NA
HETATM   16  C   UNL     1      42.620 -16.777   3.308  1.00  0.00     0.134 A 
HETATM   17  C   UNL     1      42.358 -17.565   2.153  1.00  0.00     0.052 A 
HETATM   18  N   UNL     1      43.317 -17.386   4.344  1.00  0.00    -0.314 N 
HETATM   19  C   UNL     1      42.804 -18.835   2.099  1.00  0.00     0.022 A 
HETATM   20  C   UNL     1      43.569 -19.433   3.194  1.00  0.00     0.047 A 
HETATM   21  C   UNL     1      43.789 -18.695   4.300  1.00  0.00     0.115 A 
HETATM   22  C   UNL     1      43.423 -16.460   5.345  1.00  0.00     0.135 A 
BRANCH  20  23
HETATM   23  C   UNL     1      44.029 -20.848   3.087  1.00  0.00     0.250 C 
HETATM   24  N   UNL     1      44.196 -21.519   4.260  1.00  0.00    -0.366 N 
HETATM   25  H   UNL     1      44.595 -22.447   4.199  1.00  0.00     0.159 HD
HETATM   26  H   UNL     1      44.178 -21.068   5.163  1.00  0.00     0.159 HD
HETATM   27  O   UNL     1      44.297 -21.371   2.013  1.00  0.00    -0.268 OA
ENDBRANCH  20  23
ENDBRANCH   9  14
ENDBRANCH   1   7
BRANCH   5  28
HETATM   28  C   UNL     1      44.478 -10.282  10.210  1.00  0.00     0.257 C 
HETATM   29  O   UNL     1      45.226 -10.758  11.053  1.00  0.00    -0.267 OA
HETATM   30  N   UNL     1      43.374  -9.490  10.410  1.00  0.00    -0.301 N 
HETATM   31  H   UNL     1      42.763  -9.252   9.644  1.00  0.00     0.171 HD
BRANCH  30  32
HETATM   32  C   UNL     1      43.029  -8.998  11.635  1.00  0.00     0.174 A 
HETATM   33  N   UNL     1      43.673  -8.176  12.425  1.00  0.00    -0.228 NA
HETATM   34  C   UNL     1      42.889  -7.898  13.523  1.00  0.00     0.050 A 
HETATM   35  C   UNL     1      43.328  -6.923  14.558  1.00  0.00     0.062 C 
HETATM   36  C   UNL     1      41.654  -8.510  13.526  1.00  0.00     0.013 A 
HETATM   37  C   UNL     1      42.265  -6.703  15.655  1.00  0.00     0.031 C 
HETATM   38  C   UNL     1      40.776  -6.909  15.231  1.00  0.00     0.084 C 
HETATM   39  C   UNL     1      40.612  -8.308  14.563  1.00  0.00     0.073 C 
HETATM   40  S   UNL     1      41.484  -9.514  12.166  1.00  0.00    -0.055 SA
BRANCH  38  41
HETATM   41  N   UNL     1      40.121  -5.745  14.603  1.00  0.00    -0.404 N 
HETATM   42  C   UNL     1      39.273  -5.894  13.417  1.00  0.00     0.143 C 
HETATM   43  C   UNL     1      37.776  -6.055  13.715  1.00  0.00     0.187 C 
HETATM   44  O   UNL     1      37.296  -4.975  14.528  1.00  0.00    -0.388 OA
HETATM   45  C   UNL     1      38.026  -4.915  15.758  1.00  0.00     0.187 C 
HETATM   46  C   UNL     1      39.539  -4.748  15.518  1.00  0.00     0.143 C 
ENDBRANCH  38  41
ENDBRANCH  30  32
ENDBRANCH   5  28
TORSDOF 6
ENDMDL
MODEL 2
REMARK VINA RESULT:     -10.7      2.714     13.316
REMARK  6 active torsions:
REMARK  status: ('A' for Active; 'I' for Inactive)
REMARK       I    between atoms: N_1  and  C_2 
REMARK    1  A    between atoms: C_2  and  C_4 
REMARK    2  A    between atoms: C_9  and  C_13 
REMARK       I    between atoms: C_13  and  N_15 
REMARK    3  A    between atoms: C_19  and  C_20 
REMARK    4  A    between atoms: C_24  and  C_26 
REMARK       I    between atoms: C_26  and  N_28 
REMARK    5  A    between atoms: N_28  and  C_29 
REMARK    6  A    between atoms: C_34  and  N_38 
ROOT
HETATM    1  C   UNL     1      42.662  -9.005   9.481  1.00  0.00    -0.034 A 
HETATM    2  C   UNL     1      43.753  -8.834  10.352  1.00  0.00     0.009 A 
HETATM    3  C   UNL     1      44.935  -9.557  10.175  1.00  0.00     0.002 A 
HETATM    4  C   UNL     1      45.044 -10.471   9.129  1.00  0.00     0.017 A 
HETATM    5  C   UNL     1      43.964 -10.658   8.258  1.00  0.00     0.033 A 
HETATM    6  C   UNL     1      42.791  -9.915   8.419  1.00  0.00     0.026 A 
ENDROOT
BRANCH   1   7
HETATM    7  C   UNL     1      41.395  -8.197   9.715  1.00  0.00     0.120 C 
HETATM    8  N   UNL     1      41.019  -8.089  11.120  1.00  0.00    -0.338 N 
HETATM    9  C   UNL     1      41.718  -7.255  11.981  1.00  0.00     0.274 C 
HETATM   10  C   UNL     1      39.807  -8.843  11.409  1.00  0.00     0.127 C 
HETATM   11  O   UNL     1      42.718  -6.641  11.604  1.00  0.00    -0.266 OA
HETATM   12  C   UNL     1      39.562  -9.685  10.163  1.00  0.00     0.022 C 
HETATM   13  C   UNL     1      40.170  -8.839   9.052  1.00  0.00     0.032 C 
BRANCH   9  14
HETATM   14  C   UNL     1      41.254  -7.123  13.372  1.00  0.00     0.142 A 
HETATM   15  N   UNL     1      40.297  -6.232  13.834  1.00  0.00    -0.224 NA
HETATM   16  C   UNL     1      40.206  -6.440  15.130  1.00  0.00     0.134 A 
HETATM   17  C   UNL     1      39.409  -5.817  16.130  1.00  0.00     0.052 A 
HETATM   18  N   UNL     1      41.066  -7.449  15.543  1.00  0.00    -0.314 N 
HETATM   19  C   UNL     1      39.500  -6.235  17.409  1.00  0.00     0.022 A 
HETATM   20  C   UNL     1      40.390  -7.328  17.803  1.00  0.00     0.047 A 
HETATM   21  C   UNL     1      41.166  -7.895  16.858  1.00  0.00     0.115 A 
HETATM   22  C   UNL     1      41.741  -7.871  14.432  1.00  0.00     0.135 A 
BRANCH  20  23
HETATM   23  C   UNL     1      40.461  -7.742  19.235  1.00  0.00     0.250 C 
HETATM   24  N   UNL     1      40.634  -9.072  19.469  1.00  0.00    -0.366 N 
HETATM   25  H   UNL     1      40.590  -9.371  20.435  1.00  0.00     0.159 HD
HETATM   26  H   UNL     1      40.557  -9.776  18.750  1.00  0.00     0.159 HD
HETATM   27  O   UNL     1      40.317  -6.948  20.155  1.00  0.00    -0.268 OA
ENDBRANCH  20  23
ENDBRANCH   9  14
ENDBRANCH   1   7
BRANCH   5  28
HETATM   28  C   UNL     1      44.035 -11.640   7.144  1.00  0.00     0.257 C 
HETATM   29  O   UNL     1      45.137 -11.966   6.724  1.00  0.00    -0.267 OA
HETATM   30  N   UNL     1      42.804 -12.042   6.688  1.00  0.00    -0.301 N 
HETATM   31  H   UNL     1      41.959 -11.615   7.036  1.00  0.00     0.171 HD
BRANCH  30  32
HETATM   32  C   UNL     1      42.646 -13.011   5.740  1.00  0.00     0.174 A 
HETATM   33  N   UNL     1      43.099 -13.072   4.513  1.00  0.00    -0.228 NA
HETATM   34  C   UNL     1      42.755 -14.287   3.964  1.00  0.00     0.050 A 
HETATM   35  C   UNL     1      43.208 -14.674   2.600  1.00  0.00     0.062 C 
HETATM   36  C   UNL     1      42.057 -15.128   4.804  1.00  0.00     0.013 A 
HETATM   37  C   UNL     1      42.777 -16.106   2.216  1.00  0.00     0.031 C 
HETATM   38  C   UNL     1      42.599 -17.116   3.393  1.00  0.00     0.084 C 
HETATM   39  C   UNL     1      41.640 -16.510   4.462  1.00  0.00     0.073 C 
HETATM   40  S   UNL     1      41.758 -14.367   6.294  1.00  0.00    -0.055 SA
BRANCH  38  41
HETATM   41  N   UNL     1      43.828 -17.793   3.849  1.00  0.00    -0.404 N 
HETATM   42  C   UNL     1      44.073 -18.057   5.270  1.00  0.00     0.143 C 
HETATM   43  C   UNL     1      43.624 -19.444   5.752  1.00  0.00     0.187 C 
HETATM   44  O   UNL     1      44.213 -20.479   4.953  1.00  0.00    -0.388 OA
HETATM   45  C   UNL     1      43.856 -20.311   3.577  1.00  0.00     0.187 C 
HETATM   46  C   UNL     1      44.288 -18.934   3.038  1.00  0.00     0.143 C 
ENDBRANCH  38  41
ENDBRANCH  30  32
ENDBRANCH   5  28
TORSDOF 6
ENDMDL
MODEL 3
REMARK VINA RESULT:     -10.4      2.933     13.180
REMARK  6 active torsions:
REMARK  status: ('A' for Active; 'I' for Inactive)
REMARK       I    between atoms: N_1  and  C_2 
REMARK    1  A    between atoms: C_2  and  C_4 
REMARK    2  A    between atoms: C_9  and  C_13 
REMARK       I    between atoms: C_13  and  N_15 
REMARK    3  A    between atoms: C_19  and  C_20 
REMARK    4  A    between atoms: C_24  and  C_26 
REMARK       I    between atoms: C_26  and  N_28 
REMARK    5  A    between atoms: N_28  and  C_29 
REMARK    6  A    between atoms: C_34  and  N_38 
ROOT
HETATM    1  C   UNL     1      43.424  -9.955  10.225  1.00  0.00    -0.034 A 
HETATM    2  C   UNL     1      44.582  -9.191  10.459  1.00  0.00     0.009 A 
HETATM    3  C   UNL     1      45.668  -9.244   9.584  1.00  0.00     0.002 A 
HETATM    4  C   UNL     1      45.621 -10.069   8.462  1.00  0.00     0.017 A 
HETATM    5  C   UNL     1      44.479 -10.841   8.218  1.00  0.00     0.033 A 
HETATM    6  C   UNL     1      43.380 -10.767   9.081  1.00  0.00     0.026 A 
ENDROOT
BRANCH   1   7
HETATM    7  C   UNL     1      42.267  -9.864  11.208  1.00  0.00     0.120 C 
HETATM    8  N   UNL     1      41.601  -8.567  11.212  1.00  0.00    -0.338 N 
HETATM    9  C   UNL     1      40.757  -8.197  10.175  1.00  0.00     0.274 C 
HETATM   10  C   UNL     1      41.851  -7.842  12.450  1.00  0.00     0.127 C 
HETATM   11  O   UNL     1      40.604  -8.919   9.187  1.00  0.00    -0.266 OA
HETATM   12  C   UNL     1      42.955  -8.626  13.149  1.00  0.00     0.022 C 
HETATM   13  C   UNL     1      42.727 -10.050  12.659  1.00  0.00     0.032 C 
BRANCH   9  14
HETATM   14  C   UNL     1      40.050  -6.909  10.262  1.00  0.00     0.142 A 
HETATM   15  N   UNL     1      40.424  -5.727   9.642  1.00  0.00    -0.224 NA
HETATM   16  C   UNL     1      39.532  -4.830  10.003  1.00  0.00     0.134 A 
HETATM   17  C   UNL     1      39.407  -3.447   9.695  1.00  0.00     0.052 A 
HETATM   18  N   UNL     1      38.569  -5.382  10.838  1.00  0.00    -0.314 N 
HETATM   19  C   UNL     1      38.372  -2.745  10.195  1.00  0.00     0.022 A 
HETATM   20  C   UNL     1      37.353  -3.367  11.042  1.00  0.00     0.047 A 
HETATM   21  C   UNL     1      37.491  -4.671  11.357  1.00  0.00     0.115 A 
HETATM   22  C   UNL     1      38.906  -6.695  11.015  1.00  0.00     0.135 A 
BRANCH  20  23
HETATM   23  C   UNL     1      36.233  -2.541  11.579  1.00  0.00     0.250 C 
HETATM   24  N   UNL     1      35.248  -3.213  12.234  1.00  0.00    -0.366 N 
HETATM   25  H   UNL     1      34.442  -2.671  12.520  1.00  0.00     0.159 HD
HETATM   26  H   UNL     1      35.166  -4.219  12.229  1.00  0.00     0.159 HD
HETATM   27  O   UNL     1      36.167  -1.332  11.400  1.00  0.00    -0.268 OA
ENDBRANCH  20  23
ENDBRANCH   9  14
ENDBRANCH   1   7
BRANCH   5  28
HETATM   28  C   UNL     1      44.400 -11.750   7.044  1.00  0.00     0.257 C 
HETATM   29  O   UNL     1      45.424 -11.982   6.417  1.00  0.00    -0.267 OA
HETATM   30  N   UNL     1      43.128 -12.201   6.784  1.00  0.00    -0.301 N 
HETATM   31  H   UNL     1      42.339 -11.848   7.304  1.00  0.00     0.171 HD
BRANCH  30  32
HETATM   32  C   UNL     1      42.853 -13.121   5.815  1.00  0.00     0.174 A 
HETATM   33  N   UNL     1      43.150 -13.115   4.540  1.00  0.00    -0.228 NA
HETATM   34  C   UNL     1      42.739 -14.303   3.976  1.00  0.00     0.050 A 
HETATM   35  C   UNL     1      43.018 -14.616   2.547  1.00  0.00     0.062 C 
HETATM   36  C   UNL     1      42.153 -15.191   4.851  1.00  0.00     0.013 A 
HETATM   37  C   UNL     1      42.543 -16.029   2.146  1.00  0.00     0.031 C 
HETATM   38  C   UNL     1      42.514 -17.100   3.283  1.00  0.00     0.084 C 
HETATM   39  C   UNL     1      41.696 -16.556   4.493  1.00  0.00     0.073 C 
HETATM   40  S   UNL     1      42.042 -14.509   6.404  1.00  0.00    -0.055 SA
BRANCH  38  41
HETATM   41  N   UNL     1      43.791 -17.792   3.545  1.00  0.00    -0.404 N 
HETATM   42  C   UNL     1      44.250 -18.053   4.913  1.00  0.00     0.143 C 
HETATM   43  C   UNL     1      43.864 -19.432   5.467  1.00  0.00     0.187 C 
HETATM   44  O   UNL     1      44.309 -20.478   4.592  1.00  0.00    -0.388 OA
HETATM   45  C   UNL     1      43.745 -20.311   3.287  1.00  0.00     0.187 C 
HETATM   46  C   UNL     1      44.105 -18.942   2.679  1.00  0.00     0.143 C 
ENDBRANCH  38  41
ENDBRANCH  30  32
ENDBRANCH   5  28
TORSDOF 6
ENDMDL
MODEL 4
REMARK VINA RESULT:     -10.2      3.026     13.345
REMARK  6 active torsions:
REMARK  status: ('A' for Active; 'I' for Inactive)
REMARK       I    between atoms: N_1  and  C_2 
REMARK    1  A    between atoms: C_2  and  C_4 
REMARK    2  A    between atoms: C_9  and  C_13 
REMARK       I    between atoms: C_13  and  N_15 
REMARK    3  A    between atoms: C_19  and  C_20 
REMARK    4  A    between atoms: C_24  and  C_26 
REMARK       I    between atoms: C_26  and  N_28 
REMARK    5  A    between atoms: N_28  and  C_29 
REMARK    6  A    between atoms: C_34  and  N_38 
ROOT
HETATM    1  C   UNL     1      41.333  -8.718   8.564  1.00  0.00    -0.034 A 
HETATM    2  C   UNL     1      40.318  -7.746   8.536  1.00  0.00     0.009 A 
HETATM    3  C   UNL     1      39.303  -7.793   7.578  1.00  0.00     0.002 A 
HETATM    4  C   UNL     1      39.289  -8.808   6.624  1.00  0.00     0.017 A 
HETATM    5  C   UNL     1      40.297  -9.780   6.634  1.00  0.00     0.033 A 
HETATM    6  C   UNL     1      41.299  -9.748   7.610  1.00  0.00     0.026 A 
ENDROOT
BRANCH   1   7
HETATM    7  C   UNL     1      42.419  -8.624   9.625  1.00  0.00     0.120 C 
HETATM    8  N   UNL     1      41.958  -8.056  10.887  1.00  0.00    -0.338 N 
HETATM    9  C   UNL     1      41.166  -8.796  11.752  1.00  0.00     0.274 C 
HETATM   10  C   UNL     1      42.531  -6.738  11.120  1.00  0.00     0.127 C 
HETATM   11  O   UNL     1      40.768  -9.923  11.450  1.00  0.00    -0.266 OA
HETATM   12  C   UNL     1      43.182  -6.352   9.797  1.00  0.00     0.022 C 
HETATM   13  C   UNL     1      43.565  -7.699   9.198  1.00  0.00     0.032 C 
BRANCH   9  14
HETATM   14  C   UNL     1      40.789  -8.205  13.047  1.00  0.00     0.142 A 
HETATM   15  N   UNL     1      39.836  -7.219  13.249  1.00  0.00    -0.224 NA
HETATM   16  C   UNL     1      39.835  -6.975  14.542  1.00  0.00     0.134 A 
HETATM   17  C   UNL     1      39.085  -6.057  15.328  1.00  0.00     0.052 A 
HETATM   18  N   UNL     1      40.753  -7.776  15.209  1.00  0.00    -0.314 N 
HETATM   19  C   UNL     1      39.272  -6.016  16.662  1.00  0.00     0.022 A 
HETATM   20  C   UNL     1      40.221  -6.902  17.337  1.00  0.00     0.047 A 
HETATM   21  C   UNL     1      40.953  -7.749  16.586  1.00  0.00     0.115 A 
HETATM   22  C   UNL     1      41.368  -8.544  14.259  1.00  0.00     0.135 A 
BRANCH  20  23
HETATM   23  C   UNL     1      40.398  -6.806  18.815  1.00  0.00     0.250 C 
HETATM   24  N   UNL     1      41.109  -5.737  19.270  1.00  0.00    -0.366 N 
HETATM   25  H   UNL     1      41.310  -5.716  20.261  1.00  0.00     0.159 HD
HETATM   26  H   UNL     1      41.635  -5.125  18.664  1.00  0.00     0.159 HD
HETATM   27  O   UNL     1      39.979  -7.663  19.582  1.00  0.00    -0.268 OA
ENDBRANCH  20  23
ENDBRANCH   9  14
ENDBRANCH   1   7
BRANCH   5  28
HETATM   28  C   UNL     1      40.330 -10.866   5.619  1.00  0.00     0.257 C 
HETATM   29  O   UNL     1      39.466 -10.880   4.753  1.00  0.00    -0.267 OA
HETATM   30  N   UNL     1      41.345 -11.770   5.815  1.00  0.00    -0.301 N 
HETATM   31  H   UNL     1      41.930 -11.720   6.635  1.00  0.00     0.171 HD
BRANCH  30  32
HETATM   32  C   UNL     1      41.612 -12.784   4.942  1.00  0.00     0.174 A 
HETATM   33  N   UNL     1      42.424 -12.820   3.916  1.00  0.00    -0.228 NA
HETATM   34  C   UNL     1      42.424 -14.091   3.384  1.00  0.00     0.050 A 
HETATM   35  C   UNL     1      43.320 -14.455   2.253  1.00  0.00     0.062 C 
HETATM   36  C   UNL     1      41.616 -14.995   4.039  1.00  0.00     0.013 A 
HETATM   37  C   UNL     1      43.216 -15.947   1.869  1.00  0.00     0.031 C 
HETATM   38  C   UNL     1      42.815 -16.931   3.014  1.00  0.00     0.084 C 
HETATM   39  C   UNL     1      41.505 -16.434   3.696  1.00  0.00     0.073 C 
HETATM   40  S   UNL     1      40.778 -14.235   5.307  1.00  0.00    -0.055 SA
BRANCH  38  41
HETATM   41  N   UNL     1      43.921 -17.406   3.868  1.00  0.00    -0.404 N 
HETATM   42  C   UNL     1      43.864 -17.284   5.328  1.00  0.00     0.143 C 
HETATM   43  C   UNL     1      43.321 -18.523   6.053  1.00  0.00     0.187 C 
HETATM   44  O   UNL     1      44.059 -19.697   5.687  1.00  0.00    -0.388 OA
HETATM   45  C   UNL     1      43.997 -19.904   4.272  1.00  0.00     0.187 C 
HETATM   46  C   UNL     1      44.536 -18.690   3.492  1.00  0.00     0.143 C 
ENDBRANCH  38  41
ENDBRANCH  30  32
ENDBRANCH   5  28
TORSDOF 6
ENDMDL
MODEL 5
REMARK VINA RESULT:     -10.1      2.280      4.222
REMARK  6 active torsions:
REMARK  status: ('A' for Active; 'I' for Inactive)
REMARK       I    between atoms: N_1  and  C_2 
REMARK    1  A    between atoms: C_2  and  C_4 
REMARK    2  A    between atoms: C_9  and  C_13 
REMARK       I    between atoms: C_13  and  N_15 
REMARK    3  A    between atoms: C_19  and  C_20 
REMARK    4  A    between atoms: C_24  and  C_26 
REMARK       I    between atoms: C_26  and  N_28 
REMARK    5  A    between atoms: N_28  and  C_29 
REMARK    6  A    between atoms: C_34  and  N_38 
ROOT
HETATM    1  C   UNL     1      43.890  -9.345   9.795  1.00  0.00    -0.034 A 
HETATM    2  C   UNL     1      43.969 -10.664  10.279  1.00  0.00     0.009 A 
HETATM    3  C   UNL     1      43.563 -10.979  11.577  1.00  0.00     0.002 A 
HETATM    4  C   UNL     1      43.078  -9.980  12.419  1.00  0.00     0.017 A 
HETATM    5  C   UNL     1      43.001  -8.661  11.954  1.00  0.00     0.033 A 
HETATM    6  C   UNL     1      43.382  -8.351  10.645  1.00  0.00     0.026 A 
ENDROOT
BRANCH   1   7
HETATM    7  C   UNL     1      44.346  -9.051   8.374  1.00  0.00     0.120 C 
HETATM    8  N   UNL     1      44.291 -10.208   7.488  1.00  0.00    -0.338 N 
HETATM    9  C   UNL     1      43.076 -10.677   7.008  1.00  0.00     0.274 C 
HETATM   10  C   UNL     1      45.623 -10.666   7.122  1.00  0.00     0.127 C 
HETATM   11  O   UNL     1      42.009 -10.180   7.373  1.00  0.00    -0.266 OA
HETATM   12  C   UNL     1      46.567  -9.908   8.047  1.00  0.00     0.022 C 
HETATM   13  C   UNL     1      45.815  -8.612   8.319  1.00  0.00     0.032 C 
BRANCH   9  14
HETATM   14  C   UNL     1      43.078 -11.802   6.057  1.00  0.00     0.142 A 
HETATM   15  N   UNL     1      43.074 -11.704   4.674  1.00  0.00    -0.224 NA
HETATM   16  C   UNL     1      43.057 -12.940   4.224  1.00  0.00     0.134 A 
HETATM   17  C   UNL     1      43.029 -13.460   2.901  1.00  0.00     0.052 A 
HETATM   18  N   UNL     1      43.058 -13.859   5.266  1.00  0.00    -0.314 N 
HETATM   19  C   UNL     1      43.027 -14.795   2.711  1.00  0.00     0.022 A 
HETATM   20  C   UNL     1      43.068 -15.735   3.832  1.00  0.00     0.047 A 
HETATM   21  C   UNL     1      43.062 -15.239   5.085  1.00  0.00     0.115 A 
HETATM   22  C   UNL     1      43.055 -13.137   6.427  1.00  0.00     0.135 A 
BRANCH  20  23
HETATM   23  C   UNL     1      43.052 -17.203   3.565  1.00  0.00     0.250 C 
HETATM   24  N   UNL     1      43.642 -17.993   4.504  1.00  0.00    -0.366 N 
HETATM   25  H   UNL     1      43.716 -18.978   4.286  1.00  0.00     0.159 HD
HETATM   26  H   UNL     1      44.206 -17.629   5.258  1.00  0.00     0.159 HD
HETATM   27  O   UNL     1      42.587 -17.677   2.537  1.00  0.00    -0.268 OA
ENDBRANCH  20  23
ENDBRANCH   9  14
ENDBRANCH   1   7
BRANCH   5  28
HETATM   28  C   UNL     1      42.510  -7.564  12.830  1.00  0.00     0.257 C 
HETATM   29  O   UNL     1      42.483  -6.427  12.380  1.00  0.00    -0.267 OA
HETATM   30  N   UNL     1      42.171  -7.981  14.094  1.00  0.00    -0.301 N 
HETATM   31  H   UNL     1      42.345  -8.930  14.389  1.00  0.00     0.171 HD
BRANCH  30  32
HETATM   32  C   UNL     1      41.606  -7.153  15.020  1.00  0.00     0.174 A 
HETATM   33  N   UNL     1      42.149  -6.531  16.036  1.00  0.00    -0.228 NA
HETATM   34  C   UNL     1      41.198  -5.736  16.638  1.00  0.00     0.050 A 
HETATM   35  C   UNL     1      41.548  -4.844  17.777  1.00  0.00     0.062 C 
HETATM   36  C   UNL     1      39.955  -5.765  16.045  1.00  0.00     0.013 A 
HETATM   37  C   UNL     1      40.354  -3.984  18.245  1.00  0.00     0.031 C 
HETATM   38  C   UNL     1      39.283  -3.635  17.163  1.00  0.00     0.084 C 
HETATM   39  C   UNL     1      38.795  -4.943  16.469  1.00  0.00     0.073 C 
HETATM   40  S   UNL     1      39.941  -6.861  14.746  1.00  0.00    -0.055 SA
BRANCH  38  41
HETATM   41  N   UNL     1      39.580  -2.458  16.323  1.00  0.00    -0.404 N 
HETATM   42  C   UNL     1      40.959  -2.025  16.074  1.00  0.00     0.143 C 
HETATM   43  C   UNL     1      41.584  -2.585  14.789  1.00  0.00     0.187 C 
HETATM   44  O   UNL     1      40.764  -2.289  13.649  1.00  0.00    -0.388 OA
HETATM   45  C   UNL     1      39.453  -2.837  13.822  1.00  0.00     0.187 C 
HETATM   46  C   UNL     1      38.775  -2.305  15.099  1.00  0.00     0.143 C 
ENDBRANCH  38  41
ENDBRANCH  30  32
ENDBRANCH   5  28
TORSDOF 6
ENDMDL
MODEL 6
REMARK VINA RESULT:      -9.9      2.828     13.565
REMARK  6 active torsions:
REMARK  status: ('A' for Active; 'I' for Inactive)
REMARK       I    between atoms: N_1  and  C_2 
REMARK    1  A    between atoms: C_2  and  C_4 
REMARK    2  A    between atoms: C_9  and  C_13 
REMARK       I    between atoms: C_13  and  N_15 
REMARK    3  A    between atoms: C_19  and  C_20 
REMARK    4  A    between atoms: C_24  and  C_26 
REMARK       I    between atoms: C_26  and  N_28 
REMARK    5  A    between atoms: N_28  and  C_29 
REMARK    6  A    between atoms: C_34  and  N_38 
ROOT
HETATM    1  C   UNL     1      41.404  -8.921   7.988  1.00  0.00    -0.034 A 
HETATM    2  C   UNL     1      40.587  -7.797   7.770  1.00  0.00     0.009 A 
HETATM    3  C   UNL     1      39.793  -7.695   6.626  1.00  0.00     0.002 A 
HETATM    4  C   UNL     1      39.808  -8.712   5.673  1.00  0.00     0.017 A 
HETATM    5  C   UNL     1      40.622  -9.833   5.871  1.00  0.00     0.033 A 
HETATM    6  C   UNL     1      41.396  -9.948   7.030  1.00  0.00     0.026 A 
ENDROOT
BRANCH   1   7
HETATM    7  C   UNL     1      42.252  -8.986   9.249  1.00  0.00     0.120 C 
HETATM    8  N   UNL     1      41.726  -8.189  10.351  1.00  0.00    -0.338 N 
HETATM    9  C   UNL     1      40.616  -8.614  11.068  1.00  0.00     0.274 C 
HETATM   10  C   UNL     1      42.571  -7.037  10.630  1.00  0.00     0.127 C 
HETATM   11  O   UNL     1      40.000  -9.632  10.749  1.00  0.00    -0.266 OA
HETATM   12  C   UNL     1      43.541  -6.969   9.457  1.00  0.00     0.022 C 
HETATM   13  C   UNL     1      43.662  -8.425   9.025  1.00  0.00     0.032 C 
BRANCH   9  14
HETATM   14  C   UNL     1      40.168  -7.812  12.219  1.00  0.00     0.142 A 
HETATM   15  N   UNL     1      40.645  -7.908  13.518  1.00  0.00    -0.224 NA
HETATM   16  C   UNL     1      39.961  -7.031  14.220  1.00  0.00     0.134 A 
HETATM   17  C   UNL     1      39.999  -6.694  15.601  1.00  0.00     0.052 A 
HETATM   18  N   UNL     1      39.050  -6.346  13.427  1.00  0.00    -0.314 N 
HETATM   19  C   UNL     1      39.184  -5.730  16.074  1.00  0.00     0.022 A 
HETATM   20  C   UNL     1      38.262  -5.002  15.202  1.00  0.00     0.047 A 
HETATM   21  C   UNL     1      38.206  -5.345  13.899  1.00  0.00     0.115 A 
HETATM   22  C   UNL     1      39.170  -6.852  12.162  1.00  0.00     0.135 A 
BRANCH  20  23
HETATM   23  C   UNL     1      37.373  -3.952  15.779  1.00  0.00     0.250 C 
HETATM   24  N   UNL     1      36.308  -3.578  15.018  1.00  0.00    -0.366 N 
HETATM   25  H   UNL     1      35.755  -2.803  15.362  1.00  0.00     0.159 HD
HETATM   26  H   UNL     1      36.193  -3.853  14.053  1.00  0.00     0.159 HD
HETATM   27  O   UNL     1      37.609  -3.411  16.851  1.00  0.00    -0.268 OA
ENDBRANCH  20  23
ENDBRANCH   9  14
ENDBRANCH   1   7
BRANCH   5  28
HETATM   28  C   UNL     1      40.682 -10.928   4.867  1.00  0.00     0.257 C 
HETATM   29  O   UNL     1      40.027 -10.813   3.840  1.00  0.00    -0.267 OA
HETATM   30  N   UNL     1      41.469 -11.985   5.254  1.00  0.00    -0.301 N 
HETATM   31  H   UNL     1      41.870 -12.019   6.179  1.00  0.00     0.171 HD
BRANCH  30  32
HETATM   32  C   UNL     1      41.738 -13.045   4.438  1.00  0.00     0.174 A 
HETATM   33  N   UNL     1      42.570 -13.144   3.432  1.00  0.00    -0.228 NA
HETATM   34  C   UNL     1      42.561 -14.440   2.965  1.00  0.00     0.050 A 
HETATM   35  C   UNL     1      43.475 -14.873   1.872  1.00  0.00     0.062 C 
HETATM   36  C   UNL     1      41.727 -15.299   3.646  1.00  0.00     0.013 A 
HETATM   37  C   UNL     1      43.355 -16.380   1.561  1.00  0.00     0.031 C 
HETATM   38  C   UNL     1      42.917 -17.300   2.744  1.00  0.00     0.084 C 
HETATM   39  C   UNL     1      41.601 -16.751   3.373  1.00  0.00     0.073 C 
HETATM   40  S   UNL     1      40.875 -14.464   4.858  1.00  0.00    -0.055 SA
BRANCH  38  41
HETATM   41  N   UNL     1      43.998 -17.747   3.644  1.00  0.00    -0.404 N 
HETATM   42  C   UNL     1      43.951 -17.482   5.085  1.00  0.00     0.143 C 
HETATM   43  C   UNL     1      43.344 -18.613   5.926  1.00  0.00     0.187 C 
HETATM   44  O   UNL     1      44.019 -19.855   5.678  1.00  0.00    -0.388 OA
HETATM   45  C   UNL     1      43.942 -20.195   4.290  1.00  0.00     0.187 C 
HETATM   46  C   UNL     1      44.543 -19.093   3.396  1.00  0.00     0.143 C 
ENDBRANCH  38  41
ENDBRANCH  30  32
ENDBRANCH   5  28
TORSDOF 6
ENDMDL
MODEL 7
REMARK VINA RESULT:      -9.8      3.305     13.534
REMARK  6 active torsions:
REMARK  status: ('A' for Active; 'I' for Inactive)
REMARK       I    between atoms: N_1  and  C_2 
REMARK    1  A    between atoms: C_2  and  C_4 
REMARK    2  A    between atoms: C_9  and  C_13 
REMARK       I    between atoms: C_13  and  N_15 
REMARK    3  A    between atoms: C_19  and  C_20 
REMARK    4  A    between atoms: C_24  and  C_26 
REMARK       I    between atoms: C_26  and  N_28 
REMARK    5  A    between atoms: N_28  and  C_29 
REMARK    6  A    between atoms: C_34  and  N_38 
ROOT
HETATM    1  C   UNL     1      42.488  -9.085  10.320  1.00  0.00    -0.034 A 
HETATM    2  C   UNL     1      43.512  -8.926  11.270  1.00  0.00     0.009 A 
HETATM    3  C   UNL     1      44.777  -9.481  11.065  1.00  0.00     0.002 A 
HETATM    4  C   UNL     1      45.039 -10.213   9.909  1.00  0.00     0.017 A 
HETATM    5  C   UNL     1      44.027 -10.387   8.956  1.00  0.00     0.033 A 
HETATM    6  C   UNL     1      42.769  -9.808   9.149  1.00  0.00     0.026 A 
ENDROOT
BRANCH   1   7
HETATM    7  C   UNL     1      41.126  -8.463  10.588  1.00  0.00     0.120 C 
HETATM    8  N   UNL     1      40.942  -8.027  11.968  1.00  0.00    -0.338 N 
HETATM    9  C   UNL     1      41.566  -6.881  12.439  1.00  0.00     0.274 C 
HETATM   10  C   UNL     1      39.972  -8.858  12.666  1.00  0.00     0.127 C 
HETATM   11  O   UNL     1      42.348  -6.242  11.733  1.00  0.00    -0.266 OA
HETATM   12  C   UNL     1      39.732 -10.045  11.742  1.00  0.00     0.022 C 
HETATM   13  C   UNL     1      39.982  -9.459  10.359  1.00  0.00     0.032 C 
BRANCH   9  14
HETATM   14  C   UNL     1      41.289  -6.441  13.817  1.00  0.00     0.142 A 
HETATM   15  N   UNL     1      40.215  -5.666  14.228  1.00  0.00    -0.224 NA
HETATM   16  C   UNL     1      40.368  -5.495  15.524  1.00  0.00     0.134 A 
HETATM   17  C   UNL     1      39.593  -4.780  16.478  1.00  0.00     0.052 A 
HETATM   18  N   UNL     1      41.507  -6.140  15.989  1.00  0.00    -0.314 N 
HETATM   19  C   UNL     1      39.971  -4.772  17.771  1.00  0.00     0.022 A 
HETATM   20  C   UNL     1      41.156  -5.495  18.234  1.00  0.00     0.047 A 
HETATM   21  C   UNL     1      41.906  -6.146  17.323  1.00  0.00     0.115 A 
HETATM   22  C   UNL     1      42.099  -6.726  14.905  1.00  0.00     0.135 A 
BRANCH  20  23
HETATM   23  C   UNL     1      41.536  -5.444  19.676  1.00  0.00     0.250 C 
HETATM   24  N   UNL     1      40.655  -6.001  20.552  1.00  0.00    -0.366 N 
HETATM   25  H   UNL     1      40.862  -5.888  21.536  1.00  0.00     0.159 HD
HETATM   26  H   UNL     1      39.723  -6.288  20.292  1.00  0.00     0.159 HD
HETATM   27  O   UNL     1      42.553  -4.886  20.066  1.00  0.00    -0.268 OA
ENDBRANCH  20  23
ENDBRANCH   9  14
ENDBRANCH   1   7
BRANCH   5  28
HETATM   28  C   UNL     1      44.262 -11.180   7.721  1.00  0.00     0.257 C 
HETATM   29  O   UNL     1      45.409 -11.297   7.312  1.00  0.00    -0.267 OA
HETATM   30  N   UNL     1      43.109 -11.669   7.156  1.00  0.00    -0.301 N 
HETATM   31  H   UNL     1      42.205 -11.410   7.520  1.00  0.00     0.171 HD
BRANCH  30  32
HETATM   32  C   UNL     1      43.111 -12.503   6.076  1.00  0.00     0.174 A 
HETATM   33  N   UNL     1      42.951 -13.801   6.014  1.00  0.00    -0.228 NA
HETATM   34  C   UNL     1      42.943 -14.192   4.693  1.00  0.00     0.050 A 
HETATM   35  C   UNL     1      42.696 -15.609   4.310  1.00  0.00     0.062 C 
HETATM   36  C   UNL     1      43.082 -13.168   3.782  1.00  0.00     0.013 A 
HETATM   37  C   UNL     1      42.651 -15.810   2.780  1.00  0.00     0.031 C 
HETATM   38  C   UNL     1      42.184 -14.585   1.932  1.00  0.00     0.084 C 
HETATM   39  C   UNL     1      43.034 -13.334   2.309  1.00  0.00     0.073 C 
HETATM   40  S   UNL     1      43.298 -11.685   4.583  1.00  0.00    -0.055 SA
BRANCH  38  41
HETATM   41  N   UNL     1      40.724 -14.428   1.781  1.00  0.00    -0.404 N 
HETATM   42  C   UNL     1      40.082 -13.115   1.886  1.00  0.00     0.143 C 
HETATM   43  C   UNL     1      39.883 -12.390   0.547  1.00  0.00     0.187 C 
HETATM   44  O   UNL     1      39.163 -13.214  -0.380  1.00  0.00    -0.388 OA
HETATM   45  C   UNL     1      39.862 -14.444  -0.600  1.00  0.00     0.187 C 
HETATM   46  C   UNL     1      40.086 -15.218   0.713  1.00  0.00     0.143 C 
ENDBRANCH  38  41
ENDBRANCH  30  32
ENDBRANCH   5  28
TORSDOF 6
ENDMDL
MODEL 8
REMARK VINA RESULT:      -9.7      3.340     13.846
REMARK  6 active torsions:
REMARK  status: ('A' for Active; 'I' for Inactive)
REMARK       I    between atoms: N_1  and  C_2 
REMARK    1  A    between atoms: C_2  and  C_4 
REMARK    2  A    between atoms: C_9  and  C_13 
REMARK       I    between atoms: C_13  and  N_15 
REMARK    3  A    between atoms: C_19  and  C_20 
REMARK    4  A    between atoms: C_24  and  C_26 
REMARK       I    between atoms: C_26  and  N_28 
REMARK    5  A    between atoms: N_28  and  C_29 
REMARK    6  A    between atoms: C_34  and  N_38 
ROOT
HETATM    1  C   UNL     1      42.010  -9.144  10.712  1.00  0.00    -0.034 A 
HETATM    2  C   UNL     1      43.008  -8.732  11.614  1.00  0.00     0.009 A 
HETATM    3  C   UNL     1      44.349  -9.057  11.402  1.00  0.00     0.002 A 
HETATM    4  C   UNL     1      44.717  -9.808  10.287  1.00  0.00     0.017 A 
HETATM    5  C   UNL     1      43.735 -10.232   9.383  1.00  0.00     0.033 A 
HETATM    6  C   UNL     1      42.396  -9.883   9.582  1.00  0.00     0.026 A 
ENDROOT
BRANCH   1   7
HETATM    7  C   UNL     1      40.563  -8.767  10.986  1.00  0.00     0.120 C 
HETATM    8  N   UNL     1      40.395  -7.880  12.132  1.00  0.00    -0.338 N 
HETATM    9  C   UNL     1      40.735  -6.537  12.046  1.00  0.00     0.274 C 
HETATM   10  C   UNL     1      39.743  -8.558  13.243  1.00  0.00     0.127 C 
HETATM   11  O   UNL     1      41.257  -6.073  11.031  1.00  0.00    -0.266 OA
HETATM   12  C   UNL     1      39.742 -10.032  12.857  1.00  0.00     0.022 C 
HETATM   13  C   UNL     1      39.704  -9.989  11.335  1.00  0.00     0.032 C 
BRANCH   9  14
HETATM   14  C   UNL     1      40.477  -5.667  13.206  1.00  0.00     0.142 A 
HETATM   15  N   UNL     1      41.368  -5.381  14.229  1.00  0.00    -0.224 NA
HETATM   16  C   UNL     1      40.725  -4.587  15.057  1.00  0.00     0.134 A 
HETATM   17  C   UNL     1      41.120  -3.987  16.285  1.00  0.00     0.052 A 
HETATM   18  N   UNL     1      39.436  -4.328  14.613  1.00  0.00    -0.314 N 
HETATM   19  C   UNL     1      40.256  -3.190  16.944  1.00  0.00     0.022 A 
HETATM   20  C   UNL     1      38.917  -2.908  16.427  1.00  0.00     0.047 A 
HETATM   21  C   UNL     1      38.535  -3.502  15.280  1.00  0.00     0.115 A 
HETATM   22  C   UNL     1      39.273  -5.024  13.448  1.00  0.00     0.135 A 
BRANCH  20  23
HETATM   23  C   UNL     1      37.996  -2.027  17.204  1.00  0.00     0.250 C 
HETATM   24  N   UNL     1      36.793  -1.756  16.628  1.00  0.00    -0.366 N 
HETATM   25  H   UNL     1      36.202  -1.087  17.106  1.00  0.00     0.159 HD
HETATM   26  H   UNL     1      36.574  -1.984  15.669  1.00  0.00     0.159 HD
HETATM   27  O   UNL     1      38.315  -1.527  18.274  1.00  0.00    -0.268 OA
ENDBRANCH  20  23
ENDBRANCH   9  14
ENDBRANCH   1   7
BRANCH   5  28
HETATM   28  C   UNL     1      44.086 -11.053   8.195  1.00  0.00     0.257 C 
HETATM   29  O   UNL     1      45.265 -11.308   7.990  1.00  0.00    -0.267 OA
HETATM   30  N   UNL     1      43.001 -11.403   7.430  1.00  0.00    -0.301 N 
HETATM   31  H   UNL     1      42.084 -11.036   7.635  1.00  0.00     0.171 HD
BRANCH  30  32
HETATM   32  C   UNL     1      43.092 -12.236   6.353  1.00  0.00     0.174 A 
HETATM   33  N   UNL     1      43.056 -13.544   6.295  1.00  0.00    -0.228 NA
HETATM   34  C   UNL     1      43.099 -13.938   4.975  1.00  0.00     0.050 A 
HETATM   35  C   UNL     1      42.990 -15.373   4.595  1.00  0.00     0.062 C 
HETATM   36  C   UNL     1      43.149 -12.908   4.062  1.00  0.00     0.013 A 
HETATM   37  C   UNL     1      42.980 -15.582   3.065  1.00  0.00     0.031 C 
HETATM   38  C   UNL     1      42.407 -14.408   2.208  1.00  0.00     0.084 C 
HETATM   39  C   UNL     1      43.131 -13.081   2.588  1.00  0.00     0.073 C 
HETATM   40  S   UNL     1      43.216 -11.408   4.859  1.00  0.00    -0.055 SA
BRANCH  38  41
HETATM   41  N   UNL     1      40.941 -14.391   2.043  1.00  0.00    -0.404 N 
HETATM   42  C   UNL     1      40.155 -13.186   2.323  1.00  0.00     0.143 C 
HETATM   43  C   UNL     1      39.889 -12.295   1.101  1.00  0.00     0.187 C 
HETATM   44  O   UNL     1      39.276 -13.045   0.043  1.00  0.00    -0.388 OA
HETATM   45  C   UNL     1      40.110 -14.145  -0.337  1.00  0.00     0.187 C 
HETATM   46  C   UNL     1      40.406 -15.077   0.854  1.00  0.00     0.143 C 
ENDBRANCH  38  41
ENDBRANCH  30  32
ENDBRANCH   5  28
TORSDOF 6
ENDMDL
MODEL 9
REMARK VINA RESULT:      -9.6      5.505     10.610
REMARK  6 active torsions:
REMARK  status: ('A' for Active; 'I' for Inactive)
REMARK       I    between atoms: N_1  and  C_2 
REMARK    1  A    between atoms: C_2  and  C_4 
REMARK    2  A    between atoms: C_9  and  C_13 
REMARK       I    between atoms: C_13  and  N_15 
REMARK    3  A    between atoms: C_19  and  C_20 
REMARK    4  A    between atoms: C_24  and  C_26 
REMARK       I    between atoms: C_26  and  N_28 
REMARK    5  A    between atoms: N_28  and  C_29 
REMARK    6  A    between atoms: C_34  and  N_38 
ROOT
HETATM    1  C   UNL     1      41.120  -8.744   6.332  1.00  0.00    -0.034 A 
HETATM    2  C   UNL     1      41.550  -7.658   7.116  1.00  0.00     0.009 A 
HETATM    3  C   UNL     1      41.753  -6.398   6.551  1.00  0.00     0.002 A 
HETATM    4  C   UNL     1      41.538  -6.201   5.189  1.00  0.00     0.017 A 
HETATM    5  C   UNL     1      41.117  -7.273   4.393  1.00  0.00     0.033 A 
HETATM    6  C   UNL     1      40.888  -8.529   4.964  1.00  0.00     0.026 A 
ENDROOT
BRANCH   1   7
HETATM    7  C   UNL     1      40.915 -10.098   6.992  1.00  0.00     0.120 C 
HETATM    8  N   UNL     1      41.171 -11.228   6.106  1.00  0.00    -0.338 N 
HETATM    9  C   UNL     1      42.468 -11.583   5.765  1.00  0.00     0.274 C 
HETATM   10  C   UNL     1      39.943 -11.937   5.775  1.00  0.00     0.127 C 
HETATM   11  O   UNL     1      43.434 -10.914   6.138  1.00  0.00    -0.266 OA
HETATM   12  C   UNL     1      38.822 -11.035   6.275  1.00  0.00     0.022 C 
HETATM   13  C   UNL     1      39.465 -10.305   7.447  1.00  0.00     0.032 C 
BRANCH   9  14
HETATM   14  C   UNL     1      42.678 -12.777   4.928  1.00  0.00     0.142 A 
HETATM   15  N   UNL     1      42.745 -12.803   3.544  1.00  0.00    -0.224 NA
HETATM   16  C   UNL     1      42.921 -14.064   3.214  1.00  0.00     0.134 A 
HETATM   17  C   UNL     1      43.042 -14.699   1.947  1.00  0.00     0.052 A 
HETATM   18  N   UNL     1      42.983 -14.878   4.338  1.00  0.00    -0.314 N 
HETATM   19  C   UNL     1      43.232 -16.032   1.886  1.00  0.00     0.022 A 
HETATM   20  C   UNL     1      43.331 -16.855   3.093  1.00  0.00     0.047 A 
HETATM   21  C   UNL     1      43.183 -16.255   4.291  1.00  0.00     0.115 A 
HETATM   22  C   UNL     1      42.813 -14.064   5.423  1.00  0.00     0.135 A 
BRANCH  20  23
HETATM   23  C   UNL     1      43.528 -18.328   2.968  1.00  0.00     0.250 C 
HETATM   24  N   UNL     1      44.295 -18.917   3.927  1.00  0.00    -0.366 N 
HETATM   25  H   UNL     1      44.509 -19.898   3.797  1.00  0.00     0.159 HD
HETATM   26  H   UNL     1      44.844 -18.395   4.595  1.00  0.00     0.159 HD
HETATM   27  O   UNL     1      43.077 -18.973   2.031  1.00  0.00    -0.268 OA
ENDBRANCH  20  23
ENDBRANCH   9  14
ENDBRANCH   1   7
BRANCH   5  28
HETATM   28  C   UNL     1      40.899  -7.107   2.931  1.00  0.00     0.257 C 
HETATM   29  O   UNL     1      40.935  -5.979   2.461  1.00  0.00    -0.267 OA
HETATM   30  N   UNL     1      40.638  -8.287   2.279  1.00  0.00    -0.301 N 
HETATM   31  H   UNL     1      40.519  -9.147   2.793  1.00  0.00     0.171 HD
BRANCH  30  32
HETATM   32  C   UNL     1      40.508  -8.370   0.923  1.00  0.00     0.174 A 
HETATM   33  N   UNL     1      41.418  -8.316  -0.016  1.00  0.00    -0.228 NA
HETATM   34  C   UNL     1      40.821  -8.533  -1.238  1.00  0.00     0.050 A 
HETATM   35  C   UNL     1      41.625  -8.611  -2.488  1.00  0.00     0.062 C 
HETATM   36  C   UNL     1      39.463  -8.763  -1.189  1.00  0.00     0.013 A 
HETATM   37  C   UNL     1      40.765  -8.939  -3.727  1.00  0.00     0.031 C 
HETATM   38  C   UNL     1      39.470  -9.775  -3.472  1.00  0.00     0.084 C 
HETATM   39  C   UNL     1      38.617  -9.090  -2.362  1.00  0.00     0.073 C 
HETATM   40  S   UNL     1      38.896  -8.640   0.409  1.00  0.00    -0.055 SA
BRANCH  38  41
HETATM   41  N   UNL     1      39.651 -11.238  -3.423  1.00  0.00    -0.404 N 
HETATM   42  C   UNL     1      40.926 -11.837  -3.018  1.00  0.00     0.143 C 
HETATM   43  C   UNL     1      41.025 -12.189  -1.527  1.00  0.00     0.187 C 
HETATM   44  O   UNL     1      39.938 -13.035  -1.127  1.00  0.00    -0.388 OA
HETATM   45  C   UNL     1      38.685 -12.392  -1.386  1.00  0.00     0.187 C 
HETATM   46  C   UNL     1      38.530 -12.020  -2.873  1.00  0.00     0.143 C 
ENDBRANCH  38  41
ENDBRANCH  30  32
ENDBRANCH   5  28
TORSDOF 6
ENDMDL
MODEL 10
REMARK VINA RESULT:      -9.4      3.719     13.999
REMARK  6 active torsions:
REMARK  status: ('A' for Active; 'I' for Inactive)
REMARK       I    between atoms: N_1  and  C_2 
REMARK    1  A    between atoms: C_2  and  C_4 
REMARK    2  A    between atoms: C_9  and  C_13 
REMARK       I    between atoms: C_13  and  N_15 
REMARK    3  A    between atoms: C_19  and  C_20 
REMARK    4  A    between atoms: C_24  and  C_26 
REMARK       I    between atoms: C_26  and  N_28 
REMARK    5  A    between atoms: N_28  and  C_29 
REMARK    6  A    between atoms: C_34  and  N_38 
ROOT
HETATM    1  C   UNL     1      40.204  -7.277  12.510  1.00  0.00    -0.034 A 
HETATM    2  C   UNL     1      39.600  -8.423  13.059  1.00  0.00     0.009 A 
HETATM    3  C   UNL     1      39.660  -9.653  12.401  1.00  0.00     0.002 A 
HETATM    4  C   UNL     1      40.317  -9.758  11.177  1.00  0.00     0.017 A 
HETATM    5  C   UNL     1      40.917  -8.625  10.614  1.00  0.00     0.033 A 
HETATM    6  C   UNL     1      40.880  -7.400  11.286  1.00  0.00     0.026 A 
ENDROOT
BRANCH   1   7
HETATM    7  C   UNL     1      40.111  -5.959  13.264  1.00  0.00     0.120 C 
HETATM    8  N   UNL     1      39.935  -6.118  14.703  1.00  0.00    -0.338 N 
HETATM    9  C   UNL     1      40.993  -6.511  15.509  1.00  0.00     0.274 C 
HETATM   10  C   UNL     1      38.606  -5.701  15.128  1.00  0.00     0.127 C 
HETATM   11  O   UNL     1      42.088  -6.810  15.027  1.00  0.00    -0.266 OA
HETATM   12  C   UNL     1      37.819  -5.520  13.836  1.00  0.00     0.022 C 
HETATM   13  C   UNL     1      38.894  -5.132  12.830  1.00  0.00     0.032 C 
BRANCH   9  14
HETATM   14  C   UNL     1      40.785  -6.584  16.965  1.00  0.00     0.142 A 
HETATM   15  N   UNL     1      40.833  -5.520  17.853  1.00  0.00    -0.224 NA
HETATM   16  C   UNL     1      40.612  -6.033  19.044  1.00  0.00     0.134 A 
HETATM   17  C   UNL     1      40.560  -5.433  20.333  1.00  0.00     0.052 A 
HETATM   18  N   UNL     1      40.409  -7.405  18.976  1.00  0.00    -0.314 N 
HETATM   19  C   UNL     1      40.299  -6.197  21.412  1.00  0.00     0.022 A 
HETATM   20  C   UNL     1      40.052  -7.636  21.299  1.00  0.00     0.047 A 
HETATM   21  C   UNL     1      40.133  -8.206  20.080  1.00  0.00     0.115 A 
HETATM   22  C   UNL     1      40.534  -7.757  17.660  1.00  0.00     0.135 A 
BRANCH  20  23
HETATM   23  C   UNL     1      39.780  -8.437  22.528  1.00  0.00     0.250 C 
HETATM   24  N   UNL     1      40.819  -9.172  23.010  1.00  0.00    -0.366 N 
HETATM   25  H   UNL     1      40.616  -9.788  23.788  1.00  0.00     0.159 HD
HETATM   26  H   UNL     1      41.679  -9.317  22.501  1.00  0.00     0.159 HD
HETATM   27  O   UNL     1      38.674  -8.481  23.049  1.00  0.00    -0.268 OA
ENDBRANCH  20  23
ENDBRANCH   9  14
ENDBRANCH   1   7
BRANCH   5  28
HETATM   28  C   UNL     1      41.608  -8.693   9.299  1.00  0.00     0.257 C 
HETATM   29  O   UNL     1      42.434  -7.832   9.030  1.00  0.00    -0.267 OA
HETATM   30  N   UNL     1      41.185  -9.735   8.510  1.00  0.00    -0.301 N 
HETATM   31  H   UNL     1      40.411 -10.317   8.793  1.00  0.00     0.171 HD
BRANCH  30  32
HETATM   32  C   UNL     1      41.761 -10.035   7.310  1.00  0.00     0.174 A 
HETATM   33  N   UNL     1      42.852 -10.708   7.043  1.00  0.00    -0.228 NA
HETATM   34  C   UNL     1      42.986 -10.826   5.677  1.00  0.00     0.050 A 
HETATM   35  C   UNL     1      44.096 -11.615   5.076  1.00  0.00     0.062 C 
HETATM   36  C   UNL     1      41.975 -10.249   4.940  1.00  0.00     0.013 A 
HETATM   37  C   UNL     1      44.010 -11.683   3.536  1.00  0.00     0.031 C 
HETATM   38  C   UNL     1      42.581 -11.580   2.916  1.00  0.00     0.084 C 
HETATM   39  C   UNL     1      41.864 -10.308   3.462  1.00  0.00     0.073 C 
HETATM   40  S   UNL     1      40.859  -9.477   5.964  1.00  0.00    -0.055 SA
BRANCH  38  41
HETATM   41  N   UNL     1      41.821 -12.843   2.842  1.00  0.00    -0.404 N 
HETATM   42  C   UNL     1      42.500 -14.141   2.798  1.00  0.00     0.143 C 
HETATM   43  C   UNL     1      42.687 -14.814   4.166  1.00  0.00     0.187 C 
HETATM   44  O   UNL     1      41.433 -14.940   4.851  1.00  0.00    -0.388 OA
HETATM   45  C   UNL     1      40.830 -13.653   5.027  1.00  0.00     0.187 C 
HETATM   46  C   UNL     1      40.614 -12.933   3.682  1.00  0.00     0.143 C 
ENDBRANCH  38  41
ENDBRANCH  30  32
ENDBRANCH   5  28
TORSDOF 6
ENDMDL
