MODEL 1
REMARK VINA RESULT:      -9.2      0.000      0.000
REMARK  6 active torsions:
REMARK  status: ('A' for Active; 'I' for Inactive)
REMARK    1  A    between atoms: C_2  and  O_3 
REMARK    2  A    between atoms: O_3  and  C_4 
REMARK    3  A    between atoms: C_5  and  O_6 
REMARK    4  A    between atoms: O_6  and  C_7 
REMARK    5  A    between atoms: C_7  and  C_8 
REMARK    6  A    between atoms: C_18  and  C_19 
ROOT
HETATM    1  C   UNL     1      42.590 -11.052   6.363  1.00  0.00     0.103 A 
HETATM    2  C   UNL     1      43.135 -12.305   6.078  1.00  0.00     0.112 A 
HETATM    3  C   UNL     1      44.454 -12.610   6.405  1.00  0.00     0.041 A 
HETATM    4  C   UNL     1      45.204 -11.690   7.137  1.00  0.00     0.014 A 
HETATM    5  C   UNL     1      44.643 -10.463   7.552  1.00  0.00    -0.013 A 
HETATM    6  C   UNL     1      43.342 -10.143   7.111  1.00  0.00     0.050 A 
ENDROOT
BRANCH   5   7
HETATM    7  C   UNL     1      45.431  -9.575   8.515  1.00  0.00     0.219 C 
HETATM    8  N   UNL     1      45.005  -8.195   8.542  1.00  0.00    -0.332 N 
HETATM    9  C   UNL     1      43.903  -7.772   9.245  1.00  0.00     0.256 C 
HETATM   10  H   UNL     1      45.302  -7.587   7.795  1.00  0.00     0.165 HD
HETATM   11  O   UNL     1      43.363  -6.697   9.015  1.00  0.00    -0.267 OA
HETATM   12  C   UNL     1      43.418  -8.701  10.251  1.00  0.00     0.073 A 
HETATM   13  C   UNL     1      44.176  -9.814  10.533  1.00  0.00     0.088 A 
HETATM   14  C   UNL     1      42.214  -8.675  11.019  1.00  0.00    -0.023 A 
HETATM   15  S   UNL     1      43.495 -10.788  11.744  1.00  0.00    -0.074 SA
HETATM   16  N   UNL     1      45.327 -10.095   9.875  1.00  0.00    -0.358 N 
HETATM   17  C   UNL     1      42.136  -9.769  11.863  1.00  0.00     0.018 A 
HETATM   18  C   UNL     1      40.988 -10.084  12.756  1.00  0.00     0.281 C 
HETATM   19  N   UNL     1      40.068  -8.879  12.927  1.00  0.00    -0.070 N 
HETATM   20  C   UNL     1      39.824  -8.166  11.598  1.00  0.00     0.239 C 
HETATM   21  H   UNL     1      39.161  -9.259  13.225  1.00  0.00     0.279 HD
HETATM   22  C   UNL     1      40.522  -7.959  14.022  1.00  0.00     0.270 C 
HETATM   23  C   UNL     1      41.127  -7.643  10.968  1.00  0.00     0.068 C 
HETATM   24  H   UNL     1      45.710 -11.029   9.991  1.00  0.00     0.162 HD
ENDBRANCH   5   7
BRANCH   1  25
HETATM   25  O   UNL     1      41.303 -10.818   5.956  1.00  0.00    -0.349 OA
BRANCH  25  26
HETATM   26  C   UNL     1      40.506 -10.083   6.888  1.00  0.00     0.171 C 
HETATM   27  C   UNL     1      39.207 -10.840   7.096  1.00  0.00     0.034 C 
ENDBRANCH  25  26
ENDBRANCH   1  25
BRANCH   2  28
HETATM   28  O   UNL     1      42.338 -13.252   5.433  1.00  0.00    -0.272 OA
BRANCH  28  29
HETATM   29  C   UNL     1      42.684 -13.366   4.101  1.00  0.00     0.298 C 
HETATM   30  O   UNL     1      42.814 -12.476   3.272  1.00  0.00    -0.259 OA
BRANCH  29  31
HETATM   31  C   UNL     1      42.857 -14.797   3.767  1.00  0.00     0.040 A 
HETATM   32  C   UNL     1      43.028 -15.155   2.424  1.00  0.00     0.019 A 
HETATM   33  C   UNL     1      43.257 -16.490   2.081  1.00  0.00     0.020 A 
HETATM   34  C   UNL     1      43.331 -17.457   3.084  1.00  0.00     0.011 A 
HETATM   35 BR   UNL     1      43.672 -19.258   2.623  1.00  0.00    -0.051 Br
HETATM   36  C   UNL     1      43.170 -17.105   4.425  1.00  0.00     0.020 A 
HETATM   37  C   UNL     1      42.931 -15.773   4.770  1.00  0.00     0.019 A 
ENDBRANCH  29  31
ENDBRANCH  28  29
ENDBRANCH   2  28
TORSDOF 6
ENDMDL
MODEL 2
REMARK VINA RESULT:      -9.0      2.160      3.487
REMARK  6 active torsions:
REMARK  status: ('A' for Active; 'I' for Inactive)
REMARK    1  A    between atoms: C_2  and  O_3 
REMARK    2  A    between atoms: O_3  and  C_4 
REMARK    3  A    between atoms: C_5  and  O_6 
REMARK    4  A    between atoms: O_6  and  C_7 
REMARK    5  A    between atoms: C_7  and  C_8 
REMARK    6  A    between atoms: C_18  and  C_19 
ROOT
HETATM    1  C   UNL     1      43.365 -12.179   6.194  1.00  0.00     0.103 A 
HETATM    2  C   UNL     1      42.694 -13.172   5.479  1.00  0.00     0.112 A 
HETATM    3  C   UNL     1      41.328 -13.083   5.226  1.00  0.00     0.041 A 
HETATM    4  C   UNL     1      40.643 -11.924   5.590  1.00  0.00     0.014 A 
HETATM    5  C   UNL     1      41.316 -10.846   6.204  1.00  0.00    -0.013 A 
HETATM    6  C   UNL     1      42.675 -11.015   6.541  1.00  0.00     0.050 A 
ENDROOT
BRANCH   5   7
HETATM    7  C   UNL     1      40.572  -9.525   6.405  1.00  0.00     0.219 C 
HETATM    8  N   UNL     1      39.433  -9.609   7.290  1.00  0.00    -0.332 N 
HETATM    9  C   UNL     1      39.555  -9.609   8.658  1.00  0.00     0.256 C 
HETATM   10  H   UNL     1      38.575  -9.996   6.931  1.00  0.00     0.165 HD
HETATM   11  O   UNL     1      38.650  -9.997   9.388  1.00  0.00    -0.267 OA
HETATM   12  C   UNL     1      40.835  -9.146   9.164  1.00  0.00     0.073 A 
HETATM   13  C   UNL     1      41.730  -8.597   8.276  1.00  0.00     0.088 A 
HETATM   14  C   UNL     1      41.367  -9.189  10.490  1.00  0.00    -0.023 A 
HETATM   15  S   UNL     1      43.166  -8.079   9.018  1.00  0.00    -0.074 SA
HETATM   16  N   UNL     1      41.478  -8.518   6.947  1.00  0.00    -0.358 N 
HETATM   17  C   UNL     1      42.639  -8.646  10.535  1.00  0.00     0.018 A 
HETATM   18  C   UNL     1      43.505  -8.589  11.744  1.00  0.00     0.281 C 
HETATM   19  N   UNL     1      42.704  -8.848  13.016  1.00  0.00    -0.070 N 
HETATM   20  C   UNL     1      41.725 -10.007  12.837  1.00  0.00     0.239 C 
HETATM   21  H   UNL     1      43.388  -9.150  13.722  1.00  0.00     0.279 HD
HETATM   22  C   UNL     1      42.061  -7.604  13.556  1.00  0.00     0.270 C 
HETATM   23  C   UNL     1      40.704  -9.742  11.716  1.00  0.00     0.068 C 
HETATM   24  H   UNL     1      42.262  -8.298   6.340  1.00  0.00     0.162 HD
ENDBRANCH   5   7
BRANCH   1  25
HETATM   25  O   UNL     1      44.697 -12.376   6.447  1.00  0.00    -0.349 OA
BRANCH  25  26
HETATM   26  C   UNL     1      45.530 -11.246   6.169  1.00  0.00     0.171 C 
HETATM   27  C   UNL     1      46.141 -10.781   7.479  1.00  0.00     0.034 C 
ENDBRANCH  25  26
ENDBRANCH   1  25
BRANCH   2  28
HETATM   28  O   UNL     1      43.417 -14.280   5.034  1.00  0.00    -0.272 OA
BRANCH  28  29
HETATM   29  C   UNL     1      43.101 -15.405   5.769  1.00  0.00     0.298 C 
HETATM   30  O   UNL     1      42.797 -15.478   6.952  1.00  0.00    -0.259 OA
BRANCH  29  31
HETATM   31  C   UNL     1      43.215 -16.599   4.902  1.00  0.00     0.040 A 
HETATM   32  C   UNL     1      42.661 -16.550   3.617  1.00  0.00     0.019 A 
HETATM   33  C   UNL     1      42.807 -17.637   2.752  1.00  0.00     0.020 A 
HETATM   34  C   UNL     1      43.520 -18.760   3.169  1.00  0.00     0.011 A 
HETATM   35 BR   UNL     1      43.744 -20.218   1.988  1.00  0.00    -0.051 Br
HETATM   36  C   UNL     1      44.082 -18.812   4.446  1.00  0.00     0.020 A 
HETATM   37  C   UNL     1      43.929 -17.732   5.317  1.00  0.00     0.019 A 
ENDBRANCH  29  31
ENDBRANCH  28  29
ENDBRANCH   2  28
TORSDOF 6
ENDMDL
MODEL 3
REMARK VINA RESULT:      -8.4      2.134      3.298
REMARK  6 active torsions:
REMARK  status: ('A' for Active; 'I' for Inactive)
REMARK    1  A    between atoms: C_2  and  O_3 
REMARK    2  A    between atoms: O_3  and  C_4 
REMARK    3  A    between atoms: C_5  and  O_6 
REMARK    4  A    between atoms: O_6  and  C_7 
REMARK    5  A    between atoms: C_7  and  C_8 
REMARK    6  A    between atoms: C_18  and  C_19 
ROOT
HETATM    1  C   UNL     1      41.892 -12.516   5.884  1.00  0.00     0.103 A 
HETATM    2  C   UNL     1      40.675 -13.068   5.485  1.00  0.00     0.112 A 
HETATM    3  C   UNL     1      39.481 -12.367   5.632  1.00  0.00     0.041 A 
HETATM    4  C   UNL     1      39.519 -11.044   6.074  1.00  0.00     0.014 A 
HETATM    5  C   UNL     1      40.746 -10.412   6.367  1.00  0.00    -0.013 A 
HETATM    6  C   UNL     1      41.924 -11.186   6.310  1.00  0.00     0.050 A 
ENDROOT
BRANCH   5   7
HETATM    7  C   UNL     1      40.757  -8.911   6.657  1.00  0.00     0.219 C 
HETATM    8  N   UNL     1      39.584  -8.427   7.348  1.00  0.00    -0.332 N 
HETATM    9  C   UNL     1      39.412  -8.564   8.704  1.00  0.00     0.256 C 
HETATM   10  H   UNL     1      38.740  -8.281   6.817  1.00  0.00     0.165 HD
HETATM   11  O   UNL     1      38.311  -8.453   9.231  1.00  0.00    -0.267 OA
HETATM   12  C   UNL     1      40.618  -8.876   9.451  1.00  0.00     0.073 A 
HETATM   13  C   UNL     1      41.825  -8.836   8.791  1.00  0.00     0.088 A 
HETATM   14  C   UNL     1      40.776  -9.264  10.817  1.00  0.00    -0.023 A 
HETATM   15  S   UNL     1      43.141  -9.197   9.800  1.00  0.00    -0.074 SA
HETATM   16  N   UNL     1      41.920  -8.566   7.467  1.00  0.00    -0.358 N 
HETATM   17  C   UNL     1      42.108  -9.479  11.124  1.00  0.00     0.018 A 
HETATM   18  C   UNL     1      42.621  -9.953  12.438  1.00  0.00     0.281 C 
HETATM   19  N   UNL     1      41.563  -9.817  13.530  1.00  0.00    -0.070 N 
HETATM   20  C   UNL     1      40.190 -10.272  13.042  1.00  0.00     0.239 C 
HETATM   21  H   UNL     1      41.841 -10.471  14.272  1.00  0.00     0.279 HD
HETATM   22  C   UNL     1      41.552  -8.451  14.153  1.00  0.00     0.270 C 
HETATM   23  C   UNL     1      39.695  -9.447  11.839  1.00  0.00     0.068 C 
HETATM   24  H   UNL     1      42.809  -8.761   7.018  1.00  0.00     0.162 HD
ENDBRANCH   5   7
BRANCH   1  25
HETATM   25  O   UNL     1      43.010 -13.298   5.756  1.00  0.00    -0.349 OA
BRANCH  25  26
HETATM   26  C   UNL     1      43.689 -13.576   6.984  1.00  0.00     0.171 C 
HETATM   27  C   UNL     1      43.130 -14.870   7.547  1.00  0.00     0.034 C 
ENDBRANCH  25  26
ENDBRANCH   1  25
BRANCH   2  28
HETATM   28  O   UNL     1      40.667 -14.357   4.950  1.00  0.00    -0.272 OA
BRANCH  28  29
HETATM   29  C   UNL     1      41.064 -14.347   3.628  1.00  0.00     0.298 C 
HETATM   30  O   UNL     1      40.856 -13.491   2.779  1.00  0.00    -0.259 OA
BRANCH  29  31
HETATM   31  C   UNL     1      41.795 -15.600   3.332  1.00  0.00     0.040 A 
HETATM   32  C   UNL     1      42.363 -16.311   4.395  1.00  0.00     0.019 A 
HETATM   33  C   UNL     1      43.005 -17.529   4.157  1.00  0.00     0.020 A 
HETATM   34  C   UNL     1      43.060 -18.037   2.859  1.00  0.00     0.011 A 
HETATM   35 BR   UNL     1      43.901 -19.700   2.541  1.00  0.00    -0.051 Br
HETATM   36  C   UNL     1      42.489 -17.337   1.796  1.00  0.00     0.020 A 
HETATM   37  C   UNL     1      41.856 -16.114   2.029  1.00  0.00     0.019 A 
ENDBRANCH  29  31
ENDBRANCH  28  29
ENDBRANCH   2  28
TORSDOF 6
ENDMDL
MODEL 4
REMARK VINA RESULT:      -8.4      1.919      2.682
REMARK  6 active torsions:
REMARK  status: ('A' for Active; 'I' for Inactive)
REMARK    1  A    between atoms: C_2  and  O_3 
REMARK    2  A    between atoms: O_3  and  C_4 
REMARK    3  A    between atoms: C_5  and  O_6 
REMARK    4  A    between atoms: O_6  and  C_7 
REMARK    5  A    between atoms: C_7  and  C_8 
REMARK    6  A    between atoms: C_18  and  C_19 
ROOT
HETATM    1  C   UNL     1      41.541 -13.166   5.833  1.00  0.00     0.103 A 
HETATM    2  C   UNL     1      42.345 -14.086   6.506  1.00  0.00     0.112 A 
HETATM    3  C   UNL     1      43.560 -13.707   7.071  1.00  0.00     0.041 A 
HETATM    4  C   UNL     1      43.921 -12.359   7.067  1.00  0.00     0.014 A 
HETATM    5  C   UNL     1      43.071 -11.383   6.504  1.00  0.00    -0.013 A 
HETATM    6  C   UNL     1      41.901 -11.817   5.847  1.00  0.00     0.050 A 
ENDROOT
BRANCH   5   7
HETATM    7  C   UNL     1      43.412  -9.904   6.696  1.00  0.00     0.219 C 
HETATM    8  N   UNL     1      42.264  -9.029   6.754  1.00  0.00    -0.332 N 
HETATM    9  C   UNL     1      41.504  -8.876   7.888  1.00  0.00     0.256 C 
HETATM   10  H   UNL     1      41.810  -8.775   5.891  1.00  0.00     0.165 HD
HETATM   11  O   UNL     1      40.374  -8.403   7.851  1.00  0.00    -0.267 OA
HETATM   12  C   UNL     1      42.127  -9.339   9.116  1.00  0.00     0.073 A 
HETATM   13  C   UNL     1      43.448  -9.719   9.076  1.00  0.00     0.088 A 
HETATM   14  C   UNL     1      41.569  -9.506  10.421  1.00  0.00    -0.023 A 
HETATM   15  S   UNL     1      44.041 -10.210  10.589  1.00  0.00    -0.074 SA
HETATM   16  N   UNL     1      44.169  -9.721   7.929  1.00  0.00    -0.358 N 
HETATM   17  C   UNL     1      42.515  -9.987  11.310  1.00  0.00     0.018 A 
HETATM   18  C   UNL     1      42.256 -10.332  12.734  1.00  0.00     0.281 C 
HETATM   19  N   UNL     1      40.933  -9.745  13.218  1.00  0.00    -0.070 N 
HETATM   20  C   UNL     1      39.827  -9.924  12.181  1.00  0.00     0.239 C 
HETATM   21  H   UNL     1      40.661 -10.305  14.035  1.00  0.00     0.279 HD
HETATM   22  C   UNL     1      41.073  -8.331  13.703  1.00  0.00     0.270 C 
HETATM   23  C   UNL     1      40.159  -9.229  10.847  1.00  0.00     0.068 C 
HETATM   24  H   UNL     1      45.060 -10.208   7.943  1.00  0.00     0.162 HD
ENDBRANCH   5   7
BRANCH   1  25
HETATM   25  O   UNL     1      40.390 -13.638   5.259  1.00  0.00    -0.349 OA
BRANCH  25  26
HETATM   26  C   UNL     1      39.493 -12.624   4.797  1.00  0.00     0.171 C 
HETATM   27  C   UNL     1      39.304 -12.809   3.303  1.00  0.00     0.034 C 
ENDBRANCH  25  26
ENDBRANCH   1  25
BRANCH   2  28
HETATM   28  O   UNL     1      41.920 -15.414   6.589  1.00  0.00    -0.272 OA
BRANCH  28  29
HETATM   29  C   UNL     1      42.978 -16.255   6.870  1.00  0.00     0.298 C 
HETATM   30  O   UNL     1      43.657 -16.307   7.887  1.00  0.00    -0.259 OA
BRANCH  29  31
HETATM   31  C   UNL     1      43.231 -17.124   5.699  1.00  0.00     0.040 A 
HETATM   32  C   UNL     1      43.725 -18.416   5.918  1.00  0.00     0.019 A 
HETATM   33  C   UNL     1      43.914 -19.283   4.839  1.00  0.00     0.020 A 
HETATM   34  C   UNL     1      43.593 -18.859   3.549  1.00  0.00     0.011 A 
HETATM   35 BR   UNL     1      43.820 -20.042   2.093  1.00  0.00    -0.051 Br
HETATM   36  C   UNL     1      43.093 -17.576   3.326  1.00  0.00     0.020 A 
HETATM   37  C   UNL     1      42.912 -16.703   4.401  1.00  0.00     0.019 A 
ENDBRANCH  29  31
ENDBRANCH  28  29
ENDBRANCH   2  28
TORSDOF 6
ENDMDL
MODEL 5
REMARK VINA RESULT:      -8.4      7.837     10.375
REMARK  6 active torsions:
REMARK  status: ('A' for Active; 'I' for Inactive)
REMARK    1  A    between atoms: C_2  and  O_3 
REMARK    2  A    between atoms: O_3  and  C_4 
REMARK    3  A    between atoms: C_5  and  O_6 
REMARK    4  A    between atoms: O_6  and  C_7 
REMARK    5  A    between atoms: C_7  and  C_8 
REMARK    6  A    between atoms: C_18  and  C_19 
ROOT
HETATM    1  C   UNL     1      41.119 -13.311   1.174  1.00  0.00     0.103 A 
HETATM    2  C   UNL     1      41.191 -14.564   1.784  1.00  0.00     0.112 A 
HETATM    3  C   UNL     1      40.404 -15.626   1.348  1.00  0.00     0.041 A 
HETATM    4  C   UNL     1      39.618 -15.468   0.207  1.00  0.00     0.014 A 
HETATM    5  C   UNL     1      39.616 -14.251  -0.509  1.00  0.00    -0.013 A 
HETATM    6  C   UNL     1      40.342 -13.165   0.022  1.00  0.00     0.050 A 
ENDROOT
BRANCH   5   7
HETATM    7  C   UNL     1      38.898 -14.185  -1.857  1.00  0.00     0.219 C 
HETATM    8  N   UNL     1      37.675 -13.416  -1.847  1.00  0.00    -0.332 N 
HETATM    9  C   UNL     1      37.661 -12.044  -1.909  1.00  0.00     0.256 C 
HETATM   10  H   UNL     1      36.844 -13.841  -1.466  1.00  0.00     0.165 HD
HETATM   11  O   UNL     1      36.677 -11.392  -1.582  1.00  0.00    -0.267 OA
HETATM   12  C   UNL     1      38.899 -11.434  -2.363  1.00  0.00     0.073 A 
HETATM   13  C   UNL     1      39.894 -12.253  -2.844  1.00  0.00     0.088 A 
HETATM   14  C   UNL     1      39.296 -10.061  -2.369  1.00  0.00    -0.023 A 
HETATM   15  S   UNL     1      41.265 -11.395  -3.359  1.00  0.00    -0.074 SA
HETATM   16  N   UNL     1      39.777 -13.602  -2.866  1.00  0.00    -0.358 N 
HETATM   17  C   UNL     1      40.574  -9.914  -2.880  1.00  0.00     0.018 A 
HETATM   18  C   UNL     1      41.318  -8.628  -2.973  1.00  0.00     0.281 C 
HETATM   19  N   UNL     1      40.387  -7.432  -2.796  1.00  0.00    -0.070 N 
HETATM   20  C   UNL     1      39.395  -7.655  -1.657  1.00  0.00     0.239 C 
HETATM   21  H   UNL     1      40.988  -6.649  -2.512  1.00  0.00     0.279 HD
HETATM   22  C   UNL     1      39.733  -7.017  -4.082  1.00  0.00     0.270 C 
HETATM   23  C   UNL     1      38.498  -8.884  -1.895  1.00  0.00     0.068 C 
HETATM   24  H   UNL     1      40.624 -14.137  -3.035  1.00  0.00     0.162 HD
ENDBRANCH   5   7
BRANCH   1  25
HETATM   25  O   UNL     1      41.887 -12.308   1.703  1.00  0.00    -0.349 OA
BRANCH  25  26
HETATM   26  C   UNL     1      41.146 -11.214   2.251  1.00  0.00     0.171 C 
HETATM   27  C   UNL     1      41.356 -10.008   1.353  1.00  0.00     0.034 C 
ENDBRANCH  25  26
ENDBRANCH   1  25
BRANCH   2  28
HETATM   28  O   UNL     1      42.059 -14.734   2.864  1.00  0.00    -0.272 OA
BRANCH  28  29
HETATM   29  C   UNL     1      43.250 -15.300   2.457  1.00  0.00     0.298 C 
HETATM   30  O   UNL     1      44.052 -14.875   1.637  1.00  0.00    -0.259 OA
BRANCH  29  31
HETATM   31  C   UNL     1      43.437 -16.591   3.157  1.00  0.00     0.040 A 
HETATM   32  C   UNL     1      43.436 -17.769   2.401  1.00  0.00     0.019 A 
HETATM   33  C   UNL     1      43.673 -18.998   3.023  1.00  0.00     0.020 A 
HETATM   34  C   UNL     1      43.926 -19.040   4.394  1.00  0.00     0.011 A 
HETATM   35 BR   UNL     1      44.277 -20.698   5.230  1.00  0.00    -0.051 Br
HETATM   36  C   UNL     1      43.936 -17.868   5.152  1.00  0.00     0.020 A 
HETATM   37  C   UNL     1      43.690 -16.639   4.535  1.00  0.00     0.019 A 
ENDBRANCH  29  31
ENDBRANCH  28  29
ENDBRANCH   2  28
TORSDOF 6
ENDMDL
MODEL 6
REMARK VINA RESULT:      -8.4      6.172      8.705
REMARK  6 active torsions:
REMARK  status: ('A' for Active; 'I' for Inactive)
REMARK    1  A    between atoms: C_2  and  O_3 
REMARK    2  A    between atoms: O_3  and  C_4 
REMARK    3  A    between atoms: C_5  and  O_6 
REMARK    4  A    between atoms: O_6  and  C_7 
REMARK    5  A    between atoms: C_7  and  C_8 
REMARK    6  A    between atoms: C_18  and  C_19 
ROOT
HETATM    1  C   UNL     1      41.136 -13.272   3.955  1.00  0.00     0.103 A 
HETATM    2  C   UNL     1      42.488 -13.255   3.610  1.00  0.00     0.112 A 
HETATM    3  C   UNL     1      43.052 -12.166   2.951  1.00  0.00     0.041 A 
HETATM    4  C   UNL     1      42.280 -11.023   2.742  1.00  0.00     0.014 A 
HETATM    5  C   UNL     1      40.944 -10.958   3.192  1.00  0.00    -0.013 A 
HETATM    6  C   UNL     1      40.374 -12.117   3.757  1.00  0.00     0.050 A 
ENDROOT
BRANCH   5   7
HETATM    7  C   UNL     1      40.201  -9.623   3.118  1.00  0.00     0.219 C 
HETATM    8  N   UNL     1      40.777  -8.667   2.201  1.00  0.00    -0.332 N 
HETATM    9  C   UNL     1      40.568  -8.720   0.844  1.00  0.00     0.256 C 
HETATM   10  H   UNL     1      41.594  -8.155   2.493  1.00  0.00     0.165 HD
HETATM   11  O   UNL     1      41.293  -8.129   0.054  1.00  0.00    -0.267 OA
HETATM   12  C   UNL     1      39.448  -9.545   0.425  1.00  0.00     0.073 A 
HETATM   13  C   UNL     1      38.608 -10.049   1.391  1.00  0.00     0.088 A 
HETATM   14  C   UNL     1      39.062  -9.971  -0.884  1.00  0.00    -0.023 A 
HETATM   15  S   UNL     1      37.336 -10.969   0.746  1.00  0.00    -0.074 SA
HETATM   16  N   UNL     1      38.816  -9.843   2.713  1.00  0.00    -0.358 N 
HETATM   17  C   UNL     1      37.929 -10.764  -0.837  1.00  0.00     0.018 A 
HETATM   18  C   UNL     1      37.295 -11.425  -2.009  1.00  0.00     0.281 C 
HETATM   19  N   UNL     1      37.800 -10.835  -3.322  1.00  0.00    -0.070 N 
HETATM   20  C   UNL     1      39.312 -10.620  -3.297  1.00  0.00     0.239 C 
HETATM   21  H   UNL     1      37.618 -11.548  -4.039  1.00  0.00     0.279 HD
HETATM   22  C   UNL     1      37.032  -9.613  -3.738  1.00  0.00     0.270 C 
HETATM   23  C   UNL     1      39.746  -9.654  -2.180  1.00  0.00     0.068 C 
HETATM   24  H   UNL     1      38.282 -10.415   3.361  1.00  0.00     0.162 HD
ENDBRANCH   5   7
BRANCH   1  25
HETATM   25  O   UNL     1      40.652 -14.407   4.550  1.00  0.00    -0.349 OA
BRANCH  25  26
HETATM   26  C   UNL     1      40.493 -14.318   5.969  1.00  0.00     0.171 C 
HETATM   27  C   UNL     1      40.223 -15.714   6.500  1.00  0.00     0.034 C 
ENDBRANCH  25  26
ENDBRANCH   1  25
BRANCH   2  28
HETATM   28  O   UNL     1      43.271 -14.369   3.917  1.00  0.00    -0.272 OA
BRANCH  28  29
HETATM   29  C   UNL     1      43.233 -15.298   2.896  1.00  0.00     0.298 C 
HETATM   30  O   UNL     1      43.063 -15.104   1.700  1.00  0.00    -0.259 OA
BRANCH  29  31
HETATM   31  C   UNL     1      43.401 -16.653   3.467  1.00  0.00     0.040 A 
HETATM   32  C   UNL     1      43.537 -17.737   2.592  1.00  0.00     0.019 A 
HETATM   33  C   UNL     1      43.760 -19.019   3.098  1.00  0.00     0.020 A 
HETATM   34  C   UNL     1      43.862 -19.209   4.477  1.00  0.00     0.011 A 
HETATM   35 BR   UNL     1      44.195 -20.939   5.161  1.00  0.00    -0.051 Br
HETATM   36  C   UNL     1      43.736 -18.131   5.354  1.00  0.00     0.020 A 
HETATM   37  C   UNL     1      43.502 -16.849   4.851  1.00  0.00     0.019 A 
ENDBRANCH  29  31
ENDBRANCH  28  29
ENDBRANCH   2  28
TORSDOF 6
ENDMDL
MODEL 7
REMARK VINA RESULT:      -8.2      4.300      9.215
REMARK  6 active torsions:
REMARK  status: ('A' for Active; 'I' for Inactive)
REMARK    1  A    between atoms: C_2  and  O_3 
REMARK    2  A    between atoms: O_3  and  C_4 
REMARK    3  A    between atoms: C_5  and  O_6 
REMARK    4  A    between atoms: O_6  and  C_7 
REMARK    5  A    between atoms: C_7  and  C_8 
REMARK    6  A    between atoms: C_18  and  C_19 
ROOT
HETATM    1  C   UNL     1      42.771 -11.193   6.851  1.00  0.00     0.103 A 
HETATM    2  C   UNL     1      42.528  -9.841   6.608  1.00  0.00     0.112 A 
HETATM    3  C   UNL     1      41.425  -9.427   5.865  1.00  0.00     0.041 A 
HETATM    4  C   UNL     1      40.483 -10.373   5.461  1.00  0.00     0.014 A 
HETATM    5  C   UNL     1      40.633 -11.735   5.798  1.00  0.00    -0.013 A 
HETATM    6  C   UNL     1      41.815 -12.133   6.457  1.00  0.00     0.050 A 
ENDROOT
BRANCH   5   7
HETATM    7  C   UNL     1      39.484 -12.702   5.506  1.00  0.00     0.219 C 
HETATM    8  N   UNL     1      39.166 -12.847   4.104  1.00  0.00    -0.332 N 
HETATM    9  C   UNL     1      39.893 -13.646   3.256  1.00  0.00     0.256 C 
HETATM   10  H   UNL     1      38.622 -12.124   3.659  1.00  0.00     0.165 HD
HETATM   11  O   UNL     1      39.830 -13.523   2.039  1.00  0.00    -0.267 OA
HETATM   12  C   UNL     1      40.752 -14.618   3.910  1.00  0.00     0.073 A 
HETATM   13  C   UNL     1      40.643 -14.776   5.272  1.00  0.00     0.088 A 
HETATM   14  C   UNL     1      41.765 -15.463   3.359  1.00  0.00    -0.023 A 
HETATM   15  S   UNL     1      41.691 -15.963   5.885  1.00  0.00    -0.074 SA
HETATM   16  N   UNL     1      39.802 -14.028   6.025  1.00  0.00    -0.358 N 
HETATM   17  C   UNL     1      42.357 -16.237   4.342  1.00  0.00     0.018 A 
HETATM   18  C   UNL     1      43.488 -17.179   4.126  1.00  0.00     0.281 C 
HETATM   19  N   UNL     1      43.681 -17.488   2.644  1.00  0.00    -0.070 N 
HETATM   20  C   UNL     1      43.569 -16.228   1.788  1.00  0.00     0.239 C 
HETATM   21  H   UNL     1      44.649 -17.820   2.551  1.00  0.00     0.279 HD
HETATM   22  C   UNL     1      42.803 -18.610   2.171  1.00  0.00     0.270 C 
HETATM   23  C   UNL     1      42.193 -15.550   1.925  1.00  0.00     0.068 C 
HETATM   24  H   UNL     1      39.932 -14.058   7.032  1.00  0.00     0.162 HD
ENDBRANCH   5   7
BRANCH   1  25
HETATM   25  O   UNL     1      43.910 -11.514   7.542  1.00  0.00    -0.349 OA
BRANCH  25  26
HETATM   26  C   UNL     1      44.869 -12.269   6.796  1.00  0.00     0.171 C 
HETATM   27  C   UNL     1      45.895 -11.301   6.236  1.00  0.00     0.034 C 
ENDBRANCH  25  26
ENDBRANCH   1  25
BRANCH   2  28
HETATM   28  O   UNL     1      43.428  -8.898   7.107  1.00  0.00    -0.272 OA
BRANCH  28  29
HETATM   29  C   UNL     1      42.765  -7.872   7.749  1.00  0.00     0.298 C 
HETATM   30  O   UNL     1      42.391  -6.803   7.287  1.00  0.00    -0.259 OA
BRANCH  29  31
HETATM   31  C   UNL     1      42.578  -8.232   9.173  1.00  0.00     0.040 A 
HETATM   32  C   UNL     1      43.712  -8.484   9.955  1.00  0.00     0.019 A 
HETATM   33  C   UNL     1      43.573  -8.764  11.316  1.00  0.00     0.020 A 
HETATM   34  C   UNL     1      42.302  -8.775  11.892  1.00  0.00     0.011 A 
HETATM   35 BR   UNL     1      42.116  -9.124  13.740  1.00  0.00    -0.051 Br
HETATM   36  C   UNL     1      41.169  -8.517  11.120  1.00  0.00     0.020 A 
HETATM   37  C   UNL     1      41.304  -8.247   9.756  1.00  0.00     0.019 A 
ENDBRANCH  29  31
ENDBRANCH  28  29
ENDBRANCH   2  28
TORSDOF 6
ENDMDL
MODEL 8
REMARK VINA RESULT:      -8.1      5.228      8.194
REMARK  6 active torsions:
REMARK  status: ('A' for Active; 'I' for Inactive)
REMARK    1  A    between atoms: C_2  and  O_3 
REMARK    2  A    between atoms: O_3  and  C_4 
REMARK    3  A    between atoms: C_5  and  O_6 
REMARK    4  A    between atoms: O_6  and  C_7 
REMARK    5  A    between atoms: C_7  and  C_8 
REMARK    6  A    between atoms: C_18  and  C_19 
ROOT
HETATM    1  C   UNL     1      41.284 -12.019   5.463  1.00  0.00     0.103 A 
HETATM    2  C   UNL     1      41.199 -13.194   4.714  1.00  0.00     0.112 A 
HETATM    3  C   UNL     1      40.142 -13.414   3.835  1.00  0.00     0.041 A 
HETATM    4  C   UNL     1      39.218 -12.393   3.610  1.00  0.00     0.014 A 
HETATM    5  C   UNL     1      39.346 -11.145   4.257  1.00  0.00    -0.013 A 
HETATM    6  C   UNL     1      40.365 -10.995   5.220  1.00  0.00     0.050 A 
ENDROOT
BRANCH   5   7
HETATM    7  C   UNL     1      38.431  -9.995   3.835  1.00  0.00     0.219 C 
HETATM    8  N   UNL     1      39.099  -8.722   3.692  1.00  0.00    -0.332 N 
HETATM    9  C   UNL     1      39.831  -8.388   2.578  1.00  0.00     0.256 C 
HETATM   10  H   UNL     1      39.314  -8.197   4.525  1.00  0.00     0.165 HD
HETATM   11  O   UNL     1      40.643  -7.471   2.589  1.00  0.00    -0.267 OA
HETATM   12  C   UNL     1      39.588  -9.216   1.409  1.00  0.00     0.073 A 
HETATM   13  C   UNL     1      38.556 -10.124   1.454  1.00  0.00     0.088 A 
HETATM   14  C   UNL     1      40.290  -9.276   0.166  1.00  0.00    -0.023 A 
HETATM   15  S   UNL     1      38.381 -10.997   0.009  1.00  0.00    -0.074 SA
HETATM   16  N   UNL     1      37.794 -10.304   2.559  1.00  0.00    -0.358 N 
HETATM   17  C   UNL     1      39.731 -10.220  -0.678  1.00  0.00     0.018 A 
HETATM   18  C   UNL     1      40.252 -10.582  -2.024  1.00  0.00     0.281 C 
HETATM   19  N   UNL     1      41.242  -9.541  -2.537  1.00  0.00    -0.070 N 
HETATM   20  C   UNL     1      42.211  -9.099  -1.443  1.00  0.00     0.239 C 
HETATM   21  H   UNL     1      41.806 -10.019  -3.251  1.00  0.00     0.279 HD
HETATM   22  C   UNL     1      40.564  -8.395  -3.231  1.00  0.00     0.270 C 
HETATM   23  C   UNL     1      41.485  -8.467  -0.241  1.00  0.00     0.068 C 
HETATM   24  H   UNL     1      37.200 -11.127   2.583  1.00  0.00     0.162 HD
ENDBRANCH   5   7
BRANCH   1  25
HETATM   25  O   UNL     1      42.326 -11.910   6.345  1.00  0.00    -0.349 OA
BRANCH  25  26
HETATM   26  C   UNL     1      43.440 -11.152   5.863  1.00  0.00     0.171 C 
HETATM   27  C   UNL     1      44.709 -11.795   6.390  1.00  0.00     0.034 C 
ENDBRANCH  25  26
ENDBRANCH   1  25
BRANCH   2  28
HETATM   28  O   UNL     1      42.187 -14.165   4.876  1.00  0.00    -0.272 OA
BRANCH  28  29
HETATM   29  C   UNL     1      42.990 -14.247   3.756  1.00  0.00     0.298 C 
HETATM   30  O   UNL     1      43.470 -13.334   3.098  1.00  0.00    -0.259 OA
BRANCH  29  31
HETATM   31  C   UNL     1      43.184 -15.671   3.402  1.00  0.00     0.040 A 
HETATM   32  C   UNL     1      43.602 -16.559   4.400  1.00  0.00     0.019 A 
HETATM   33  C   UNL     1      43.733 -17.920   4.114  1.00  0.00     0.020 A 
HETATM   34  C   UNL     1      43.431 -18.388   2.835  1.00  0.00     0.011 A 
HETATM   35 BR   UNL     1      43.579 -20.234   2.456  1.00  0.00    -0.051 Br
HETATM   36  C   UNL     1      43.006 -17.509   1.838  1.00  0.00     0.020 A 
HETATM   37  C   UNL     1      42.883 -16.147   2.118  1.00  0.00     0.019 A 
ENDBRANCH  29  31
ENDBRANCH  28  29
ENDBRANCH   2  28
TORSDOF 6
ENDMDL
MODEL 9
REMARK VINA RESULT:      -8.0      7.517     10.673
REMARK  6 active torsions:
REMARK  status: ('A' for Active; 'I' for Inactive)
REMARK    1  A    between atoms: C_2  and  O_3 
REMARK    2  A    between atoms: O_3  and  C_4 
REMARK    3  A    between atoms: C_5  and  O_6 
REMARK    4  A    between atoms: O_6  and  C_7 
REMARK    5  A    between atoms: C_7  and  C_8 
REMARK    6  A    between atoms: C_18  and  C_19 
ROOT
HETATM    1  C   UNL     1      40.840 -12.839   1.398  1.00  0.00     0.103 A 
HETATM    2  C   UNL     1      40.684 -13.887   2.306  1.00  0.00     0.112 A 
HETATM    3  C   UNL     1      40.101 -15.093   1.924  1.00  0.00     0.041 A 
HETATM    4  C   UNL     1      39.780 -15.298   0.582  1.00  0.00     0.014 A 
HETATM    5  C   UNL     1      40.040 -14.306  -0.386  1.00  0.00    -0.013 A 
HETATM    6  C   UNL     1      40.531 -13.058   0.054  1.00  0.00     0.050 A 
ENDROOT
BRANCH   5   7
HETATM    7  C   UNL     1      39.856 -14.646  -1.866  1.00  0.00     0.219 C 
HETATM    8  N   UNL     1      38.485 -14.609  -2.321  1.00  0.00    -0.332 N 
HETATM    9  C   UNL     1      37.838 -13.439  -2.634  1.00  0.00     0.256 C 
HETATM   10  H   UNL     1      37.887 -15.391  -2.104  1.00  0.00     0.165 HD
HETATM   11  O   UNL     1      36.616 -13.374  -2.705  1.00  0.00    -0.267 OA
HETATM   12  C   UNL     1      38.704 -12.292  -2.846  1.00  0.00     0.073 A 
HETATM   13  C   UNL     1      40.063 -12.498  -2.887  1.00  0.00     0.088 A 
HETATM   14  C   UNL     1      38.375 -10.910  -2.997  1.00  0.00    -0.023 A 
HETATM   15  S   UNL     1      40.939 -11.071  -3.166  1.00  0.00    -0.074 SA
HETATM   16  N   UNL     1      40.620 -13.717  -2.692  1.00  0.00    -0.358 N 
HETATM   17  C   UNL     1      39.513 -10.141  -3.167  1.00  0.00     0.018 A 
HETATM   18  C   UNL     1      39.536  -8.659  -3.292  1.00  0.00     0.281 C 
HETATM   19  N   UNL     1      38.147  -8.103  -3.591  1.00  0.00    -0.070 N 
HETATM   20  C   UNL     1      37.076  -8.776  -2.735  1.00  0.00     0.239 C 
HETATM   21  H   UNL     1      38.173  -7.116  -3.304  1.00  0.00     0.279 HD
HETATM   22  C   UNL     1      37.828  -8.108  -5.057  1.00  0.00     0.270 C 
HETATM   23  C   UNL     1      37.007 -10.295  -2.974  1.00  0.00     0.068 C 
HETATM   24  H   UNL     1      41.622 -13.748  -2.530  1.00  0.00     0.162 HD
ENDBRANCH   5   7
BRANCH   1  25
HETATM   25  O   UNL     1      41.371 -11.669   1.874  1.00  0.00    -0.349 OA
BRANCH  25  26
HETATM   26  C   UNL     1      40.548 -10.516   1.674  1.00  0.00     0.171 C 
HETATM   27  C   UNL     1      39.419 -10.562   2.687  1.00  0.00     0.034 C 
ENDBRANCH  25  26
ENDBRANCH   1  25
BRANCH   2  28
HETATM   28  O   UNL     1      41.104 -13.701   3.624  1.00  0.00    -0.272 OA
BRANCH  28  29
HETATM   29  C   UNL     1      42.473 -13.845   3.732  1.00  0.00     0.298 C 
HETATM   30  O   UNL     1      43.307 -12.990   3.995  1.00  0.00    -0.259 OA
BRANCH  29  31
HETATM   31  C   UNL     1      42.837 -15.249   3.437  1.00  0.00     0.040 A 
HETATM   32  C   UNL     1      42.664 -16.211   4.439  1.00  0.00     0.019 A 
HETATM   33  C   UNL     1      42.939 -17.554   4.172  1.00  0.00     0.020 A 
HETATM   34  C   UNL     1      43.369 -17.930   2.899  1.00  0.00     0.011 A 
HETATM   35 BR   UNL     1      43.712 -19.752   2.529  1.00  0.00    -0.051 Br
HETATM   36  C   UNL     1      43.536 -16.977   1.894  1.00  0.00     0.020 A 
HETATM   37  C   UNL     1      43.272 -15.632   2.160  1.00  0.00     0.019 A 
ENDBRANCH  29  31
ENDBRANCH  28  29
ENDBRANCH   2  28
TORSDOF 6
ENDMDL
MODEL 10
REMARK VINA RESULT:      -8.0      6.754      9.506
REMARK  6 active torsions:
REMARK  status: ('A' for Active; 'I' for Inactive)
REMARK    1  A    between atoms: C_2  and  O_3 
REMARK    2  A    between atoms: O_3  and  C_4 
REMARK    3  A    between atoms: C_5  and  O_6 
REMARK    4  A    between atoms: O_6  and  C_7 
REMARK    5  A    between atoms: C_7  and  C_8 
REMARK    6  A    between atoms: C_18  and  C_19 
ROOT
HETATM    1  C   UNL     1      40.335 -13.443   2.569  1.00  0.00     0.103 A 
HETATM    2  C   UNL     1      40.616 -14.719   3.060  1.00  0.00     0.112 A 
HETATM    3  C   UNL     1      40.419 -15.853   2.278  1.00  0.00     0.041 A 
HETATM    4  C   UNL     1      40.049 -15.703   0.941  1.00  0.00     0.014 A 
HETATM    5  C   UNL     1      39.878 -14.421   0.376  1.00  0.00    -0.013 A 
HETATM    6  C   UNL     1      39.981 -13.299   1.225  1.00  0.00     0.050 A 
ENDROOT
BRANCH   5   7
HETATM    7  C   UNL     1      39.667 -14.298  -1.133  1.00  0.00     0.219 C 
HETATM    8  N   UNL     1      38.362 -13.812  -1.518  1.00  0.00    -0.332 N 
HETATM    9  C   UNL     1      38.026 -12.481  -1.485  1.00  0.00     0.256 C 
HETATM   10  H   UNL     1      37.586 -14.456  -1.498  1.00  0.00     0.165 HD
HETATM   11  O   UNL     1      36.859 -12.108  -1.495  1.00  0.00    -0.267 OA
HETATM   12  C   UNL     1      39.149 -11.562  -1.409  1.00  0.00     0.073 A 
HETATM   13  C   UNL     1      40.420 -12.070  -1.549  1.00  0.00     0.088 A 
HETATM   14  C   UNL     1      39.167 -10.153  -1.174  1.00  0.00    -0.023 A 
HETATM   15  S   UNL     1      41.622 -10.875  -1.464  1.00  0.00    -0.074 SA
HETATM   16  N   UNL     1      40.660 -13.394  -1.706  1.00  0.00    -0.358 N 
HETATM   17  C   UNL     1      40.461  -9.664  -1.169  1.00  0.00     0.018 A 
HETATM   18  C   UNL     1      40.845  -8.253  -0.893  1.00  0.00     0.281 C 
HETATM   19  N   UNL     1      39.641  -7.320  -0.986  1.00  0.00    -0.070 N 
HETATM   20  C   UNL     1      38.412  -7.920  -0.307  1.00  0.00     0.239 C 
HETATM   21  H   UNL     1      39.893  -6.483  -0.447  1.00  0.00     0.279 HD
HETATM   22  C   UNL     1      39.380  -6.856  -2.389  1.00  0.00     0.270 C 
HETATM   23  C   UNL     1      37.987  -9.257  -0.942  1.00  0.00     0.068 C 
HETATM   24  H   UNL     1      41.619 -13.708  -1.591  1.00  0.00     0.162 HD
ENDBRANCH   5   7
BRANCH   1  25
HETATM   25  O   UNL     1      40.504 -12.388   3.426  1.00  0.00    -0.349 OA
BRANCH  25  26
HETATM   26  C   UNL     1      40.830 -11.148   2.790  1.00  0.00     0.171 C 
HETATM   27  C   UNL     1      42.016 -10.544   3.519  1.00  0.00     0.034 C 
ENDBRANCH  25  26
ENDBRANCH   1  25
BRANCH   2  28
HETATM   28  O   UNL     1      41.082 -14.845   4.370  1.00  0.00    -0.272 OA
BRANCH  28  29
HETATM   29  C   UNL     1      42.461 -14.815   4.409  1.00  0.00     0.298 C 
HETATM   30  O   UNL     1      43.203 -13.850   4.284  1.00  0.00    -0.259 OA
BRANCH  29  31
HETATM   31  C   UNL     1      42.971 -16.191   4.601  1.00  0.00     0.040 A 
HETATM   32  C   UNL     1      42.797 -16.802   5.848  1.00  0.00     0.019 A 
HETATM   33  C   UNL     1      43.209 -18.123   6.042  1.00  0.00     0.020 A 
HETATM   34  C   UNL     1      43.779 -18.830   4.983  1.00  0.00     0.011 A 
HETATM   35 BR   UNL     1      44.310 -20.627   5.237  1.00  0.00    -0.051 Br
HETATM   36  C   UNL     1      43.948 -18.229   3.735  1.00  0.00     0.020 A 
HETATM   37  C   UNL     1      43.546 -16.906   3.541  1.00  0.00     0.019 A 
ENDBRANCH  29  31
ENDBRANCH  28  29
ENDBRANCH   2  28
TORSDOF 6
ENDMDL
