MODEL 1
REMARK VINA RESULT:      -8.1      0.000      0.000
REMARK  7 active torsions:
REMARK  status: ('A' for Active; 'I' for Inactive)
REMARK    1  A    between atoms: C_2  and  O_3 
REMARK    2  A    between atoms: O_3  and  C_4 
REMARK    3  A    between atoms: C_7  and  N_8 
REMARK    4  A    between atoms: N_8  and  C_9 
REMARK    5  A    between atoms: C_9  and  C_10 
REMARK       I    between atoms: C_10  and  N_11 
REMARK    6  A    between atoms: N_11  and  N_12 
REMARK    7  A    between atoms: C_13  and  C_14 
ROOT
HETATM    1  C   UNL     1      44.324 -11.103   8.237  1.00  0.00     0.255 C 
HETATM    2  N   UNL     1      43.417 -11.867   7.498  1.00  0.00    -0.246 N 
HETATM    3  O   UNL     1      45.548 -11.218   8.199  1.00  0.00    -0.270 OA
HETATM    4  H   UNL     1      42.451 -11.882   7.811  1.00  0.00     0.192 HD
ENDROOT
BRANCH   2   5
HETATM    5  N   UNL     1      43.771 -12.995   6.789  1.00  0.00    -0.184 NA
HETATM    6  C   UNL     1      42.824 -13.816   6.456  1.00  0.00     0.153 C 
BRANCH   6   7
HETATM    7  C   UNL     1      43.113 -14.976   5.629  1.00  0.00     0.018 A 
HETATM    8  C   UNL     1      43.080 -15.111   4.200  1.00  0.00     0.004 A 
HETATM    9  C   UNL     1      43.410 -16.433   3.898  1.00  0.00     0.043 A 
HETATM   10  C   UNL     1      42.791 -14.240   3.127  1.00  0.00     0.014 A 
HETATM   11  C   UNL     1      43.465 -16.926   2.588  1.00  0.00     0.030 A 
HETATM   12  N   UNL     1      43.641 -17.076   5.089  1.00  0.00    -0.358 N 
HETATM   13  C   UNL     1      43.172 -16.040   1.547  1.00  0.00     0.002 A 
HETATM   14  C   UNL     1      42.840 -14.714   1.811  1.00  0.00     0.001 A 
HETATM   15  H   UNL     1      43.894 -18.051   5.166  1.00  0.00     0.166 HD
HETATM   16  C   UNL     1      43.464 -16.218   6.145  1.00  0.00     0.018 A 
HETATM   17  C   UNL     1      43.639 -16.677   7.548  1.00  0.00     0.069 C 
ENDBRANCH   6   7
ENDBRANCH   2   5
BRANCH   1  18
HETATM   18  C   UNL     1      43.635 -10.069   9.133  1.00  0.00     0.224 C 
BRANCH  18  19
HETATM   19  N   UNL     1      43.201 -10.673  10.392  1.00  0.00    -0.381 N 
HETATM   20  H   UNL     1      43.627 -11.568  10.618  1.00  0.00     0.160 HD
BRANCH  19  21
HETATM   21  C   UNL     1      42.896  -9.889  11.500  1.00  0.00     0.028 A 
HETATM   22  C   UNL     1      41.982 -10.264  12.490  1.00  0.00     0.032 A 
HETATM   23  C   UNL     1      41.784  -9.488  13.642  1.00  0.00     0.039 A 
HETATM   24  C   UNL     1      42.522  -8.325  13.841  1.00  0.00     0.068 A 
HETATM   25  C   UNL     1      43.446  -7.944  12.871  1.00  0.00     0.039 A 
HETATM   26  C   UNL     1      43.639  -8.723  11.723  1.00  0.00     0.032 A 
BRANCH  24  27
HETATM   27  O   UNL     1      42.441  -7.494  14.923  1.00  0.00    -0.352 OA
BRANCH  27  28
HETATM   28  C   UNL     1      41.149  -7.314  15.503  1.00  0.00     0.171 C 
HETATM   29  C   UNL     1      41.267  -7.551  16.998  1.00  0.00     0.034 C 
ENDBRANCH  27  28
ENDBRANCH  24  27
ENDBRANCH  19  21
ENDBRANCH  18  19
ENDBRANCH   1  18
TORSDOF 7
ENDMDL
MODEL 2
REMARK VINA RESULT:      -8.1      3.725      5.744
REMARK  7 active torsions:
REMARK  status: ('A' for Active; 'I' for Inactive)
REMARK    1  A    between atoms: C_2  and  O_3 
REMARK    2  A    between atoms: O_3  and  C_4 
REMARK    3  A    between atoms: C_7  and  N_8 
REMARK    4  A    between atoms: N_8  and  C_9 
REMARK    5  A    between atoms: C_9  and  C_10 
REMARK       I    between atoms: C_10  and  N_11 
REMARK    6  A    between atoms: N_11  and  N_12 
REMARK    7  A    between atoms: C_13  and  C_14 
ROOT
HETATM    1  C   UNL     1      42.044 -13.447   2.679  1.00  0.00     0.255 C 
HETATM    2  N   UNL     1      41.887 -14.032   3.939  1.00  0.00    -0.246 N 
HETATM    3  O   UNL     1      42.170 -14.061   1.621  1.00  0.00    -0.270 OA
HETATM    4  H   UNL     1      42.074 -13.452   4.752  1.00  0.00     0.192 HD
ENDROOT
BRANCH   2   5
HETATM    5  N   UNL     1      42.068 -15.376   4.183  1.00  0.00    -0.184 NA
HETATM    6  C   UNL     1      43.272 -15.783   4.440  1.00  0.00     0.153 C 
BRANCH   6   7
HETATM    7  C   UNL     1      43.521 -17.170   4.797  1.00  0.00     0.018 A 
HETATM    8  C   UNL     1      43.607 -18.329   3.954  1.00  0.00     0.004 A 
HETATM    9  C   UNL     1      43.833 -19.430   4.780  1.00  0.00     0.043 A 
HETATM   10  C   UNL     1      43.505 -18.555   2.564  1.00  0.00     0.014 A 
HETATM   11  C   UNL     1      43.960 -20.737   4.293  1.00  0.00     0.030 A 
HETATM   12  N   UNL     1      43.889 -18.965   6.071  1.00  0.00    -0.358 N 
HETATM   13  C   UNL     1      43.852 -20.929   2.912  1.00  0.00     0.002 A 
HETATM   14  C   UNL     1      43.629 -19.854   2.057  1.00  0.00     0.001 A 
HETATM   15  H   UNL     1      44.037 -19.553   6.878  1.00  0.00     0.166 HD
HETATM   16  C   UNL     1      43.700 -17.606   6.105  1.00  0.00     0.018 A 
HETATM   17  C   UNL     1      43.699 -16.860   7.390  1.00  0.00     0.069 C 
ENDBRANCH   6   7
ENDBRANCH   2   5
BRANCH   1  18
HETATM   18  C   UNL     1      42.045 -11.917   2.732  1.00  0.00     0.224 C 
BRANCH  18  19
HETATM   19  N   UNL     1      43.311 -11.412   3.261  1.00  0.00    -0.381 N 
HETATM   20  H   UNL     1      43.786 -10.726   2.679  1.00  0.00     0.160 HD
BRANCH  19  21
HETATM   21  C   UNL     1      43.501 -11.232   4.628  1.00  0.00     0.028 A 
HETATM   22  C   UNL     1      42.483 -10.858   5.511  1.00  0.00     0.032 A 
HETATM   23  C   UNL     1      42.698 -10.791   6.896  1.00  0.00     0.039 A 
HETATM   24  C   UNL     1      43.939 -11.124   7.431  1.00  0.00     0.068 A 
HETATM   25  C   UNL     1      44.959 -11.512   6.567  1.00  0.00     0.039 A 
HETATM   26  C   UNL     1      44.739 -11.578   5.185  1.00  0.00     0.032 A 
BRANCH  24  27
HETATM   27  O   UNL     1      44.272 -11.121   8.757  1.00  0.00    -0.352 OA
BRANCH  27  28
HETATM   28  C   UNL     1      45.403 -10.336   9.135  1.00  0.00     0.171 C 
HETATM   29  C   UNL     1      45.091  -9.668  10.463  1.00  0.00     0.034 C 
ENDBRANCH  27  28
ENDBRANCH  24  27
ENDBRANCH  19  21
ENDBRANCH  18  19
ENDBRANCH   1  18
TORSDOF 7
ENDMDL
MODEL 3
REMARK VINA RESULT:      -8.1      7.172     11.402
REMARK  7 active torsions:
REMARK  status: ('A' for Active; 'I' for Inactive)
REMARK    1  A    between atoms: C_2  and  O_3 
REMARK    2  A    between atoms: O_3  and  C_4 
REMARK    3  A    between atoms: C_7  and  N_8 
REMARK    4  A    between atoms: N_8  and  C_9 
REMARK    5  A    between atoms: C_9  and  C_10 
REMARK       I    between atoms: C_10  and  N_11 
REMARK    6  A    between atoms: N_11  and  N_12 
REMARK    7  A    between atoms: C_13  and  C_14 
ROOT
HETATM    1  C   UNL     1      41.873 -13.036   1.839  1.00  0.00     0.255 C 
HETATM    2  N   UNL     1      42.727 -14.065   1.431  1.00  0.00    -0.246 N 
HETATM    3  O   UNL     1      41.698 -12.676   3.002  1.00  0.00    -0.270 OA
HETATM    4  H   UNL     1      42.583 -14.456   0.505  1.00  0.00     0.192 HD
ENDROOT
BRANCH   2   5
HETATM    5  N   UNL     1      43.323 -14.950   2.302  1.00  0.00    -0.184 NA
HETATM    6  C   UNL     1      42.579 -15.881   2.815  1.00  0.00     0.153 C 
BRANCH   6   7
HETATM    7  C   UNL     1      43.161 -16.903   3.668  1.00  0.00     0.018 A 
HETATM    8  C   UNL     1      43.396 -18.294   3.398  1.00  0.00     0.004 A 
HETATM    9  C   UNL     1      43.950 -18.855   4.549  1.00  0.00     0.043 A 
HETATM   10  C   UNL     1      43.182 -19.140   2.288  1.00  0.00     0.014 A 
HETATM   11  C   UNL     1      44.297 -20.209   4.648  1.00  0.00     0.030 A 
HETATM   12  N   UNL     1      44.056 -17.851   5.480  1.00  0.00    -0.358 N 
HETATM   13  C   UNL     1      44.071 -21.021   3.533  1.00  0.00     0.002 A 
HETATM   14  C   UNL     1      43.522 -20.495   2.367  1.00  0.00     0.001 A 
HETATM   15  H   UNL     1      44.422 -17.980   6.412  1.00  0.00     0.166 HD
HETATM   16  C   UNL     1      43.584 -16.667   4.971  1.00  0.00     0.018 A 
HETATM   17  C   UNL     1      43.574 -15.427   5.790  1.00  0.00     0.069 C 
ENDBRANCH   6   7
ENDBRANCH   2   5
BRANCH   1  18
HETATM   18  C   UNL     1      41.147 -12.370   0.667  1.00  0.00     0.224 C 
BRANCH  18  19
HETATM   19  N   UNL     1      40.998 -13.299  -0.453  1.00  0.00    -0.381 N 
HETATM   20  H   UNL     1      41.375 -14.232  -0.302  1.00  0.00     0.160 HD
BRANCH  19  21
HETATM   21  C   UNL     1      39.877 -13.262  -1.277  1.00  0.00     0.028 A 
HETATM   22  C   UNL     1      39.674 -14.132  -2.353  1.00  0.00     0.032 A 
HETATM   23  C   UNL     1      38.480 -14.125  -3.090  1.00  0.00     0.039 A 
HETATM   24  C   UNL     1      37.447 -13.258  -2.746  1.00  0.00     0.068 A 
HETATM   25  C   UNL     1      37.627 -12.395  -1.668  1.00  0.00     0.039 A 
HETATM   26  C   UNL     1      38.821 -12.406  -0.936  1.00  0.00     0.032 A 
BRANCH  24  27
HETATM   27  O   UNL     1      36.232 -13.166  -3.365  1.00  0.00    -0.352 OA
BRANCH  27  28
HETATM   28  C   UNL     1      35.645 -11.867  -3.442  1.00  0.00     0.171 C 
HETATM   29  C   UNL     1      34.281 -12.003  -4.095  1.00  0.00     0.034 C 
ENDBRANCH  27  28
ENDBRANCH  24  27
ENDBRANCH  19  21
ENDBRANCH  18  19
ENDBRANCH   1  18
TORSDOF 7
ENDMDL
MODEL 4
REMARK VINA RESULT:      -7.9      2.256      3.185
REMARK  7 active torsions:
REMARK  status: ('A' for Active; 'I' for Inactive)
REMARK    1  A    between atoms: C_2  and  O_3 
REMARK    2  A    between atoms: O_3  and  C_4 
REMARK    3  A    between atoms: C_7  and  N_8 
REMARK    4  A    between atoms: N_8  and  C_9 
REMARK    5  A    between atoms: C_9  and  C_10 
REMARK       I    between atoms: C_10  and  N_11 
REMARK    6  A    between atoms: N_11  and  N_12 
REMARK    7  A    between atoms: C_13  and  C_14 
ROOT
HETATM    1  C   UNL     1      45.411 -11.389   6.509  1.00  0.00     0.255 C 
HETATM    2  N   UNL     1      44.490 -12.240   7.126  1.00  0.00    -0.246 N 
HETATM    3  O   UNL     1      45.451 -11.138   5.305  1.00  0.00    -0.270 OA
HETATM    4  H   UNL     1      44.719 -12.588   8.052  1.00  0.00     0.192 HD
ENDROOT
BRANCH   2   5
HETATM    5  N   UNL     1      43.640 -13.074   6.433  1.00  0.00    -0.184 NA
HETATM    6  C   UNL     1      42.543 -12.562   5.968  1.00  0.00     0.153 C 
BRANCH   6   7
HETATM    7  C   UNL     1      41.646 -13.361   5.149  1.00  0.00     0.018 A 
HETATM    8  C   UNL     1      41.945 -14.451   4.264  1.00  0.00     0.004 A 
HETATM    9  C   UNL     1      40.741 -14.864   3.691  1.00  0.00     0.043 A 
HETATM   10  C   UNL     1      43.125 -15.125   3.881  1.00  0.00     0.014 A 
HETATM   11  C   UNL     1      40.658 -15.908   2.760  1.00  0.00     0.030 A 
HETATM   12  N   UNL     1      39.750 -14.067   4.207  1.00  0.00    -0.358 N 
HETATM   13  C   UNL     1      41.844 -16.555   2.400  1.00  0.00     0.002 A 
HETATM   14  C   UNL     1      43.062 -16.171   2.953  1.00  0.00     0.001 A 
HETATM   15  H   UNL     1      38.775 -14.145   3.959  1.00  0.00     0.166 HD
HETATM   16  C   UNL     1      40.273 -13.152   5.086  1.00  0.00     0.018 A 
HETATM   17  C   UNL     1      39.405 -12.159   5.771  1.00  0.00     0.069 C 
ENDBRANCH   6   7
ENDBRANCH   2   5
BRANCH   1  18
HETATM   18  C   UNL     1      46.403 -10.772   7.498  1.00  0.00     0.224 C 
BRANCH  18  19
HETATM   19  N   UNL     1      46.030  -9.397   7.826  1.00  0.00    -0.381 N 
HETATM   20  H   UNL     1      45.975  -8.758   7.036  1.00  0.00     0.160 HD
BRANCH  19  21
HETATM   21  C   UNL     1      45.129  -9.119   8.850  1.00  0.00     0.028 A 
HETATM   22  C   UNL     1      45.120  -9.786  10.079  1.00  0.00     0.032 A 
HETATM   23  C   UNL     1      44.261  -9.401  11.120  1.00  0.00     0.039 A 
HETATM   24  C   UNL     1      43.405  -8.315  10.959  1.00  0.00     0.068 A 
HETATM   25  C   UNL     1      43.412  -7.631   9.745  1.00  0.00     0.039 A 
HETATM   26  C   UNL     1      44.271  -8.020   8.710  1.00  0.00     0.032 A 
BRANCH  24  27
HETATM   27  O   UNL     1      42.538  -7.826  11.895  1.00  0.00    -0.352 OA
BRANCH  27  28
HETATM   28  C   UNL     1      42.704  -8.293  13.234  1.00  0.00     0.171 C 
HETATM   29  C   UNL     1      43.241  -7.146  14.070  1.00  0.00     0.034 C 
ENDBRANCH  27  28
ENDBRANCH  24  27
ENDBRANCH  19  21
ENDBRANCH  18  19
ENDBRANCH   1  18
TORSDOF 7
ENDMDL
MODEL 5
REMARK VINA RESULT:      -7.9      7.580     11.224
REMARK  7 active torsions:
REMARK  status: ('A' for Active; 'I' for Inactive)
REMARK    1  A    between atoms: C_2  and  O_3 
REMARK    2  A    between atoms: O_3  and  C_4 
REMARK    3  A    between atoms: C_7  and  N_8 
REMARK    4  A    between atoms: N_8  and  C_9 
REMARK    5  A    between atoms: C_9  and  C_10 
REMARK       I    between atoms: C_10  and  N_11 
REMARK    6  A    between atoms: N_11  and  N_12 
REMARK    7  A    between atoms: C_13  and  C_14 
ROOT
HETATM    1  C   UNL     1      40.408 -13.748   0.536  1.00  0.00     0.255 C 
HETATM    2  N   UNL     1      41.178 -14.912   0.458  1.00  0.00    -0.246 N 
HETATM    3  O   UNL     1      40.079 -13.181   1.576  1.00  0.00    -0.270 OA
HETATM    4  H   UNL     1      41.150 -15.436  -0.411  1.00  0.00     0.192 HD
ENDROOT
BRANCH   2   5
HETATM    5  N   UNL     1      41.489 -15.694   1.549  1.00  0.00    -0.184 NA
HETATM    6  C   UNL     1      42.737 -15.987   1.742  1.00  0.00     0.153 C 
BRANCH   6   7
HETATM    7  C   UNL     1      43.146 -16.730   2.922  1.00  0.00     0.018 A 
HETATM    8  C   UNL     1      43.413 -18.133   3.072  1.00  0.00     0.004 A 
HETATM    9  C   UNL     1      43.744 -18.354   4.409  1.00  0.00     0.043 A 
HETATM   10  C   UNL     1      43.395 -19.246   2.202  1.00  0.00     0.014 A 
HETATM   11  C   UNL     1      44.056 -19.621   4.919  1.00  0.00     0.030 A 
HETATM   12  N   UNL     1      43.690 -17.140   5.048  1.00  0.00    -0.358 N 
HETATM   13  C   UNL     1      44.027 -20.703   4.034  1.00  0.00     0.002 A 
HETATM   14  C   UNL     1      43.703 -20.520   2.693  1.00  0.00     0.001 A 
HETATM   15  H   UNL     1      43.880 -17.009   6.030  1.00  0.00     0.166 HD
HETATM   16  C   UNL     1      43.328 -16.148   4.171  1.00  0.00     0.018 A 
HETATM   17  C   UNL     1      43.182 -14.739   4.621  1.00  0.00     0.069 C 
ENDBRANCH   6   7
ENDBRANCH   2   5
BRANCH   1  18
HETATM   18  C   UNL     1      39.995 -13.219  -0.841  1.00  0.00     0.224 C 
BRANCH  18  19
HETATM   19  N   UNL     1      41.138 -12.637  -1.543  1.00  0.00    -0.381 N 
HETATM   20  H   UNL     1      41.592 -13.245  -2.220  1.00  0.00     0.160 HD
BRANCH  19  21
HETATM   21  C   UNL     1      41.167 -11.286  -1.877  1.00  0.00     0.028 A 
HETATM   22  C   UNL     1      41.652 -10.286  -1.028  1.00  0.00     0.032 A 
HETATM   23  C   UNL     1      41.758  -8.951  -1.447  1.00  0.00     0.039 A 
HETATM   24  C   UNL     1      41.403  -8.592  -2.744  1.00  0.00     0.068 A 
HETATM   25  C   UNL     1      40.932  -9.579  -3.607  1.00  0.00     0.039 A 
HETATM   26  C   UNL     1      40.828 -10.909  -3.183  1.00  0.00     0.032 A 
BRANCH  24  27
HETATM   27  O   UNL     1      41.478  -7.338  -3.283  1.00  0.00    -0.352 OA
BRANCH  27  28
HETATM   28  C   UNL     1      42.784  -6.792  -3.464  1.00  0.00     0.171 C 
HETATM   29  C   UNL     1      43.086  -6.774  -4.952  1.00  0.00     0.034 C 
ENDBRANCH  27  28
ENDBRANCH  24  27
ENDBRANCH  19  21
ENDBRANCH  18  19
ENDBRANCH   1  18
TORSDOF 7
ENDMDL
MODEL 6
REMARK VINA RESULT:      -7.7      0.988      2.216
REMARK  7 active torsions:
REMARK  status: ('A' for Active; 'I' for Inactive)
REMARK    1  A    between atoms: C_2  and  O_3 
REMARK    2  A    between atoms: O_3  and  C_4 
REMARK    3  A    between atoms: C_7  and  N_8 
REMARK    4  A    between atoms: N_8  and  C_9 
REMARK    5  A    between atoms: C_9  and  C_10 
REMARK       I    between atoms: C_10  and  N_11 
REMARK    6  A    between atoms: N_11  and  N_12 
REMARK    7  A    between atoms: C_13  and  C_14 
ROOT
HETATM    1  C   UNL     1      44.085 -11.007   8.311  1.00  0.00     0.255 C 
HETATM    2  N   UNL     1      43.219 -11.557   7.362  1.00  0.00    -0.246 N 
HETATM    3  O   UNL     1      45.288 -11.245   8.399  1.00  0.00    -0.270 OA
HETATM    4  H   UNL     1      42.223 -11.513   7.554  1.00  0.00     0.192 HD
ENDROOT
BRANCH   2   5
HETATM    5  N   UNL     1      43.562 -12.604   6.535  1.00  0.00    -0.184 NA
HETATM    6  C   UNL     1      42.600 -13.319   6.041  1.00  0.00     0.153 C 
BRANCH   6   7
HETATM    7  C   UNL     1      42.883 -14.380   5.089  1.00  0.00     0.018 A 
HETATM    8  C   UNL     1      43.174 -15.767   5.325  1.00  0.00     0.004 A 
HETATM    9  C   UNL     1      43.401 -16.363   4.085  1.00  0.00     0.043 A 
HETATM   10  C   UNL     1      43.277 -16.577   6.477  1.00  0.00     0.014 A 
HETATM   11  C   UNL     1      43.726 -17.717   3.936  1.00  0.00     0.030 A 
HETATM   12  N   UNL     1      43.250 -15.387   3.131  1.00  0.00    -0.358 N 
HETATM   13  C   UNL     1      43.823 -18.493   5.095  1.00  0.00     0.002 A 
HETATM   14  C   UNL     1      43.601 -17.933   6.350  1.00  0.00     0.001 A 
HETATM   15  H   UNL     1      43.365 -15.542   2.140  1.00  0.00     0.166 HD
HETATM   16  C   UNL     1      42.941 -14.184   3.714  1.00  0.00     0.018 A 
HETATM   17  C   UNL     1      42.742 -12.959   2.895  1.00  0.00     0.069 C 
ENDBRANCH   6   7
ENDBRANCH   2   5
BRANCH   1  18
HETATM   18  C   UNL     1      43.378 -10.043   9.269  1.00  0.00     0.224 C 
BRANCH  18  19
HETATM   19  N   UNL     1      43.359 -10.577  10.630  1.00  0.00    -0.381 N 
HETATM   20  H   UNL     1      44.082 -11.261  10.842  1.00  0.00     0.160 HD
BRANCH  19  21
HETATM   21  C   UNL     1      42.987  -9.783  11.711  1.00  0.00     0.028 A 
HETATM   22  C   UNL     1      42.046 -10.169  12.671  1.00  0.00     0.032 A 
HETATM   23  C   UNL     1      41.780  -9.380  13.800  1.00  0.00     0.039 A 
HETATM   24  C   UNL     1      42.475  -8.192  14.006  1.00  0.00     0.068 A 
HETATM   25  C   UNL     1      43.426  -7.800  13.067  1.00  0.00     0.039 A 
HETATM   26  C   UNL     1      43.687  -8.592  11.942  1.00  0.00     0.032 A 
BRANCH  24  27
HETATM   27  O   UNL     1      42.327  -7.345  15.069  1.00  0.00    -0.352 OA
BRANCH  27  28
HETATM   28  C   UNL     1      41.054  -7.337  15.714  1.00  0.00     0.171 C 
HETATM   29  C   UNL     1      41.286  -7.365  17.215  1.00  0.00     0.034 C 
ENDBRANCH  27  28
ENDBRANCH  24  27
ENDBRANCH  19  21
ENDBRANCH  18  19
ENDBRANCH   1  18
TORSDOF 7
ENDMDL
MODEL 7
REMARK VINA RESULT:      -7.6      1.798      2.801
REMARK  7 active torsions:
REMARK  status: ('A' for Active; 'I' for Inactive)
REMARK    1  A    between atoms: C_2  and  O_3 
REMARK    2  A    between atoms: O_3  and  C_4 
REMARK    3  A    between atoms: C_7  and  N_8 
REMARK    4  A    between atoms: N_8  and  C_9 
REMARK    5  A    between atoms: C_9  and  C_10 
REMARK       I    between atoms: C_10  and  N_11 
REMARK    6  A    between atoms: N_11  and  N_12 
REMARK    7  A    between atoms: C_13  and  C_14 
ROOT
HETATM    1  C   UNL     1      44.423 -11.595   6.281  1.00  0.00     0.255 C 
HETATM    2  N   UNL     1      43.438 -12.584   6.219  1.00  0.00    -0.246 N 
HETATM    3  O   UNL     1      45.133 -11.238   5.342  1.00  0.00    -0.270 OA
HETATM    4  H   UNL     1      43.120 -12.985   7.096  1.00  0.00     0.192 HD
ENDROOT
BRANCH   2   5
HETATM    5  N   UNL     1      43.281 -13.437   5.149  1.00  0.00    -0.184 NA
HETATM    6  C   UNL     1      42.785 -14.612   5.385  1.00  0.00     0.153 C 
BRANCH   6   7
HETATM    7  C   UNL     1      42.507 -15.528   4.292  1.00  0.00     0.018 A 
HETATM    8  C   UNL     1      43.105 -16.798   3.989  1.00  0.00     0.004 A 
HETATM    9  C   UNL     1      42.511 -17.271   2.818  1.00  0.00     0.043 A 
HETATM   10  C   UNL     1      44.105 -17.593   4.590  1.00  0.00     0.014 A 
HETATM   11  C   UNL     1      42.863 -18.488   2.221  1.00  0.00     0.030 A 
HETATM   12  N   UNL     1      41.586 -16.335   2.426  1.00  0.00    -0.358 N 
HETATM   13  C   UNL     1      43.858 -19.251   2.838  1.00  0.00     0.002 A 
HETATM   14  C   UNL     1      44.471 -18.812   4.008  1.00  0.00     0.001 A 
HETATM   15  H   UNL     1      41.010 -16.420   1.601  1.00  0.00     0.166 HD
HETATM   16  C   UNL     1      41.569 -15.276   3.298  1.00  0.00     0.018 A 
HETATM   17  C   UNL     1      40.661 -14.118   3.085  1.00  0.00     0.069 C 
ENDBRANCH   6   7
ENDBRANCH   2   5
BRANCH   1  18
HETATM   18  C   UNL     1      44.547 -10.968   7.673  1.00  0.00     0.224 C 
BRANCH  18  19
HETATM   19  N   UNL     1      43.235 -10.588   8.194  1.00  0.00    -0.381 N 
HETATM   20  H   UNL     1      42.521 -11.312   8.153  1.00  0.00     0.160 HD
BRANCH  19  21
HETATM   21  C   UNL     1      43.114  -9.725   9.279  1.00  0.00     0.028 A 
HETATM   22  C   UNL     1      41.968  -8.967   9.545  1.00  0.00     0.032 A 
HETATM   23  C   UNL     1      41.852  -8.191  10.707  1.00  0.00     0.039 A 
HETATM   24  C   UNL     1      42.878  -8.176  11.648  1.00  0.00     0.068 A 
HETATM   25  C   UNL     1      44.020  -8.936  11.405  1.00  0.00     0.039 A 
HETATM   26  C   UNL     1      44.130  -9.710  10.243  1.00  0.00     0.032 A 
BRANCH  24  27
HETATM   27  O   UNL     1      42.883  -7.482  12.826  1.00  0.00    -0.352 OA
BRANCH  27  28
HETATM   28  C   UNL     1      41.699  -7.554  13.620  1.00  0.00     0.171 C 
HETATM   29  C   UNL     1      41.877  -8.673  14.631  1.00  0.00     0.034 C 
ENDBRANCH  27  28
ENDBRANCH  24  27
ENDBRANCH  19  21
ENDBRANCH  18  19
ENDBRANCH   1  18
TORSDOF 7
ENDMDL
MODEL 8
REMARK VINA RESULT:      -7.5      7.576     11.395
REMARK  7 active torsions:
REMARK  status: ('A' for Active; 'I' for Inactive)
REMARK    1  A    between atoms: C_2  and  O_3 
REMARK    2  A    between atoms: O_3  and  C_4 
REMARK    3  A    between atoms: C_7  and  N_8 
REMARK    4  A    between atoms: N_8  and  C_9 
REMARK    5  A    between atoms: C_9  and  C_10 
REMARK       I    between atoms: C_10  and  N_11 
REMARK    6  A    between atoms: N_11  and  N_12 
REMARK    7  A    between atoms: C_13  and  C_14 
ROOT
HETATM    1  C   UNL     1      40.627 -14.819   0.513  1.00  0.00     0.255 C 
HETATM    2  N   UNL     1      41.968 -14.733   0.895  1.00  0.00    -0.246 N 
HETATM    3  O   UNL     1      39.831 -15.673   0.898  1.00  0.00    -0.270 OA
HETATM    4  H   UNL     1      42.588 -14.177   0.313  1.00  0.00     0.192 HD
ENDROOT
BRANCH   2   5
HETATM    5  N   UNL     1      42.628 -15.724   1.589  1.00  0.00    -0.184 NA
HETATM    6  C   UNL     1      42.565 -15.693   2.884  1.00  0.00     0.153 C 
BRANCH   6   7
HETATM    7  C   UNL     1      43.159 -16.757   3.676  1.00  0.00     0.018 A 
HETATM    8  C   UNL     1      43.351 -18.142   3.348  1.00  0.00     0.004 A 
HETATM    9  C   UNL     1      43.939 -18.755   4.454  1.00  0.00     0.043 A 
HETATM   10  C   UNL     1      43.072 -18.943   2.219  1.00  0.00     0.014 A 
HETATM   11  C   UNL     1      44.260 -20.118   4.491  1.00  0.00     0.030 A 
HETATM   12  N   UNL     1      44.106 -17.788   5.414  1.00  0.00    -0.358 N 
HETATM   13  C   UNL     1      43.970 -20.885   3.359  1.00  0.00     0.002 A 
HETATM   14  C   UNL     1      43.385 -20.307   2.236  1.00  0.00     0.001 A 
HETATM   15  H   UNL     1      44.508 -17.958   6.325  1.00  0.00     0.166 HD
HETATM   16  C   UNL     1      43.640 -16.577   4.967  1.00  0.00     0.018 A 
HETATM   17  C   UNL     1      43.692 -15.366   5.829  1.00  0.00     0.069 C 
ENDBRANCH   6   7
ENDBRANCH   2   5
BRANCH   1  18
HETATM   18  C   UNL     1      40.217 -13.713  -0.465  1.00  0.00     0.224 C 
BRANCH  18  19
HETATM   19  N   UNL     1      38.878 -13.213  -0.158  1.00  0.00    -0.381 N 
HETATM   20  H   UNL     1      38.613 -13.242   0.823  1.00  0.00     0.160 HD
BRANCH  19  21
HETATM   21  C   UNL     1      38.325 -12.152  -0.869  1.00  0.00     0.028 A 
HETATM   22  C   UNL     1      38.644 -10.810  -0.636  1.00  0.00     0.032 A 
HETATM   23  C   UNL     1      38.141  -9.782  -1.447  1.00  0.00     0.039 A 
HETATM   24  C   UNL     1      37.322 -10.080  -2.532  1.00  0.00     0.068 A 
HETATM   25  C   UNL     1      37.005 -11.412  -2.786  1.00  0.00     0.039 A 
HETATM   26  C   UNL     1      37.511 -12.434  -1.974  1.00  0.00     0.032 A 
BRANCH  24  27
HETATM   27  O   UNL     1      36.785  -9.179  -3.408  1.00  0.00    -0.352 OA
BRANCH  27  28
HETATM   28  C   UNL     1      37.678  -8.220  -3.975  1.00  0.00     0.171 C 
HETATM   29  C   UNL     1      38.525  -8.926  -5.019  1.00  0.00     0.034 C 
ENDBRANCH  27  28
ENDBRANCH  24  27
ENDBRANCH  19  21
ENDBRANCH  18  19
ENDBRANCH   1  18
TORSDOF 7
ENDMDL
MODEL 9
REMARK VINA RESULT:      -7.5      3.380      9.947
REMARK  7 active torsions:
REMARK  status: ('A' for Active; 'I' for Inactive)
REMARK    1  A    between atoms: C_2  and  O_3 
REMARK    2  A    between atoms: O_3  and  C_4 
REMARK    3  A    between atoms: C_7  and  N_8 
REMARK    4  A    between atoms: N_8  and  C_9 
REMARK    5  A    between atoms: C_9  and  C_10 
REMARK       I    between atoms: C_10  and  N_11 
REMARK    6  A    between atoms: N_11  and  N_12 
REMARK    7  A    between atoms: C_13  and  C_14 
ROOT
HETATM    1  C   UNL     1      40.320 -12.555   5.321  1.00  0.00     0.255 C 
HETATM    2  N   UNL     1      41.568 -11.926   5.285  1.00  0.00    -0.246 N 
HETATM    3  O   UNL     1      39.702 -12.852   6.342  1.00  0.00    -0.270 OA
HETATM    4  H   UNL     1      42.099 -11.985   4.422  1.00  0.00     0.192 HD
ENDROOT
BRANCH   2   5
HETATM    5  N   UNL     1      42.364 -11.750   6.396  1.00  0.00    -0.184 NA
HETATM    6  C   UNL     1      42.817 -10.557   6.627  1.00  0.00     0.153 C 
BRANCH   6   7
HETATM    7  C   UNL     1      43.585 -10.279   7.829  1.00  0.00     0.018 A 
HETATM    8  C   UNL     1      43.159  -9.700   9.072  1.00  0.00     0.004 A 
HETATM    9  C   UNL     1      44.279  -9.620   9.900  1.00  0.00     0.043 A 
HETATM   10  C   UNL     1      41.929  -9.223   9.576  1.00  0.00     0.014 A 
HETATM   11  C   UNL     1      44.234  -9.090  11.196  1.00  0.00     0.030 A 
HETATM   12  N   UNL     1      45.341 -10.133   9.198  1.00  0.00    -0.358 N 
HETATM   13  C   UNL     1      43.003  -8.624  11.665  1.00  0.00     0.002 A 
HETATM   14  C   UNL     1      41.863  -8.690  10.868  1.00  0.00     0.001 A 
HETATM   15  H   UNL     1      46.283 -10.192   9.559  1.00  0.00     0.166 HD
HETATM   16  C   UNL     1      44.946 -10.534   7.946  1.00  0.00     0.018 A 
HETATM   17  C   UNL     1      45.917 -11.112   6.981  1.00  0.00     0.069 C 
ENDBRANCH   6   7
ENDBRANCH   2   5
BRANCH   1  18
HETATM   18  C   UNL     1      39.768 -12.854   3.924  1.00  0.00     0.224 C 
BRANCH  18  19
HETATM   19  N   UNL     1      39.705 -14.295   3.683  1.00  0.00    -0.381 N 
HETATM   20  H   UNL     1      39.046 -14.591   2.966  1.00  0.00     0.160 HD
BRANCH  19  21
HETATM   21  C   UNL     1      40.841 -15.093   3.781  1.00  0.00     0.028 A 
HETATM   22  C   UNL     1      41.983 -14.918   2.992  1.00  0.00     0.032 A 
HETATM   23  C   UNL     1      43.144 -15.679   3.198  1.00  0.00     0.039 A 
HETATM   24  C   UNL     1      43.194 -16.620   4.223  1.00  0.00     0.068 A 
HETATM   25  C   UNL     1      42.070 -16.796   5.027  1.00  0.00     0.039 A 
HETATM   26  C   UNL     1      40.914 -16.034   4.816  1.00  0.00     0.032 A 
BRANCH  24  27
HETATM   27  O   UNL     1      44.264 -17.409   4.542  1.00  0.00    -0.352 OA
BRANCH  27  28
HETATM   28  C   UNL     1      44.083 -18.820   4.421  1.00  0.00     0.171 C 
HETATM   29  C   UNL     1      43.965 -19.155   2.945  1.00  0.00     0.034 C 
ENDBRANCH  27  28
ENDBRANCH  24  27
ENDBRANCH  19  21
ENDBRANCH  18  19
ENDBRANCH   1  18
TORSDOF 7
ENDMDL
MODEL 10
REMARK VINA RESULT:      -7.4      6.289      9.312
REMARK  7 active torsions:
REMARK  status: ('A' for Active; 'I' for Inactive)
REMARK    1  A    between atoms: C_2  and  O_3 
REMARK    2  A    between atoms: O_3  and  C_4 
REMARK    3  A    between atoms: C_7  and  N_8 
REMARK    4  A    between atoms: N_8  and  C_9 
REMARK    5  A    between atoms: C_9  and  C_10 
REMARK       I    between atoms: C_10  and  N_11 
REMARK    6  A    between atoms: N_11  and  N_12 
REMARK    7  A    between atoms: C_13  and  C_14 
ROOT
HETATM    1  C   UNL     1      39.980 -13.158   5.166  1.00  0.00     0.255 C 
HETATM    2  N   UNL     1      39.686 -13.843   3.984  1.00  0.00    -0.246 N 
HETATM    3  O   UNL     1      39.991 -11.935   5.296  1.00  0.00    -0.270 OA
HETATM    4  H   UNL     1      39.978 -14.814   3.920  1.00  0.00     0.192 HD
ENDROOT
BRANCH   2   5
HETATM    5  N   UNL     1      39.579 -13.230   2.755  1.00  0.00    -0.184 NA
HETATM    6  C   UNL     1      40.611 -13.273   1.971  1.00  0.00     0.153 C 
BRANCH   6   7
HETATM    7  C   UNL     1      40.537 -12.728   0.625  1.00  0.00     0.018 A 
HETATM    8  C   UNL     1      40.035 -13.330  -0.578  1.00  0.00     0.004 A 
HETATM    9  C   UNL     1      40.210 -12.409  -1.611  1.00  0.00     0.043 A 
HETATM   10  C   UNL     1      39.455 -14.578  -0.897  1.00  0.00     0.014 A 
HETATM   11  C   UNL     1      39.841 -12.668  -2.937  1.00  0.00     0.030 A 
HETATM   12  N   UNL     1      40.788 -11.290  -1.063  1.00  0.00    -0.358 N 
HETATM   13  C   UNL     1      39.272 -13.912  -3.221  1.00  0.00     0.002 A 
HETATM   14  C   UNL     1      39.079 -14.856  -2.216  1.00  0.00     0.001 A 
HETATM   15  H   UNL     1      41.032 -10.464  -1.589  1.00  0.00     0.166 HD
HETATM   16  C   UNL     1      40.996 -11.462   0.283  1.00  0.00     0.018 A 
HETATM   17  C   UNL     1      41.626 -10.397   1.107  1.00  0.00     0.069 C 
ENDBRANCH   6   7
ENDBRANCH   2   5
BRANCH   1  18
HETATM   18  C   UNL     1      40.299 -14.098   6.332  1.00  0.00     0.224 C 
BRANCH  18  19
HETATM   19  N   UNL     1      41.735 -14.120   6.610  1.00  0.00    -0.381 N 
HETATM   20  H   UNL     1      42.015 -13.719   7.501  1.00  0.00     0.160 HD
BRANCH  19  21
HETATM   21  C   UNL     1      42.536 -15.173   6.178  1.00  0.00     0.028 A 
HETATM   22  C   UNL     1      42.912 -16.247   6.992  1.00  0.00     0.032 A 
HETATM   23  C   UNL     1      43.634 -17.338   6.484  1.00  0.00     0.039 A 
HETATM   24  C   UNL     1      43.974 -17.389   5.136  1.00  0.00     0.068 A 
HETATM   25  C   UNL     1      43.595 -16.334   4.309  1.00  0.00     0.039 A 
HETATM   26  C   UNL     1      42.875 -15.248   4.821  1.00  0.00     0.032 A 
BRANCH  24  27
HETATM   27  O   UNL     1      44.654 -18.399   4.513  1.00  0.00    -0.352 OA
BRANCH  27  28
HETATM   28  C   UNL     1      43.895 -19.545   4.129  1.00  0.00     0.171 C 
HETATM   29  C   UNL     1      43.831 -19.583   2.613  1.00  0.00     0.034 C 
ENDBRANCH  27  28
ENDBRANCH  24  27
ENDBRANCH  19  21
ENDBRANCH  18  19
ENDBRANCH   1  18
TORSDOF 7
ENDMDL
