MODEL 1
REMARK VINA RESULT:      -9.2      0.000      0.000
REMARK  7 active torsions:
REMARK  status: ('A' for Active; 'I' for Inactive)
REMARK    1  A    between atoms: C_3  and  N_4 
REMARK    2  A    between atoms: N_7  and  C_9 
REMARK    3  A    between atoms: N_12  and  C_13 
REMARK    4  A    between atoms: C_16  and  C_17 
REMARK       I    between atoms: C_17  and  N_18 
REMARK    5  A    between atoms: C_20  and  C_21 
REMARK    6  A    between atoms: C_21  and  O_22 
REMARK    7  A    between atoms: C_33  and  O_34 
ROOT
HETATM    1  C   UNL     1      43.695 -10.789   6.954  1.00  0.00     0.191 C 
HETATM    2  C   UNL     1      42.827  -9.524   7.077  1.00  0.00     0.053 C 
HETATM    3  C   UNL     1      42.225  -9.352   8.470  1.00  0.00     0.125 C 
HETATM    4  N   UNL     1      43.303  -9.428   9.453  1.00  0.00    -0.381 N 
HETATM    5  C   UNL     1      44.090 -10.654   9.469  1.00  0.00     0.125 C 
HETATM    6  C   UNL     1      44.728 -10.817   8.091  1.00  0.00     0.053 C 
ENDROOT
BRANCH   4   7
HETATM    7  C   UNL     1      43.079  -8.752  10.656  1.00  0.00     0.030 A 
HETATM    8  C   UNL     1      42.847  -7.370  10.733  1.00  0.00     0.030 A 
HETATM    9  C   UNL     1      42.582  -6.740  11.957  1.00  0.00     0.019 A 
HETATM   10  C   UNL     1      42.510  -7.498  13.127  1.00  0.00     0.032 A 
HETATM   11  C   UNL     1      42.764  -8.868  13.082  1.00  0.00     0.019 A 
HETATM   12  C   UNL     1      43.041  -9.482  11.858  1.00  0.00     0.030 A 
BRANCH  10  13
HETATM   13  C   UNL     1      42.247  -6.880  14.443  1.00  0.00     0.253 C 
HETATM   14  N   UNL     1      40.987  -6.340  14.721  1.00  0.00    -0.348 N 
HETATM   15  C   UNL     1      39.925  -6.158  13.724  1.00  0.00     0.132 C 
HETATM   16  C   UNL     1      40.858  -5.565  15.956  1.00  0.00     0.126 C 
HETATM   17  C   UNL     1      38.514  -6.245  14.327  1.00  0.00     0.027 C 
HETATM   18  C   UNL     1      38.392  -5.323  15.546  1.00  0.00     0.010 C 
HETATM   19  C   UNL     1      39.467  -5.670  16.568  1.00  0.00     0.020 C 
HETATM   20  O   UNL     1      43.172  -6.910  15.254  1.00  0.00    -0.267 OA
BRANCH  17  21
HETATM   21  C   UNL     1      37.450  -5.938  13.270  1.00  0.00     0.170 C 
BRANCH  21  22
HETATM   22  O   UNL     1      37.173  -7.072  12.460  1.00  0.00    -0.400 OA
HETATM   23  H   UNL     1      37.495  -6.877  11.561  1.00  0.00     0.209 HD
ENDBRANCH  21  22
ENDBRANCH  17  21
ENDBRANCH  10  13
ENDBRANCH   4   7
BRANCH   1  24
HETATM   24  N   UNL     1      42.831 -12.070   6.891  1.00  0.00    -0.064 N 
HETATM   25  C   UNL     1      41.817 -12.015   5.721  1.00  0.00     0.255 C 
HETATM   26  C   UNL     1      40.922 -13.268   5.698  1.00  0.00     0.150 C 
HETATM   27  N   UNL     1      41.724 -14.511   5.617  1.00  0.00    -0.375 N 
HETATM   28  C   UNL     1      42.770 -14.623   6.643  1.00  0.00     0.150 C 
HETATM   29  C   UNL     1      43.659 -13.363   6.753  1.00  0.00     0.255 C 
HETATM   30  H   UNL     1      42.288 -12.153   7.760  1.00  0.00     0.280 HD
BRANCH  27  31
HETATM   31  C   UNL     1      41.979 -14.958   4.310  1.00  0.00     0.063 A 
HETATM   32  C   UNL     1      43.103 -14.596   3.558  1.00  0.00     0.032 A 
HETATM   33  C   UNL     1      43.271 -15.043   2.238  1.00  0.00     0.002 A 
HETATM   34  C   UNL     1      42.323 -15.874   1.646  1.00  0.00     0.003 A 
HETATM   35  C   UNL     1      41.216 -16.284   2.378  1.00  0.00     0.039 A 
HETATM   36  C   UNL     1      41.070 -15.843   3.689  1.00  0.00     0.092 A 
BRANCH  36  37
HETATM   37  O   UNL     1      40.026 -16.360   4.414  1.00  0.00    -0.358 OA
HETATM   38  H   UNL     1      40.095 -15.918   5.280  1.00  0.00     0.218 HD
ENDBRANCH  36  37
ENDBRANCH  27  31
ENDBRANCH   1  24
TORSDOF 7
ENDMDL
MODEL 2
REMARK VINA RESULT:      -8.7      3.317     11.969
REMARK  7 active torsions:
REMARK  status: ('A' for Active; 'I' for Inactive)
REMARK    1  A    between atoms: C_3  and  N_4 
REMARK    2  A    between atoms: N_7  and  C_9 
REMARK    3  A    between atoms: N_12  and  C_13 
REMARK    4  A    between atoms: C_16  and  C_17 
REMARK       I    between atoms: C_17  and  N_18 
REMARK    5  A    between atoms: C_20  and  C_21 
REMARK    6  A    between atoms: C_21  and  O_22 
REMARK    7  A    between atoms: C_33  and  O_34 
ROOT
HETATM    1  C   UNL     1      43.726  -9.636   8.117  1.00  0.00     0.191 C 
HETATM    2  C   UNL     1      44.548 -10.750   7.443  1.00  0.00     0.053 C 
HETATM    3  C   UNL     1      43.679 -11.752   6.686  1.00  0.00     0.125 C 
HETATM    4  N   UNL     1      42.815 -11.014   5.767  1.00  0.00    -0.381 N 
HETATM    5  C   UNL     1      41.923 -10.025   6.357  1.00  0.00     0.125 C 
HETATM    6  C   UNL     1      42.784  -8.995   7.086  1.00  0.00     0.053 C 
ENDROOT
BRANCH   4   7
HETATM    7  C   UNL     1      42.394 -11.715   4.633  1.00  0.00     0.030 A 
HETATM    8  C   UNL     1      43.271 -12.403   3.780  1.00  0.00     0.030 A 
HETATM    9  C   UNL     1      42.799 -13.130   2.679  1.00  0.00     0.019 A 
HETATM   10  C   UNL     1      41.427 -13.209   2.435  1.00  0.00     0.032 A 
HETATM   11  C   UNL     1      40.537 -12.512   3.250  1.00  0.00     0.019 A 
HETATM   12  C   UNL     1      41.020 -11.779   4.337  1.00  0.00     0.030 A 
BRANCH  10  13
HETATM   13  C   UNL     1      40.881 -13.952   1.280  1.00  0.00     0.253 C 
HETATM   14  N   UNL     1      40.717 -13.307   0.050  1.00  0.00    -0.348 N 
HETATM   15  C   UNL     1      40.868 -11.860  -0.154  1.00  0.00     0.132 C 
HETATM   16  C   UNL     1      39.985 -14.035  -0.986  1.00  0.00     0.126 C 
HETATM   17  C   UNL     1      41.341 -11.500  -1.571  1.00  0.00     0.027 C 
HETATM   18  C   UNL     1      40.466 -12.192  -2.623  1.00  0.00     0.010 C 
HETATM   19  C   UNL     1      40.469 -13.698  -2.391  1.00  0.00     0.020 C 
HETATM   20  O   UNL     1      40.628 -15.141   1.467  1.00  0.00    -0.267 OA
BRANCH  17  21
HETATM   21  C   UNL     1      41.374  -9.981  -1.765  1.00  0.00     0.170 C 
BRANCH  21  22
HETATM   22  O   UNL     1      42.497  -9.395  -1.122  1.00  0.00    -0.400 OA
HETATM   23  H   UNL     1      42.356  -9.467  -0.161  1.00  0.00     0.209 HD
ENDBRANCH  21  22
ENDBRANCH  17  21
ENDBRANCH  10  13
ENDBRANCH   4   7
BRANCH   1  24
HETATM   24  N   UNL     1      42.986 -10.153   9.372  1.00  0.00    -0.064 N 
HETATM   25  C   UNL     1      43.937 -10.258  10.591  1.00  0.00     0.255 C 
HETATM   26  C   UNL     1      43.207 -10.827  11.822  1.00  0.00     0.150 C 
HETATM   27  N   UNL     1      42.018 -10.017  12.175  1.00  0.00    -0.375 N 
HETATM   28  C   UNL     1      41.086  -9.795  11.060  1.00  0.00     0.150 C 
HETATM   29  C   UNL     1      41.778  -9.284   9.775  1.00  0.00     0.255 C 
HETATM   30  H   UNL     1      42.626 -11.098   9.185  1.00  0.00     0.280 HD
BRANCH  27  31
HETATM   31  C   UNL     1      42.266  -8.983  13.093  1.00  0.00     0.063 A 
HETATM   32  C   UNL     1      43.280  -8.030  12.951  1.00  0.00     0.032 A 
HETATM   33  C   UNL     1      43.502  -7.052  13.933  1.00  0.00     0.002 A 
HETATM   34  C   UNL     1      42.703  -6.998  15.073  1.00  0.00     0.003 A 
HETATM   35  C   UNL     1      41.662  -7.905  15.225  1.00  0.00     0.039 A 
HETATM   36  C   UNL     1      41.447  -8.861  14.237  1.00  0.00     0.092 A 
BRANCH  36  37
HETATM   37  O   UNL     1      40.341  -9.663  14.368  1.00  0.00    -0.358 OA
HETATM   38  H   UNL     1      39.909  -9.343  15.181  1.00  0.00     0.218 HD
ENDBRANCH  36  37
ENDBRANCH  27  31
ENDBRANCH   1  24
TORSDOF 7
ENDMDL
MODEL 3
REMARK VINA RESULT:      -8.7      4.046      6.850
REMARK  7 active torsions:
REMARK  status: ('A' for Active; 'I' for Inactive)
REMARK    1  A    between atoms: C_3  and  N_4 
REMARK    2  A    between atoms: N_7  and  C_9 
REMARK    3  A    between atoms: N_12  and  C_13 
REMARK    4  A    between atoms: C_16  and  C_17 
REMARK       I    between atoms: C_17  and  N_18 
REMARK    5  A    between atoms: C_20  and  C_21 
REMARK    6  A    between atoms: C_21  and  O_22 
REMARK    7  A    between atoms: C_33  and  O_34 
ROOT
HETATM    1  C   UNL     1      41.170  -8.911  11.815  1.00  0.00     0.191 C 
HETATM    2  C   UNL     1      41.272  -9.645  13.164  1.00  0.00     0.053 C 
HETATM    3  C   UNL     1      41.743  -8.737  14.298  1.00  0.00     0.125 C 
HETATM    4  N   UNL     1      40.885  -7.554  14.331  1.00  0.00    -0.381 N 
HETATM    5  C   UNL     1      40.837  -6.746  13.119  1.00  0.00     0.125 C 
HETATM    6  C   UNL     1      40.331  -7.635  11.985  1.00  0.00     0.053 C 
ENDROOT
BRANCH   4   7
HETATM    7  C   UNL     1      40.768  -6.921  15.571  1.00  0.00     0.030 A 
HETATM    8  C   UNL     1      39.585  -6.312  16.019  1.00  0.00     0.030 A 
HETATM    9  C   UNL     1      39.499  -5.727  17.289  1.00  0.00     0.019 A 
HETATM   10  C   UNL     1      40.595  -5.777  18.152  1.00  0.00     0.032 A 
HETATM   11  C   UNL     1      41.790  -6.351  17.723  1.00  0.00     0.019 A 
HETATM   12  C   UNL     1      41.868  -6.918  16.448  1.00  0.00     0.030 A 
BRANCH  10  13
HETATM   13  C   UNL     1      40.559  -5.164  19.496  1.00  0.00     0.253 C 
HETATM   14  N   UNL     1      40.493  -5.977  20.633  1.00  0.00    -0.348 N 
HETATM   15  C   UNL     1      40.259  -7.426  20.602  1.00  0.00     0.132 C 
HETATM   16  C   UNL     1      40.253  -5.308  21.911  1.00  0.00     0.126 C 
HETATM   17  C   UNL     1      40.909  -8.165  21.782  1.00  0.00     0.027 C 
HETATM   18  C   UNL     1      40.530  -7.498  23.109  1.00  0.00     0.010 C 
HETATM   19  C   UNL     1      40.918  -6.025  23.080  1.00  0.00     0.020 C 
HETATM   20  O   UNL     1      40.627  -3.936  19.538  1.00  0.00    -0.267 OA
BRANCH  17  21
HETATM   21  C   UNL     1      40.542  -9.651  21.764  1.00  0.00     0.170 C 
BRANCH  21  22
HETATM   22  O   UNL     1      39.468  -9.916  20.873  1.00  0.00    -0.400 OA
HETATM   23  H   UNL     1      39.063  -9.060  20.639  1.00  0.00     0.209 HD
ENDBRANCH  21  22
ENDBRANCH  17  21
ENDBRANCH  10  13
ENDBRANCH   4   7
BRANCH   1  24
HETATM   24  N   UNL     1      42.565  -8.641  11.205  1.00  0.00    -0.064 N 
HETATM   25  C   UNL     1      43.472  -9.894  11.282  1.00  0.00     0.255 C 
HETATM   26  C   UNL     1      44.878  -9.601  10.725  1.00  0.00     0.150 C 
HETATM   27  N   UNL     1      44.820  -9.100   9.332  1.00  0.00    -0.375 N 
HETATM   28  C   UNL     1      43.922  -7.952   9.139  1.00  0.00     0.150 C 
HETATM   29  C   UNL     1      42.514  -8.169   9.739  1.00  0.00     0.255 C 
HETATM   30  H   UNL     1      43.028  -7.896  11.743  1.00  0.00     0.280 HD
BRANCH  27  31
HETATM   31  C   UNL     1      44.896 -10.099   8.347  1.00  0.00     0.063 A 
HETATM   32  C   UNL     1      43.925 -11.089   8.153  1.00  0.00     0.032 A 
HETATM   33  C   UNL     1      44.089 -12.087   7.180  1.00  0.00     0.002 A 
HETATM   34  C   UNL     1      45.221 -12.107   6.369  1.00  0.00     0.003 A 
HETATM   35  C   UNL     1      46.185 -11.116   6.509  1.00  0.00     0.039 A 
HETATM   36  C   UNL     1      46.002 -10.127   7.471  1.00  0.00     0.092 A 
BRANCH  36  37
HETATM   37  O   UNL     1      46.917  -9.104   7.501  1.00  0.00    -0.358 OA
HETATM   38  H   UNL     1      47.780  -9.554   7.463  1.00  0.00     0.218 HD
ENDBRANCH  36  37
ENDBRANCH  27  31
ENDBRANCH   1  24
TORSDOF 7
ENDMDL
MODEL 4
REMARK VINA RESULT:      -8.6      2.680     12.303
REMARK  7 active torsions:
REMARK  status: ('A' for Active; 'I' for Inactive)
REMARK    1  A    between atoms: C_3  and  N_4 
REMARK    2  A    between atoms: N_7  and  C_9 
REMARK    3  A    between atoms: N_12  and  C_13 
REMARK    4  A    between atoms: C_16  and  C_17 
REMARK       I    between atoms: C_17  and  N_18 
REMARK    5  A    between atoms: C_20  and  C_21 
REMARK    6  A    between atoms: C_21  and  O_22 
REMARK    7  A    between atoms: C_33  and  O_34 
ROOT
HETATM    1  C   UNL     1      43.394  -9.886   8.191  1.00  0.00     0.191 C 
HETATM    2  C   UNL     1      44.602 -10.788   7.879  1.00  0.00     0.053 C 
HETATM    3  C   UNL     1      44.194 -12.176   7.390  1.00  0.00     0.125 C 
HETATM    4  N   UNL     1      43.268 -12.019   6.271  1.00  0.00    -0.381 N 
HETATM    5  C   UNL     1      42.043 -11.274   6.534  1.00  0.00     0.125 C 
HETATM    6  C   UNL     1      42.438  -9.871   6.988  1.00  0.00     0.053 C 
ENDROOT
BRANCH   4   7
HETATM    7  C   UNL     1      43.235 -13.074   5.355  1.00  0.00     0.030 A 
HETATM    8  C   UNL     1      43.107 -14.420   5.733  1.00  0.00     0.030 A 
HETATM    9  C   UNL     1      43.034 -15.443   4.778  1.00  0.00     0.019 A 
HETATM   10  C   UNL     1      43.050 -15.127   3.419  1.00  0.00     0.032 A 
HETATM   11  C   UNL     1      43.204 -13.802   3.017  1.00  0.00     0.019 A 
HETATM   12  C   UNL     1      43.290 -12.791   3.979  1.00  0.00     0.030 A 
BRANCH  10  13
HETATM   13  C   UNL     1      42.988 -16.170   2.374  1.00  0.00     0.253 C 
HETATM   14  N   UNL     1      43.287 -17.499   2.695  1.00  0.00    -0.348 N 
HETATM   15  C   UNL     1      43.857 -17.933   3.976  1.00  0.00     0.132 C 
HETATM   16  C   UNL     1      43.407 -18.437   1.579  1.00  0.00     0.126 C 
HETATM   17  C   UNL     1      43.444 -19.361   4.363  1.00  0.00     0.027 C 
HETATM   18  C   UNL     1      43.702 -20.330   3.204  1.00  0.00     0.010 C 
HETATM   19  C   UNL     1      42.974 -19.849   1.954  1.00  0.00     0.020 C 
HETATM   20  O   UNL     1      42.632 -15.801   1.256  1.00  0.00    -0.267 OA
BRANCH  17  21
HETATM   21  C   UNL     1      44.152 -19.805   5.646  1.00  0.00     0.170 C 
BRANCH  21  22
HETATM   22  O   UNL     1      44.693 -21.114   5.520  1.00  0.00    -0.400 OA
HETATM   23  H   UNL     1      45.652 -21.023   5.380  1.00  0.00     0.209 HD
ENDBRANCH  21  22
ENDBRANCH  17  21
ENDBRANCH  10  13
ENDBRANCH   4   7
BRANCH   1  24
HETATM   24  N   UNL     1      42.699 -10.299   9.510  1.00  0.00    -0.064 N 
HETATM   25  C   UNL     1      43.708 -10.384  10.682  1.00  0.00     0.255 C 
HETATM   26  C   UNL     1      43.019 -10.850  11.979  1.00  0.00     0.150 C 
HETATM   27  N   UNL     1      41.889  -9.967  12.345  1.00  0.00    -0.375 N 
HETATM   28  C   UNL     1      40.909  -9.760  11.268  1.00  0.00     0.150 C 
HETATM   29  C   UNL     1      41.554  -9.353   9.924  1.00  0.00     0.255 C 
HETATM   30  H   UNL     1      42.287 -11.234   9.394  1.00  0.00     0.280 HD
BRANCH  27  31
HETATM   31  C   UNL     1      42.231  -8.898  13.191  1.00  0.00     0.063 A 
HETATM   32  C   UNL     1      43.266  -7.992  12.935  1.00  0.00     0.032 A 
HETATM   33  C   UNL     1      43.585  -6.975  13.848  1.00  0.00     0.002 A 
HETATM   34  C   UNL     1      42.864  -6.834  15.032  1.00  0.00     0.003 A 
HETATM   35  C   UNL     1      41.805  -7.692  15.297  1.00  0.00     0.039 A 
HETATM   36  C   UNL     1      41.493  -8.688  14.376  1.00  0.00     0.092 A 
BRANCH  36  37
HETATM   37  O   UNL     1      40.372  -9.440  14.619  1.00  0.00    -0.358 OA
HETATM   38  H   UNL     1      39.889  -9.429  13.772  1.00  0.00     0.218 HD
ENDBRANCH  36  37
ENDBRANCH  27  31
ENDBRANCH   1  24
TORSDOF 7
ENDMDL
MODEL 5
REMARK VINA RESULT:      -8.6      1.930      2.493
REMARK  7 active torsions:
REMARK  status: ('A' for Active; 'I' for Inactive)
REMARK    1  A    between atoms: C_3  and  N_4 
REMARK    2  A    between atoms: N_7  and  C_9 
REMARK    3  A    between atoms: N_12  and  C_13 
REMARK    4  A    between atoms: C_16  and  C_17 
REMARK       I    between atoms: C_17  and  N_18 
REMARK    5  A    between atoms: C_20  and  C_21 
REMARK    6  A    between atoms: C_21  and  O_22 
REMARK    7  A    between atoms: C_33  and  O_34 
ROOT
HETATM    1  C   UNL     1      43.517 -10.607   6.821  1.00  0.00     0.191 C 
HETATM    2  C   UNL     1      42.390  -9.569   6.969  1.00  0.00     0.053 C 
HETATM    3  C   UNL     1      41.808  -9.522   8.380  1.00  0.00     0.125 C 
HETATM    4  N   UNL     1      42.906  -9.344   9.328  1.00  0.00    -0.381 N 
HETATM    5  C   UNL     1      43.950 -10.361   9.321  1.00  0.00     0.125 C 
HETATM    6  C   UNL     1      44.565 -10.390   7.924  1.00  0.00     0.053 C 
ENDROOT
BRANCH   4   7
HETATM    7  C   UNL     1      42.573  -8.723  10.535  1.00  0.00     0.030 A 
HETATM    8  C   UNL     1      43.475  -8.574  11.601  1.00  0.00     0.030 A 
HETATM    9  C   UNL     1      43.111  -7.905  12.778  1.00  0.00     0.019 A 
HETATM   10  C   UNL     1      41.841  -7.339  12.890  1.00  0.00     0.032 A 
HETATM   11  C   UNL     1      40.917  -7.496  11.858  1.00  0.00     0.019 A 
HETATM   12  C   UNL     1      41.287  -8.178  10.695  1.00  0.00     0.030 A 
BRANCH  10  13
HETATM   13  C   UNL     1      41.406  -6.635  14.115  1.00  0.00     0.253 C 
HETATM   14  N   UNL     1      41.501  -5.242  14.190  1.00  0.00    -0.348 N 
HETATM   15  C   UNL     1      42.192  -4.404  13.202  1.00  0.00     0.132 C 
HETATM   16  C   UNL     1      41.249  -4.632  15.496  1.00  0.00     0.126 C 
HETATM   17  C   UNL     1      41.592  -2.994  13.085  1.00  0.00     0.027 C 
HETATM   18  C   UNL     1      41.460  -2.349  14.469  1.00  0.00     0.010 C 
HETATM   19  C   UNL     1      40.631  -3.244  15.382  1.00  0.00     0.020 C 
HETATM   20  O   UNL     1      40.937  -7.337  15.010  1.00  0.00    -0.267 OA
BRANCH  17  21
HETATM   21  C   UNL     1      42.415  -2.128  12.127  1.00  0.00     0.170 C 
BRANCH  21  22
HETATM   22  O   UNL     1      43.775  -2.046  12.532  1.00  0.00    -0.400 OA
HETATM   23  H   UNL     1      43.792  -2.055  13.507  1.00  0.00     0.209 HD
ENDBRANCH  21  22
ENDBRANCH  17  21
ENDBRANCH  10  13
ENDBRANCH   4   7
BRANCH   1  24
HETATM   24  N   UNL     1      42.963 -12.051   6.790  1.00  0.00    -0.064 N 
HETATM   25  C   UNL     1      41.953 -12.247   5.632  1.00  0.00     0.255 C 
HETATM   26  C   UNL     1      41.362 -13.670   5.641  1.00  0.00     0.150 C 
HETATM   27  N   UNL     1      42.422 -14.702   5.571  1.00  0.00    -0.375 N 
HETATM   28  C   UNL     1      43.475 -14.557   6.587  1.00  0.00     0.150 C 
HETATM   29  C   UNL     1      44.059 -13.128   6.665  1.00  0.00     0.255 C 
HETATM   30  H   UNL     1      42.459 -12.237   7.668  1.00  0.00     0.280 HD
BRANCH  27  31
HETATM   31  C   UNL     1      42.761 -15.106   4.269  1.00  0.00     0.063 A 
HETATM   32  C   UNL     1      43.003 -14.225   3.209  1.00  0.00     0.032 A 
HETATM   33  C   UNL     1      43.290 -14.699   1.920  1.00  0.00     0.002 A 
HETATM   34  C   UNL     1      43.356 -16.067   1.666  1.00  0.00     0.003 A 
HETATM   35  C   UNL     1      43.159 -16.968   2.705  1.00  0.00     0.039 A 
HETATM   36  C   UNL     1      42.888 -16.482   3.980  1.00  0.00     0.092 A 
BRANCH  36  37
HETATM   37  O   UNL     1      42.814 -17.398   5.000  1.00  0.00    -0.358 OA
HETATM   38  H   UNL     1      42.378 -16.913   5.725  1.00  0.00     0.218 HD
ENDBRANCH  36  37
ENDBRANCH  27  31
ENDBRANCH   1  24
TORSDOF 7
ENDMDL
MODEL 6
REMARK VINA RESULT:      -8.4      1.850     11.588
REMARK  7 active torsions:
REMARK  status: ('A' for Active; 'I' for Inactive)
REMARK    1  A    between atoms: C_3  and  N_4 
REMARK    2  A    between atoms: N_7  and  C_9 
REMARK    3  A    between atoms: N_12  and  C_13 
REMARK    4  A    between atoms: C_16  and  C_17 
REMARK       I    between atoms: C_17  and  N_18 
REMARK    5  A    between atoms: C_20  and  C_21 
REMARK    6  A    between atoms: C_21  and  O_22 
REMARK    7  A    between atoms: C_33  and  O_34 
ROOT
HETATM    1  C   UNL     1      43.314  -7.791  11.136  1.00  0.00     0.191 C 
HETATM    2  C   UNL     1      43.964  -9.180  11.007  1.00  0.00     0.053 C 
HETATM    3  C   UNL     1      43.294 -10.052   9.948  1.00  0.00     0.125 C 
HETATM    4  N   UNL     1      43.243  -9.303   8.694  1.00  0.00    -0.381 N 
HETATM    5  C   UNL     1      42.536  -8.029   8.720  1.00  0.00     0.125 C 
HETATM    6  C   UNL     1      43.222  -7.134   9.749  1.00  0.00     0.053 C 
ENDROOT
BRANCH   4   7
HETATM    7  C   UNL     1      43.213 -10.070   7.527  1.00  0.00     0.030 A 
HETATM    8  C   UNL     1      42.139 -10.058   6.622  1.00  0.00     0.030 A 
HETATM    9  C   UNL     1      42.171 -10.810   5.440  1.00  0.00     0.019 A 
HETATM   10  C   UNL     1      43.302 -11.564   5.127  1.00  0.00     0.032 A 
HETATM   11  C   UNL     1      44.370 -11.617   6.021  1.00  0.00     0.019 A 
HETATM   12  C   UNL     1      44.322 -10.873   7.203  1.00  0.00     0.030 A 
BRANCH  10  13
HETATM   13  C   UNL     1      43.379 -12.385   3.900  1.00  0.00     0.253 C 
HETATM   14  N   UNL     1      42.790 -13.653   3.871  1.00  0.00    -0.348 N 
HETATM   15  C   UNL     1      42.248 -14.342   5.048  1.00  0.00     0.132 C 
HETATM   16  C   UNL     1      43.079 -14.489   2.705  1.00  0.00     0.126 C 
HETATM   17  C   UNL     1      41.090 -15.293   4.707  1.00  0.00     0.027 C 
HETATM   18  C   UNL     1      41.484 -16.232   3.560  1.00  0.00     0.010 C 
HETATM   19  C   UNL     1      41.923 -15.415   2.350  1.00  0.00     0.020 C 
HETATM   20  O   UNL     1      43.944 -11.871   2.935  1.00  0.00    -0.267 OA
BRANCH  17  21
HETATM   21  C   UNL     1      40.636 -16.068   5.947  1.00  0.00     0.170 C 
BRANCH  21  22
HETATM   22  O   UNL     1      39.585 -15.397   6.628  1.00  0.00    -0.400 OA
HETATM   23  H   UNL     1      38.769 -15.911   6.487  1.00  0.00     0.209 HD
ENDBRANCH  21  22
ENDBRANCH  17  21
ENDBRANCH  10  13
ENDBRANCH   4   7
BRANCH   1  24
HETATM   24  N   UNL     1      41.950  -7.864  11.861  1.00  0.00    -0.064 N 
HETATM   25  C   UNL     1      42.076  -8.560  13.239  1.00  0.00     0.255 C 
HETATM   26  C   UNL     1      40.705  -8.681  13.931  1.00  0.00     0.150 C 
HETATM   27  N   UNL     1      40.053  -7.360  14.087  1.00  0.00    -0.375 N 
HETATM   28  C   UNL     1      39.953  -6.585  12.842  1.00  0.00     0.150 C 
HETATM   29  C   UNL     1      41.290  -6.487  12.072  1.00  0.00     0.255 C 
HETATM   30  H   UNL     1      41.298  -8.425  11.296  1.00  0.00     0.280 HD
BRANCH  27  31
HETATM   31  C   UNL     1      40.341  -6.704  15.295  1.00  0.00     0.063 A 
HETATM   32  C   UNL     1      41.625  -6.574  15.835  1.00  0.00     0.032 A 
HETATM   33  C   UNL     1      41.835  -5.947  17.073  1.00  0.00     0.002 A 
HETATM   34  C   UNL     1      40.763  -5.422  17.791  1.00  0.00     0.003 A 
HETATM   35  C   UNL     1      39.480  -5.499  17.265  1.00  0.00     0.039 A 
HETATM   36  C   UNL     1      39.290  -6.113  16.031  1.00  0.00     0.092 A 
BRANCH  36  37
HETATM   37  O   UNL     1      38.028  -6.068  15.493  1.00  0.00    -0.358 OA
HETATM   38  H   UNL     1      37.509  -6.675  16.053  1.00  0.00     0.218 HD
ENDBRANCH  36  37
ENDBRANCH  27  31
ENDBRANCH   1  24
TORSDOF 7
ENDMDL
MODEL 7
REMARK VINA RESULT:      -8.4      9.859     12.794
REMARK  7 active torsions:
REMARK  status: ('A' for Active; 'I' for Inactive)
REMARK    1  A    between atoms: C_3  and  N_4 
REMARK    2  A    between atoms: N_7  and  C_9 
REMARK    3  A    between atoms: N_12  and  C_13 
REMARK    4  A    between atoms: C_16  and  C_17 
REMARK       I    between atoms: C_17  and  N_18 
REMARK    5  A    between atoms: C_20  and  C_21 
REMARK    6  A    between atoms: C_21  and  O_22 
REMARK    7  A    between atoms: C_33  and  O_34 
ROOT
HETATM    1  C   UNL     1      39.774 -14.902   1.861  1.00  0.00     0.191 C 
HETATM    2  C   UNL     1      39.256 -13.476   2.120  1.00  0.00     0.053 C 
HETATM    3  C   UNL     1      39.885 -12.439   1.193  1.00  0.00     0.125 C 
HETATM    4  N   UNL     1      39.716 -12.888  -0.187  1.00  0.00    -0.381 N 
HETATM    5  C   UNL     1      40.291 -14.183  -0.530  1.00  0.00     0.125 C 
HETATM    6  C   UNL     1      39.641 -15.234   0.366  1.00  0.00     0.053 C 
ENDROOT
BRANCH   4   7
HETATM    7  C   UNL     1      39.690 -11.882  -1.157  1.00  0.00     0.030 A 
HETATM    8  C   UNL     1      38.830 -10.774  -1.095  1.00  0.00     0.030 A 
HETATM    9  C   UNL     1      38.869  -9.764  -2.067  1.00  0.00     0.019 A 
HETATM   10  C   UNL     1      39.801  -9.833  -3.103  1.00  0.00     0.032 A 
HETATM   11  C   UNL     1      40.647 -10.936  -3.203  1.00  0.00     0.019 A 
HETATM   12  C   UNL     1      40.590 -11.943  -2.235  1.00  0.00     0.030 A 
BRANCH  10  13
HETATM   13  C   UNL     1      39.873  -8.801  -4.158  1.00  0.00     0.253 C 
HETATM   14  N   UNL     1      40.736  -7.710  -4.011  1.00  0.00    -0.348 N 
HETATM   15  C   UNL     1      41.463  -7.389  -2.775  1.00  0.00     0.132 C 
HETATM   16  C   UNL     1      40.607  -6.628  -4.987  1.00  0.00     0.126 C 
HETATM   17  C   UNL     1      42.796  -6.669  -3.033  1.00  0.00     0.027 C 
HETATM   18  C   UNL     1      42.588  -5.470  -3.965  1.00  0.00     0.010 C 
HETATM   19  C   UNL     1      41.933  -5.929  -5.262  1.00  0.00     0.020 C 
HETATM   20  O   UNL     1      39.172  -8.987  -5.152  1.00  0.00    -0.267 OA
BRANCH  17  21
HETATM   21  C   UNL     1      43.457  -6.259  -1.714  1.00  0.00     0.170 C 
BRANCH  21  22
HETATM   22  O   UNL     1      44.782  -5.787  -1.917  1.00  0.00    -0.400 OA
HETATM   23  H   UNL     1      44.778  -5.241  -2.724  1.00  0.00     0.209 HD
ENDBRANCH  21  22
ENDBRANCH  17  21
ENDBRANCH  10  13
ENDBRANCH   4   7
BRANCH   1  24
HETATM   24  N   UNL     1      41.213 -15.093   2.396  1.00  0.00    -0.064 N 
HETATM   25  C   UNL     1      41.227 -15.921   3.705  1.00  0.00     0.255 C 
HETATM   26  C   UNL     1      42.656 -16.059   4.263  1.00  0.00     0.150 C 
HETATM   27  N   UNL     1      43.574 -16.663   3.270  1.00  0.00    -0.375 N 
HETATM   28  C   UNL     1      43.577 -15.991   1.963  1.00  0.00     0.150 C 
HETATM   29  C   UNL     1      42.161 -15.769   1.385  1.00  0.00     0.255 C 
HETATM   30  H   UNL     1      41.615 -14.172   2.614  1.00  0.00     0.280 HD
BRANCH  27  31
HETATM   31  C   UNL     1      43.667 -18.063   3.335  1.00  0.00     0.063 A 
HETATM   32  C   UNL     1      43.372 -18.922   2.270  1.00  0.00     0.032 A 
HETATM   33  C   UNL     1      43.440 -20.316   2.419  1.00  0.00     0.002 A 
HETATM   34  C   UNL     1      43.821 -20.881   3.635  1.00  0.00     0.003 A 
HETATM   35  C   UNL     1      44.159 -20.055   4.700  1.00  0.00     0.039 A 
HETATM   36  C   UNL     1      44.098 -18.675   4.532  1.00  0.00     0.092 A 
BRANCH  36  37
HETATM   37  O   UNL     1      44.548 -17.896   5.568  1.00  0.00    -0.358 OA
HETATM   38  H   UNL     1      45.166 -17.271   5.145  1.00  0.00     0.218 HD
ENDBRANCH  36  37
ENDBRANCH  27  31
ENDBRANCH   1  24
TORSDOF 7
ENDMDL
MODEL 8
REMARK VINA RESULT:      -8.4      2.191     11.848
REMARK  7 active torsions:
REMARK  status: ('A' for Active; 'I' for Inactive)
REMARK    1  A    between atoms: C_3  and  N_4 
REMARK    2  A    between atoms: N_7  and  C_9 
REMARK    3  A    between atoms: N_12  and  C_13 
REMARK    4  A    between atoms: C_16  and  C_17 
REMARK       I    between atoms: C_17  and  N_18 
REMARK    5  A    between atoms: C_20  and  C_21 
REMARK    6  A    between atoms: C_21  and  O_22 
REMARK    7  A    between atoms: C_33  and  O_34 
ROOT
HETATM    1  C   UNL     1      42.592  -8.070   8.819  1.00  0.00     0.191 C 
HETATM    2  C   UNL     1      43.874  -8.731   8.283  1.00  0.00     0.053 C 
HETATM    3  C   UNL     1      43.645 -10.159   7.795  1.00  0.00     0.125 C 
HETATM    4  N   UNL     1      42.539 -10.150   6.839  1.00  0.00    -0.381 N 
HETATM    5  C   UNL     1      41.260  -9.646   7.322  1.00  0.00     0.125 C 
HETATM    6  C   UNL     1      41.470  -8.203   7.778  1.00  0.00     0.053 C 
ENDROOT
BRANCH   4   7
HETATM    7  C   UNL     1      42.547 -11.175   5.889  1.00  0.00     0.030 A 
HETATM    8  C   UNL     1      41.521 -12.126   5.771  1.00  0.00     0.030 A 
HETATM    9  C   UNL     1      41.549 -13.111   4.774  1.00  0.00     0.019 A 
HETATM   10  C   UNL     1      42.595 -13.135   3.850  1.00  0.00     0.032 A 
HETATM   11  C   UNL     1      43.640 -12.220   3.962  1.00  0.00     0.019 A 
HETATM   12  C   UNL     1      43.609 -11.251   4.969  1.00  0.00     0.030 A 
BRANCH  10  13
HETATM   13  C   UNL     1      42.676 -14.160   2.789  1.00  0.00     0.253 C 
HETATM   14  N   UNL     1      43.034 -15.473   3.112  1.00  0.00    -0.348 N 
HETATM   15  C   UNL     1      43.534 -15.896   4.427  1.00  0.00     0.132 C 
HETATM   16  C   UNL     1      43.295 -16.381   1.996  1.00  0.00     0.126 C 
HETATM   17  C   UNL     1      43.184 -17.353   4.762  1.00  0.00     0.027 C 
HETATM   18  C   UNL     1      43.588 -18.283   3.611  1.00  0.00     0.010 C 
HETATM   19  C   UNL     1      42.925 -17.824   2.318  1.00  0.00     0.020 C 
HETATM   20  O   UNL     1      42.381 -13.793   1.652  1.00  0.00    -0.267 OA
BRANCH  17  21
HETATM   21  C   UNL     1      43.823 -17.777   6.088  1.00  0.00     0.170 C 
BRANCH  21  22
HETATM   22  O   UNL     1      43.030 -17.384   7.200  1.00  0.00    -0.400 OA
HETATM   23  H   UNL     1      43.532 -17.597   8.008  1.00  0.00     0.209 HD
ENDBRANCH  21  22
ENDBRANCH  17  21
ENDBRANCH  10  13
ENDBRANCH   4   7
BRANCH   1  24
HETATM   24  N   UNL     1      42.199  -8.628  10.207  1.00  0.00    -0.064 N 
HETATM   25  C   UNL     1      43.207  -8.195  11.300  1.00  0.00     0.255 C 
HETATM   26  C   UNL     1      42.842  -8.801  12.668  1.00  0.00     0.150 C 
HETATM   27  N   UNL     1      41.464  -8.440  13.076  1.00  0.00    -0.375 N 
HETATM   28  C   UNL     1      40.437  -8.744  12.069  1.00  0.00     0.150 C 
HETATM   29  C   UNL     1      40.785  -8.213  10.659  1.00  0.00     0.255 C 
HETATM   30  H   UNL     1      42.212  -9.656  10.171  1.00  0.00     0.280 HD
BRANCH  27  31
HETATM   31  C   UNL     1      41.369  -7.263  13.836  1.00  0.00     0.063 A 
HETATM   32  C   UNL     1      41.240  -5.981  13.291  1.00  0.00     0.032 A 
HETATM   33  C   UNL     1      41.198  -4.842  14.110  1.00  0.00     0.002 A 
HETATM   34  C   UNL     1      41.269  -4.964  15.496  1.00  0.00     0.003 A 
HETATM   35  C   UNL     1      41.357  -6.225  16.071  1.00  0.00     0.039 A 
HETATM   36  C   UNL     1      41.385  -7.345  15.246  1.00  0.00     0.092 A 
BRANCH  36  37
HETATM   37  O   UNL     1      41.357  -8.575  15.854  1.00  0.00    -0.358 OA
HETATM   38  H   UNL     1      40.984  -8.396  16.737  1.00  0.00     0.218 HD
ENDBRANCH  36  37
ENDBRANCH  27  31
ENDBRANCH   1  24
TORSDOF 7
ENDMDL
MODEL 9
REMARK VINA RESULT:      -8.3      9.422     12.793
REMARK  7 active torsions:
REMARK  status: ('A' for Active; 'I' for Inactive)
REMARK    1  A    between atoms: C_3  and  N_4 
REMARK    2  A    between atoms: N_7  and  C_9 
REMARK    3  A    between atoms: N_12  and  C_13 
REMARK    4  A    between atoms: C_16  and  C_17 
REMARK       I    between atoms: C_17  and  N_18 
REMARK    5  A    between atoms: C_20  and  C_21 
REMARK    6  A    between atoms: C_21  and  O_22 
REMARK    7  A    between atoms: C_33  and  O_34 
ROOT
HETATM    1  C   UNL     1      37.807 -12.275  -2.178  1.00  0.00     0.191 C 
HETATM    2  C   UNL     1      38.341 -13.718  -2.172  1.00  0.00     0.053 C 
HETATM    3  C   UNL     1      39.650 -13.862  -1.398  1.00  0.00     0.125 C 
HETATM    4  N   UNL     1      39.464 -13.294  -0.065  1.00  0.00    -0.381 N 
HETATM    5  C   UNL     1      39.072 -11.892   0.001  1.00  0.00     0.125 C 
HETATM    6  C   UNL     1      37.744 -11.743  -0.738  1.00  0.00     0.053 C 
ENDROOT
BRANCH   4   7
HETATM    7  C   UNL     1      40.285 -13.815   0.939  1.00  0.00     0.030 A 
HETATM    8  C   UNL     1      41.680 -13.655   0.956  1.00  0.00     0.030 A 
HETATM    9  C   UNL     1      42.460 -14.157   2.006  1.00  0.00     0.019 A 
HETATM   10  C   UNL     1      41.846 -14.800   3.082  1.00  0.00     0.032 A 
HETATM   11  C   UNL     1      40.466 -14.997   3.077  1.00  0.00     0.019 A 
HETATM   12  C   UNL     1      39.700 -14.504   2.017  1.00  0.00     0.030 A 
BRANCH  10  13
HETATM   13  C   UNL     1      42.626 -15.358   4.207  1.00  0.00     0.253 C 
HETATM   14  N   UNL     1      43.068 -16.684   4.160  1.00  0.00    -0.348 N 
HETATM   15  C   UNL     1      42.653 -17.660   3.144  1.00  0.00     0.132 C 
HETATM   16  C   UNL     1      43.650 -17.231   5.385  1.00  0.00     0.126 C 
HETATM   17  C   UNL     1      43.725 -18.724   2.861  1.00  0.00     0.027 C 
HETATM   18  C   UNL     1      44.217 -19.354   4.169  1.00  0.00     0.010 C 
HETATM   19  C   UNL     1      44.731 -18.268   5.106  1.00  0.00     0.020 C 
HETATM   20  O   UNL     1      42.877 -14.587   5.132  1.00  0.00    -0.267 OA
BRANCH  17  21
HETATM   21  C   UNL     1      43.202 -19.778   1.881  1.00  0.00     0.170 C 
BRANCH  21  22
HETATM   22  O   UNL     1      43.841 -21.033   2.070  1.00  0.00    -0.400 OA
HETATM   23  H   UNL     1      43.200 -21.728   1.835  1.00  0.00     0.209 HD
ENDBRANCH  21  22
ENDBRANCH  17  21
ENDBRANCH  10  13
ENDBRANCH   4   7
BRANCH   1  24
HETATM   24  N   UNL     1      38.627 -11.366  -3.123  1.00  0.00    -0.064 N 
HETATM   25  C   UNL     1      38.431  -9.867  -2.781  1.00  0.00     0.255 C 
HETATM   26  C   UNL     1      39.205  -8.966  -3.761  1.00  0.00     0.150 C 
HETATM   27  N   UNL     1      40.648  -9.297  -3.786  1.00  0.00    -0.375 N 
HETATM   28  C   UNL     1      40.938 -10.717  -4.029  1.00  0.00     0.150 C 
HETATM   29  C   UNL     1      40.137 -11.671  -3.114  1.00  0.00     0.255 C 
HETATM   30  H   UNL     1      38.299 -11.503  -4.089  1.00  0.00     0.280 HD
BRANCH  27  31
HETATM   31  C   UNL     1      41.431  -8.572  -2.871  1.00  0.00     0.063 A 
HETATM   32  C   UNL     1      41.318  -8.679  -1.480  1.00  0.00     0.032 A 
HETATM   33  C   UNL     1      42.100  -7.888  -0.624  1.00  0.00     0.002 A 
HETATM   34  C   UNL     1      43.023  -6.983  -1.143  1.00  0.00     0.003 A 
HETATM   35  C   UNL     1      43.188  -6.881  -2.518  1.00  0.00     0.039 A 
HETATM   36  C   UNL     1      42.414  -7.681  -3.353  1.00  0.00     0.092 A 
BRANCH  36  37
HETATM   37  O   UNL     1      42.686  -7.634  -4.697  1.00  0.00    -0.358 OA
HETATM   38  H   UNL     1      43.256  -6.850  -4.798  1.00  0.00     0.218 HD
ENDBRANCH  36  37
ENDBRANCH  27  31
ENDBRANCH   1  24
TORSDOF 7
ENDMDL
MODEL 10
REMARK VINA RESULT:      -8.2      2.560      3.404
REMARK  7 active torsions:
REMARK  status: ('A' for Active; 'I' for Inactive)
REMARK    1  A    between atoms: C_3  and  N_4 
REMARK    2  A    between atoms: N_7  and  C_9 
REMARK    3  A    between atoms: N_12  and  C_13 
REMARK    4  A    between atoms: C_16  and  C_17 
REMARK       I    between atoms: C_17  and  N_18 
REMARK    5  A    between atoms: C_20  and  C_21 
REMARK    6  A    between atoms: C_21  and  O_22 
REMARK    7  A    between atoms: C_33  and  O_34 
ROOT
HETATM    1  C   UNL     1      43.631 -12.028   5.247  1.00  0.00     0.191 C 
HETATM    2  C   UNL     1      42.654 -10.912   4.836  1.00  0.00     0.053 C 
HETATM    3  C   UNL     1      42.022 -10.207   6.034  1.00  0.00     0.125 C 
HETATM    4  N   UNL     1      43.091  -9.760   6.925  1.00  0.00    -0.381 N 
HETATM    5  C   UNL     1      43.982 -10.789   7.447  1.00  0.00     0.125 C 
HETATM    6  C   UNL     1      44.649 -11.476   6.257  1.00  0.00     0.053 C 
ENDROOT
BRANCH   4   7
HETATM    7  C   UNL     1      42.794  -8.653   7.724  1.00  0.00     0.030 A 
HETATM    8  C   UNL     1      41.527  -8.050   7.768  1.00  0.00     0.030 A 
HETATM    9  C   UNL     1      41.262  -6.968   8.619  1.00  0.00     0.019 A 
HETATM   10  C   UNL     1      42.259  -6.494   9.471  1.00  0.00     0.032 A 
HETATM   11  C   UNL     1      43.534  -7.056   9.428  1.00  0.00     0.019 A 
HETATM   12  C   UNL     1      43.791  -8.126   8.565  1.00  0.00     0.030 A 
BRANCH  10  13
HETATM   13  C   UNL     1      42.033  -5.348  10.377  1.00  0.00     0.253 C 
HETATM   14  N   UNL     1      41.646  -5.572  11.702  1.00  0.00    -0.348 N 
HETATM   15  C   UNL     1      41.249  -6.879  12.240  1.00  0.00     0.132 C 
HETATM   16  C   UNL     1      41.241  -4.400  12.479  1.00  0.00     0.126 C 
HETATM   17  C   UNL     1      41.559  -7.032  13.737  1.00  0.00     0.027 C 
HETATM   18  C   UNL     1      41.009  -5.838  14.526  1.00  0.00     0.010 C 
HETATM   19  C   UNL     1      41.571  -4.539  13.960  1.00  0.00     0.020 C 
HETATM   20  O   UNL     1      42.240  -4.231   9.905  1.00  0.00    -0.267 OA
BRANCH  17  21
HETATM   21  C   UNL     1      41.026  -8.364  14.272  1.00  0.00     0.170 C 
BRANCH  21  22
HETATM   22  O   UNL     1      41.446  -8.598  15.609  1.00  0.00    -0.400 OA
HETATM   23  H   UNL     1      40.712  -8.342  16.197  1.00  0.00     0.209 HD
ENDBRANCH  21  22
ENDBRANCH  17  21
ENDBRANCH  10  13
ENDBRANCH   4   7
BRANCH   1  24
HETATM   24  N   UNL     1      42.883 -13.279   5.765  1.00  0.00    -0.064 N 
HETATM   25  C   UNL     1      42.245 -14.081   4.603  1.00  0.00     0.255 C 
HETATM   26  C   UNL     1      41.455 -15.294   5.131  1.00  0.00     0.150 C 
HETATM   27  N   UNL     1      42.304 -16.183   5.955  1.00  0.00    -0.375 N 
HETATM   28  C   UNL     1      43.016 -15.499   7.044  1.00  0.00     0.150 C 
HETATM   29  C   UNL     1      43.776 -14.235   6.581  1.00  0.00     0.255 C 
HETATM   30  H   UNL     1      42.119 -12.981   6.385  1.00  0.00     0.280 HD
BRANCH  27  31
HETATM   31  C   UNL     1      42.944 -17.210   5.241  1.00  0.00     0.063 A 
HETATM   32  C   UNL     1      43.187 -17.177   3.863  1.00  0.00     0.032 A 
HETATM   33  C   UNL     1      43.789 -18.261   3.204  1.00  0.00     0.002 A 
HETATM   34  C   UNL     1      44.174 -19.395   3.914  1.00  0.00     0.003 A 
HETATM   35  C   UNL     1      43.983 -19.443   5.289  1.00  0.00     0.039 A 
HETATM   36  C   UNL     1      43.396 -18.356   5.929  1.00  0.00     0.092 A 
BRANCH  36  37
HETATM   37  O   UNL     1      43.330 -18.394   7.299  1.00  0.00    -0.358 OA
HETATM   38  H   UNL     1      43.394 -19.343   7.515  1.00  0.00     0.218 HD
ENDBRANCH  36  37
ENDBRANCH  27  31
ENDBRANCH   1  24
TORSDOF 7
ENDMDL
