MODEL 1
REMARK VINA RESULT:      -8.2      0.000      0.000
REMARK  8 active torsions:
REMARK  status: ('A' for Active; 'I' for Inactive)
REMARK    1  A    between atoms: O_2  and  C_3 
REMARK    2  A    between atoms: C_4  and  O_5 
REMARK    3  A    between atoms: C_8  and  C_9 
REMARK    4  A    between atoms: C_9  and  C_10 
REMARK    5  A    between atoms: C_10  and  N_11 
REMARK       I    between atoms: N_11  and  C_12 
REMARK    6  A    between atoms: C_12  and  C_13 
REMARK    7  A    between atoms: C_14  and  N_15 
REMARK       I    between atoms: N_15  and  C_16 
REMARK    8  A    between atoms: C_16  and  C_17 
ROOT
HETATM    1  C   UNL     1      43.618 -18.341   4.196  1.00  0.00     0.058 A 
HETATM    2  C   UNL     1      43.142 -18.193   2.879  1.00  0.00     0.050 A 
HETATM    3  C   UNL     1      43.176 -19.311   2.026  1.00  0.00     0.030 A 
HETATM    4  C   UNL     1      43.586 -20.565   2.488  1.00  0.00     0.002 A 
HETATM    5  C   UNL     1      43.984 -20.720   3.809  1.00  0.00     0.001 A 
HETATM    6  C   UNL     1      44.009 -19.613   4.656  1.00  0.00     0.019 A 
ENDROOT
BRANCH   1   7
HETATM    7  C   UNL     1      43.913 -17.230   5.144  1.00  0.00     0.253 C 
HETATM    8  N   UNL     1      43.576 -17.463   6.463  1.00  0.00    -0.356 N 
HETATM    9  H   UNL     1      43.283 -18.393   6.730  1.00  0.00     0.162 HD
HETATM   10  O   UNL     1      44.320 -16.152   4.726  1.00  0.00    -0.268 OA
BRANCH   8  11
HETATM   11  C   UNL     1      43.925 -16.514   7.500  1.00  0.00     0.127 C 
BRANCH  11  12
HETATM   12  C   UNL     1      42.785 -15.545   7.829  1.00  0.00     0.058 C 
BRANCH  12  13
HETATM   13  C   UNL     1      42.841 -14.316   6.953  1.00  0.00    -0.054 A 
HETATM   14  C   UNL     1      43.980 -13.496   6.942  1.00  0.00     0.046 A 
HETATM   15  C   UNL     1      44.050 -12.381   6.096  1.00  0.00     0.102 A 
HETATM   16  C   UNL     1      42.969 -12.092   5.246  1.00  0.00     0.101 A 
HETATM   17  C   UNL     1      41.823 -12.895   5.273  1.00  0.00     0.040 A 
HETATM   18  C   UNL     1      41.764 -14.005   6.115  1.00  0.00     0.010 A 
BRANCH  15  19
HETATM   19  O   UNL     1      45.125 -11.531   6.015  1.00  0.00    -0.353 OA
HETATM   20  C   UNL     1      45.609 -10.967   7.225  1.00  0.00     0.210 C 
ENDBRANCH  15  19
BRANCH  16  21
HETATM   21  O   UNL     1      43.078 -10.979   4.447  1.00  0.00    -0.353 OA
HETATM   22  C   UNL     1      42.008 -10.049   4.566  1.00  0.00     0.210 C 
ENDBRANCH  16  21
ENDBRANCH  12  13
ENDBRANCH  11  12
ENDBRANCH   8  11
ENDBRANCH   1   7
BRANCH   2  23
HETATM   23  N   UNL     1      42.592 -17.024   2.299  1.00  0.00    -0.320 N 
HETATM   24  C   UNL     1      41.477 -16.336   2.743  1.00  0.00     0.280 C 
HETATM   25  O   UNL     1      40.824 -16.573   3.749  1.00  0.00    -0.265 OA
HETATM   26  H   UNL     1      42.821 -16.840   1.327  1.00  0.00     0.169 HD
BRANCH  24  27
HETATM   27  C   UNL     1      41.074 -15.255   1.766  1.00  0.00     0.143 C 
HETATM   28  O   UNL     1      40.081 -15.576   0.852  1.00  0.00    -0.345 OA
HETATM   29  C   UNL     1      39.890 -14.644  -0.220  1.00  0.00     0.186 C 
HETATM   30  C   UNL     1      39.734 -13.211   0.260  1.00  0.00     0.105 C 
HETATM   31  S   UNL     1      41.321 -12.666   0.943  1.00  0.00    -0.136 SA
HETATM   32  C   UNL     1      41.691 -14.065   1.895  1.00  0.00     0.087 C 
ENDBRANCH  24  27
ENDBRANCH   2  23
TORSDOF 8
ENDMDL
MODEL 2
REMARK VINA RESULT:      -7.9      2.562      6.310
REMARK  8 active torsions:
REMARK  status: ('A' for Active; 'I' for Inactive)
REMARK    1  A    between atoms: O_2  and  C_3 
REMARK    2  A    between atoms: C_4  and  O_5 
REMARK    3  A    between atoms: C_8  and  C_9 
REMARK    4  A    between atoms: C_9  and  C_10 
REMARK    5  A    between atoms: C_10  and  N_11 
REMARK       I    between atoms: N_11  and  C_12 
REMARK    6  A    between atoms: C_12  and  C_13 
REMARK    7  A    between atoms: C_14  and  N_15 
REMARK       I    between atoms: N_15  and  C_16 
REMARK    8  A    between atoms: C_16  and  C_17 
ROOT
HETATM    1  C   UNL     1      43.167 -17.421   3.019  1.00  0.00     0.058 A 
HETATM    2  C   UNL     1      43.567 -17.037   4.313  1.00  0.00     0.050 A 
HETATM    3  C   UNL     1      44.077 -18.025   5.176  1.00  0.00     0.030 A 
HETATM    4  C   UNL     1      44.269 -19.339   4.743  1.00  0.00     0.002 A 
HETATM    5  C   UNL     1      43.942 -19.694   3.440  1.00  0.00     0.001 A 
HETATM    6  C   UNL     1      43.386 -18.743   2.587  1.00  0.00     0.019 A 
ENDROOT
BRANCH   1   7
HETATM    7  C   UNL     1      42.366 -16.593   2.075  1.00  0.00     0.253 C 
HETATM    8  N   UNL     1      41.005 -16.569   2.306  1.00  0.00    -0.356 N 
HETATM    9  H   UNL     1      40.651 -16.989   3.154  1.00  0.00     0.162 HD
HETATM   10  O   UNL     1      42.900 -16.074   1.100  1.00  0.00    -0.268 OA
BRANCH   8  11
HETATM   11  C   UNL     1      40.134 -15.704   1.537  1.00  0.00     0.127 C 
BRANCH  11  12
HETATM   12  C   UNL     1      40.465 -14.219   1.710  1.00  0.00     0.058 C 
BRANCH  12  13
HETATM   13  C   UNL     1      40.552 -13.518   0.376  1.00  0.00    -0.054 A 
HETATM   14  C   UNL     1      40.139 -14.163  -0.800  1.00  0.00     0.046 A 
HETATM   15  C   UNL     1      40.177 -13.497  -2.032  1.00  0.00     0.102 A 
HETATM   16  C   UNL     1      40.626 -12.167  -2.083  1.00  0.00     0.101 A 
HETATM   17  C   UNL     1      41.060 -11.530  -0.915  1.00  0.00     0.040 A 
HETATM   18  C   UNL     1      41.015 -12.199   0.307  1.00  0.00     0.010 A 
BRANCH  15  19
HETATM   19  O   UNL     1      39.786 -14.048  -3.228  1.00  0.00    -0.353 OA
HETATM   20  C   UNL     1      38.460 -14.545  -3.320  1.00  0.00     0.210 C 
ENDBRANCH  15  19
BRANCH  16  21
HETATM   21  O   UNL     1      40.660 -11.562  -3.317  1.00  0.00    -0.353 OA
HETATM   22  C   UNL     1      40.642 -10.139  -3.286  1.00  0.00     0.210 C 
ENDBRANCH  16  21
ENDBRANCH  12  13
ENDBRANCH  11  12
ENDBRANCH   8  11
ENDBRANCH   1   7
BRANCH   2  23
HETATM   23  N   UNL     1      43.542 -15.731   4.859  1.00  0.00    -0.320 N 
HETATM   24  C   UNL     1      42.415 -15.019   5.228  1.00  0.00     0.280 C 
HETATM   25  O   UNL     1      41.260 -15.420   5.216  1.00  0.00    -0.265 OA
HETATM   26  H   UNL     1      44.354 -15.145   4.691  1.00  0.00     0.169 HD
BRANCH  24  27
HETATM   27  C   UNL     1      42.760 -13.591   5.588  1.00  0.00     0.143 C 
HETATM   28  O   UNL     1      42.061 -12.592   4.926  1.00  0.00    -0.345 OA
HETATM   29  C   UNL     1      42.568 -11.262   5.084  1.00  0.00     0.186 C 
HETATM   30  C   UNL     1      42.798 -10.883   6.537  1.00  0.00     0.105 C 
HETATM   31  S   UNL     1      44.173 -11.878   7.171  1.00  0.00    -0.136 SA
HETATM   32  C   UNL     1      43.691 -13.419   6.545  1.00  0.00     0.087 C 
ENDBRANCH  24  27
ENDBRANCH   2  23
TORSDOF 8
ENDMDL
MODEL 3
REMARK VINA RESULT:      -7.8      2.480      6.192
REMARK  8 active torsions:
REMARK  status: ('A' for Active; 'I' for Inactive)
REMARK    1  A    between atoms: O_2  and  C_3 
REMARK    2  A    between atoms: C_4  and  O_5 
REMARK    3  A    between atoms: C_8  and  C_9 
REMARK    4  A    between atoms: C_9  and  C_10 
REMARK    5  A    between atoms: C_10  and  N_11 
REMARK       I    between atoms: N_11  and  C_12 
REMARK    6  A    between atoms: C_12  and  C_13 
REMARK    7  A    between atoms: C_14  and  N_15 
REMARK       I    between atoms: N_15  and  C_16 
REMARK    8  A    between atoms: C_16  and  C_17 
ROOT
HETATM    1  C   UNL     1      43.126 -17.200   3.058  1.00  0.00     0.058 A 
HETATM    2  C   UNL     1      43.546 -16.940   4.376  1.00  0.00     0.050 A 
HETATM    3  C   UNL     1      44.056 -18.007   5.138  1.00  0.00     0.030 A 
HETATM    4  C   UNL     1      44.229 -19.279   4.584  1.00  0.00     0.002 A 
HETATM    5  C   UNL     1      43.882 -19.510   3.259  1.00  0.00     0.001 A 
HETATM    6  C   UNL     1      43.324 -18.480   2.504  1.00  0.00     0.019 A 
ENDROOT
BRANCH   1   7
HETATM    7  C   UNL     1      42.321 -16.282   2.205  1.00  0.00     0.253 C 
HETATM    8  N   UNL     1      40.987 -16.166   2.541  1.00  0.00    -0.356 N 
HETATM    9  H   UNL     1      40.667 -16.590   3.401  1.00  0.00     0.162 HD
HETATM   10  O   UNL     1      42.818 -15.769   1.208  1.00  0.00    -0.268 OA
BRANCH   8  11
HETATM   11  C   UNL     1      40.129 -15.212   1.869  1.00  0.00     0.127 C 
BRANCH  11  12
HETATM   12  C   UNL     1      39.749 -15.647   0.451  1.00  0.00     0.058 C 
BRANCH  12  13
HETATM   13  C   UNL     1      39.821 -14.489  -0.515  1.00  0.00    -0.054 A 
HETATM   14  C   UNL     1      40.561 -13.339  -0.200  1.00  0.00     0.046 A 
HETATM   15  C   UNL     1      40.665 -12.283  -1.114  1.00  0.00     0.102 A 
HETATM   16  C   UNL     1      40.028 -12.387  -2.363  1.00  0.00     0.101 A 
HETATM   17  C   UNL     1      39.271 -13.523  -2.670  1.00  0.00     0.040 A 
HETATM   18  C   UNL     1      39.176 -14.571  -1.754  1.00  0.00     0.010 A 
BRANCH  15  19
HETATM   19  O   UNL     1      41.371 -11.126  -0.893  1.00  0.00    -0.353 OA
HETATM   20  C   UNL     1      41.237 -10.508   0.378  1.00  0.00     0.210 C 
ENDBRANCH  15  19
BRANCH  16  21
HETATM   21  O   UNL     1      40.146 -11.319  -3.219  1.00  0.00    -0.353 OA
HETATM   22  C   UNL     1      38.984 -10.506  -3.327  1.00  0.00     0.210 C 
ENDBRANCH  16  21
ENDBRANCH  12  13
ENDBRANCH  11  12
ENDBRANCH   8  11
ENDBRANCH   1   7
BRANCH   2  23
HETATM   23  N   UNL     1      43.542 -15.689   5.040  1.00  0.00    -0.320 N 
HETATM   24  C   UNL     1      42.440 -15.052   5.580  1.00  0.00     0.280 C 
HETATM   25  O   UNL     1      41.300 -15.490   5.643  1.00  0.00    -0.265 OA
HETATM   26  H   UNL     1      44.319 -15.063   4.848  1.00  0.00     0.169 HD
BRANCH  24  27
HETATM   27  C   UNL     1      42.782 -13.651   6.034  1.00  0.00     0.143 C 
HETATM   28  O   UNL     1      44.052 -13.456   6.559  1.00  0.00    -0.345 OA
HETATM   29  C   UNL     1      44.274 -12.202   7.215  1.00  0.00     0.186 C 
HETATM   30  C   UNL     1      43.852 -11.009   6.374  1.00  0.00     0.105 C 
HETATM   31  S   UNL     1      42.046 -11.032   6.224  1.00  0.00    -0.136 SA
HETATM   32  C   UNL     1      41.835 -12.711   5.857  1.00  0.00     0.087 C 
ENDBRANCH  24  27
ENDBRANCH   2  23
TORSDOF 8
ENDMDL
MODEL 4
REMARK VINA RESULT:      -7.5      2.286      3.379
REMARK  8 active torsions:
REMARK  status: ('A' for Active; 'I' for Inactive)
REMARK    1  A    between atoms: O_2  and  C_3 
REMARK    2  A    between atoms: C_4  and  O_5 
REMARK    3  A    between atoms: C_8  and  C_9 
REMARK    4  A    between atoms: C_9  and  C_10 
REMARK    5  A    between atoms: C_10  and  N_11 
REMARK       I    between atoms: N_11  and  C_12 
REMARK    6  A    between atoms: C_12  and  C_13 
REMARK    7  A    between atoms: C_14  and  N_15 
REMARK       I    between atoms: N_15  and  C_16 
REMARK    8  A    between atoms: C_16  and  C_17 
ROOT
HETATM    1  C   UNL     1      43.025 -16.117   4.289  1.00  0.00     0.058 A 
HETATM    2  C   UNL     1      42.843 -16.318   2.907  1.00  0.00     0.050 A 
HETATM    3  C   UNL     1      43.334 -17.507   2.335  1.00  0.00     0.030 A 
HETATM    4  C   UNL     1      43.908 -18.509   3.121  1.00  0.00     0.002 A 
HETATM    5  C   UNL     1      44.016 -18.335   4.495  1.00  0.00     0.001 A 
HETATM    6  C   UNL     1      43.586 -17.143   5.074  1.00  0.00     0.019 A 
ENDROOT
BRANCH   1   7
HETATM    7  C   UNL     1      42.826 -14.831   5.013  1.00  0.00     0.253 C 
HETATM    8  N   UNL     1      43.498 -14.708   6.213  1.00  0.00    -0.356 N 
HETATM    9  H   UNL     1      44.175 -15.417   6.462  1.00  0.00     0.162 HD
HETATM   10  O   UNL     1      42.019 -14.006   4.599  1.00  0.00    -0.268 OA
BRANCH   8  11
HETATM   11  C   UNL     1      43.487 -13.462   6.950  1.00  0.00     0.127 C 
BRANCH  11  12
HETATM   12  C   UNL     1      44.641 -12.531   6.566  1.00  0.00     0.058 C 
BRANCH  12  13
HETATM   13  C   UNL     1      44.423 -11.137   7.103  1.00  0.00    -0.054 A 
HETATM   14  C   UNL     1      43.208 -10.469   6.888  1.00  0.00     0.046 A 
HETATM   15  C   UNL     1      42.988  -9.194   7.425  1.00  0.00     0.102 A 
HETATM   16  C   UNL     1      43.997  -8.586   8.193  1.00  0.00     0.101 A 
HETATM   17  C   UNL     1      45.218  -9.241   8.388  1.00  0.00     0.040 A 
HETATM   18  C   UNL     1      45.425 -10.512   7.854  1.00  0.00     0.010 A 
BRANCH  15  19
HETATM   19  O   UNL     1      41.831  -8.472   7.271  1.00  0.00    -0.353 OA
HETATM   20  C   UNL     1      40.603  -9.138   7.524  1.00  0.00     0.210 C 
ENDBRANCH  15  19
BRANCH  16  21
HETATM   21  O   UNL     1      43.740  -7.329   8.685  1.00  0.00    -0.353 OA
HETATM   22  C   UNL     1      43.255  -7.297  10.022  1.00  0.00     0.210 C 
ENDBRANCH  16  21
ENDBRANCH  12  13
ENDBRANCH  11  12
ENDBRANCH   8  11
ENDBRANCH   1   7
BRANCH   2  23
HETATM   23  N   UNL     1      42.184 -15.454   2.000  1.00  0.00    -0.320 N 
HETATM   24  C   UNL     1      40.817 -15.352   1.812  1.00  0.00     0.280 C 
HETATM   25  O   UNL     1      39.947 -15.932   2.444  1.00  0.00    -0.265 OA
HETATM   26  H   UNL     1      42.728 -15.106   1.216  1.00  0.00     0.169 HD
BRANCH  24  27
HETATM   27  C   UNL     1      40.490 -14.469   0.629  1.00  0.00     0.143 C 
HETATM   28  O   UNL     1      39.608 -14.983  -0.311  1.00  0.00    -0.345 OA
HETATM   29  C   UNL     1      39.505 -14.254  -1.540  1.00  0.00     0.186 C 
HETATM   30  C   UNL     1      39.260 -12.770  -1.330  1.00  0.00     0.105 C 
HETATM   31  S   UNL     1      40.752 -12.047  -0.598  1.00  0.00    -0.136 SA
HETATM   32  C   UNL     1      41.057 -13.248   0.612  1.00  0.00     0.087 C 
ENDBRANCH  24  27
ENDBRANCH   2  23
TORSDOF 8
ENDMDL
MODEL 5
REMARK VINA RESULT:      -7.5      4.379      8.672
REMARK  8 active torsions:
REMARK  status: ('A' for Active; 'I' for Inactive)
REMARK    1  A    between atoms: O_2  and  C_3 
REMARK    2  A    between atoms: C_4  and  O_5 
REMARK    3  A    between atoms: C_8  and  C_9 
REMARK    4  A    between atoms: C_9  and  C_10 
REMARK    5  A    between atoms: C_10  and  N_11 
REMARK       I    between atoms: N_11  and  C_12 
REMARK    6  A    between atoms: C_12  and  C_13 
REMARK    7  A    between atoms: C_14  and  N_15 
REMARK       I    between atoms: N_15  and  C_16 
REMARK    8  A    between atoms: C_16  and  C_17 
ROOT
HETATM    1  C   UNL     1      43.562 -11.247   6.784  1.00  0.00     0.058 A 
HETATM    2  C   UNL     1      43.848 -10.714   8.056  1.00  0.00     0.050 A 
HETATM    3  C   UNL     1      45.196 -10.543   8.420  1.00  0.00     0.030 A 
HETATM    4  C   UNL     1      46.232 -10.807   7.520  1.00  0.00     0.002 A 
HETATM    5  C   UNL     1      45.939 -11.261   6.241  1.00  0.00     0.001 A 
HETATM    6  C   UNL     1      44.612 -11.489   5.878  1.00  0.00     0.019 A 
ENDROOT
BRANCH   1   7
HETATM    7  C   UNL     1      42.235 -11.748   6.331  1.00  0.00     0.253 C 
HETATM    8  N   UNL     1      42.237 -12.990   5.727  1.00  0.00    -0.356 N 
HETATM    9  H   UNL     1      43.089 -13.535   5.746  1.00  0.00     0.162 HD
HETATM   10  O   UNL     1      41.245 -11.028   6.400  1.00  0.00    -0.268 OA
BRANCH   8  11
HETATM   11  C   UNL     1      40.998 -13.641   5.356  1.00  0.00     0.127 C 
BRANCH  11  12
HETATM   12  C   UNL     1      40.754 -14.942   6.127  1.00  0.00     0.058 C 
BRANCH  12  13
HETATM   13  C   UNL     1      41.751 -16.006   5.736  1.00  0.00    -0.054 A 
HETATM   14  C   UNL     1      42.060 -16.236   4.386  1.00  0.00     0.046 A 
HETATM   15  C   UNL     1      43.018 -17.192   4.025  1.00  0.00     0.102 A 
HETATM   16  C   UNL     1      43.679 -17.919   5.030  1.00  0.00     0.101 A 
HETATM   17  C   UNL     1      43.356 -17.707   6.374  1.00  0.00     0.040 A 
HETATM   18  C   UNL     1      42.403 -16.750   6.724  1.00  0.00     0.010 A 
BRANCH  15  19
HETATM   19  O   UNL     1      43.387 -17.477   2.733  1.00  0.00    -0.353 OA
HETATM   20  C   UNL     1      43.241 -16.448   1.766  1.00  0.00     0.210 C 
ENDBRANCH  15  19
BRANCH  16  21
HETATM   21  O   UNL     1      44.599 -18.856   4.625  1.00  0.00    -0.353 OA
HETATM   22  C   UNL     1      44.291 -20.195   4.994  1.00  0.00     0.210 C 
ENDBRANCH  16  21
ENDBRANCH  12  13
ENDBRANCH  11  12
ENDBRANCH   8  11
ENDBRANCH   1   7
BRANCH   2  23
HETATM   23  N   UNL     1      42.914 -10.293   9.032  1.00  0.00    -0.320 N 
HETATM   24  C   UNL     1      42.358  -9.031   9.145  1.00  0.00     0.280 C 
HETATM   25  O   UNL     1      42.519  -8.091   8.380  1.00  0.00    -0.265 OA
HETATM   26  H   UNL     1      42.870 -10.832   9.892  1.00  0.00     0.169 HD
BRANCH  24  27
HETATM   27  C   UNL     1      41.554  -8.896  10.418  1.00  0.00     0.143 C 
HETATM   28  O   UNL     1      40.474  -8.025  10.387  1.00  0.00    -0.345 OA
HETATM   29  C   UNL     1      39.883  -7.713  11.654  1.00  0.00     0.186 C 
HETATM   30  C   UNL     1      39.553  -8.947  12.475  1.00  0.00     0.105 C 
HETATM   31  S   UNL     1      41.111  -9.726  12.978  1.00  0.00    -0.136 SA
HETATM   32  C   UNL     1      41.939  -9.658  11.459  1.00  0.00     0.087 C 
ENDBRANCH  24  27
ENDBRANCH   2  23
TORSDOF 8
ENDMDL
MODEL 6
REMARK VINA RESULT:      -7.5      4.288      8.670
REMARK  8 active torsions:
REMARK  status: ('A' for Active; 'I' for Inactive)
REMARK    1  A    between atoms: O_2  and  C_3 
REMARK    2  A    between atoms: C_4  and  O_5 
REMARK    3  A    between atoms: C_8  and  C_9 
REMARK    4  A    between atoms: C_9  and  C_10 
REMARK    5  A    between atoms: C_10  and  N_11 
REMARK       I    between atoms: N_11  and  C_12 
REMARK    6  A    between atoms: C_12  and  C_13 
REMARK    7  A    between atoms: C_14  and  N_15 
REMARK       I    between atoms: N_15  and  C_16 
REMARK    8  A    between atoms: C_16  and  C_17 
ROOT
HETATM    1  C   UNL     1      43.834 -11.344   6.792  1.00  0.00     0.058 A 
HETATM    2  C   UNL     1      44.035 -10.789   8.070  1.00  0.00     0.050 A 
HETATM    3  C   UNL     1      45.350 -10.488   8.469  1.00  0.00     0.030 A 
HETATM    4  C   UNL     1      46.429 -10.647   7.595  1.00  0.00     0.002 A 
HETATM    5  C   UNL     1      46.214 -11.125   6.309  1.00  0.00     0.001 A 
HETATM    6  C   UNL     1      44.926 -11.481   5.913  1.00  0.00     0.019 A 
ENDROOT
BRANCH   1   7
HETATM    7  C   UNL     1      42.574 -11.972   6.305  1.00  0.00     0.253 C 
HETATM    8  N   UNL     1      42.729 -13.098   5.521  1.00  0.00    -0.356 N 
HETATM    9  H   UNL     1      43.651 -13.503   5.434  1.00  0.00     0.162 HD
HETATM   10  O   UNL     1      41.493 -11.430   6.510  1.00  0.00    -0.268 OA
BRANCH   8  11
HETATM   11  C   UNL     1      41.582 -13.870   5.090  1.00  0.00     0.127 C 
BRANCH  11  12
HETATM   12  C   UNL     1      41.633 -14.236   3.604  1.00  0.00     0.058 C 
BRANCH  12  13
HETATM   13  C   UNL     1      42.346 -15.550   3.387  1.00  0.00    -0.054 A 
HETATM   14  C   UNL     1      42.870 -16.268   4.473  1.00  0.00     0.046 A 
HETATM   15  C   UNL     1      43.490 -17.508   4.278  1.00  0.00     0.102 A 
HETATM   16  C   UNL     1      43.578 -18.038   2.979  1.00  0.00     0.101 A 
HETATM   17  C   UNL     1      43.077 -17.313   1.892  1.00  0.00     0.040 A 
HETATM   18  C   UNL     1      42.457 -16.081   2.098  1.00  0.00     0.010 A 
BRANCH  15  19
HETATM   19  O   UNL     1      44.023 -18.280   5.281  1.00  0.00    -0.353 OA
HETATM   20  C   UNL     1      43.369 -18.264   6.540  1.00  0.00     0.210 C 
ENDBRANCH  15  19
BRANCH  16  21
HETATM   21  O   UNL     1      44.210 -19.250   2.836  1.00  0.00    -0.353 OA
HETATM   22  C   UNL     1      43.423 -20.266   2.225  1.00  0.00     0.210 C 
ENDBRANCH  16  21
ENDBRANCH  12  13
ENDBRANCH  11  12
ENDBRANCH   8  11
ENDBRANCH   1   7
BRANCH   2  23
HETATM   23  N   UNL     1      43.039 -10.463   9.022  1.00  0.00    -0.320 N 
HETATM   24  C   UNL     1      42.354  -9.265   9.115  1.00  0.00     0.280 C 
HETATM   25  O   UNL     1      42.435  -8.316   8.348  1.00  0.00    -0.265 OA
HETATM   26  H   UNL     1      43.032 -11.001   9.884  1.00  0.00     0.169 HD
BRANCH  24  27
HETATM   27  C   UNL     1      41.511  -9.208  10.368  1.00  0.00     0.143 C 
HETATM   28  O   UNL     1      40.231  -8.689  10.239  1.00  0.00    -0.345 OA
HETATM   29  C   UNL     1      39.542  -8.405  11.463  1.00  0.00     0.186 C 
HETATM   30  C   UNL     1      39.551  -9.573  12.434  1.00  0.00     0.105 C 
HETATM   31  S   UNL     1      41.251  -9.813  13.015  1.00  0.00    -0.136 SA
HETATM   32  C   UNL     1      42.067  -9.699  11.492  1.00  0.00     0.087 C 
ENDBRANCH  24  27
ENDBRANCH   2  23
TORSDOF 8
ENDMDL
MODEL 7
REMARK VINA RESULT:      -7.4      2.426      6.183
REMARK  8 active torsions:
REMARK  status: ('A' for Active; 'I' for Inactive)
REMARK    1  A    between atoms: O_2  and  C_3 
REMARK    2  A    between atoms: C_4  and  O_5 
REMARK    3  A    between atoms: C_8  and  C_9 
REMARK    4  A    between atoms: C_9  and  C_10 
REMARK    5  A    between atoms: C_10  and  N_11 
REMARK       I    between atoms: N_11  and  C_12 
REMARK    6  A    between atoms: C_12  and  C_13 
REMARK    7  A    between atoms: C_14  and  N_15 
REMARK       I    between atoms: N_15  and  C_16 
REMARK    8  A    between atoms: C_16  and  C_17 
ROOT
HETATM    1  C   UNL     1      43.286 -17.545   3.104  1.00  0.00     0.058 A 
HETATM    2  C   UNL     1      43.591 -17.225   4.440  1.00  0.00     0.050 A 
HETATM    3  C   UNL     1      43.999 -18.262   5.300  1.00  0.00     0.030 A 
HETATM    4  C   UNL     1      44.186 -19.564   4.830  1.00  0.00     0.002 A 
HETATM    5  C   UNL     1      43.955 -19.857   3.492  1.00  0.00     0.001 A 
HETATM    6  C   UNL     1      43.498 -18.857   2.637  1.00  0.00     0.019 A 
ENDROOT
BRANCH   1   7
HETATM    7  C   UNL     1      42.589 -16.655   2.134  1.00  0.00     0.253 C 
HETATM    8  N   UNL     1      41.223 -16.541   2.300  1.00  0.00    -0.356 N 
HETATM    9  H   UNL     1      40.801 -16.945   3.125  1.00  0.00     0.162 HD
HETATM   10  O   UNL     1      43.203 -16.164   1.193  1.00  0.00    -0.268 OA
BRANCH   8  11
HETATM   11  C   UNL     1      40.450 -15.611   1.502  1.00  0.00     0.127 C 
BRANCH  11  12
HETATM   12  C   UNL     1      40.621 -14.157   1.950  1.00  0.00     0.058 C 
BRANCH  12  13
HETATM   13  C   UNL     1      39.716 -13.233   1.170  1.00  0.00    -0.054 A 
HETATM   14  C   UNL     1      39.584 -13.368  -0.221  1.00  0.00     0.046 A 
HETATM   15  C   UNL     1      38.711 -12.541  -0.939  1.00  0.00     0.102 A 
HETATM   16  C   UNL     1      37.956 -11.574  -0.253  1.00  0.00     0.101 A 
HETATM   17  C   UNL     1      38.104 -11.423   1.130  1.00  0.00     0.040 A 
HETATM   18  C   UNL     1      38.973 -12.254   1.837  1.00  0.00     0.010 A 
BRANCH  15  19
HETATM   19  O   UNL     1      38.514 -12.607  -2.297  1.00  0.00    -0.353 OA
HETATM   20  C   UNL     1      38.095 -13.850  -2.840  1.00  0.00     0.210 C 
ENDBRANCH  15  19
BRANCH  16  21
HETATM   21  O   UNL     1      37.126 -10.777  -1.004  1.00  0.00    -0.353 OA
HETATM   22  C   UNL     1      36.707  -9.578  -0.362  1.00  0.00     0.210 C 
ENDBRANCH  16  21
ENDBRANCH  12  13
ENDBRANCH  11  12
ENDBRANCH   8  11
ENDBRANCH   1   7
BRANCH   2  23
HETATM   23  N   UNL     1      43.561 -15.941   5.036  1.00  0.00    -0.320 N 
HETATM   24  C   UNL     1      42.430 -15.229   5.392  1.00  0.00     0.280 C 
HETATM   25  O   UNL     1      41.272 -15.615   5.324  1.00  0.00    -0.265 OA
HETATM   26  H   UNL     1      44.386 -15.359   4.920  1.00  0.00     0.169 HD
BRANCH  24  27
HETATM   27  C   UNL     1      42.778 -13.821   5.820  1.00  0.00     0.143 C 
HETATM   28  O   UNL     1      43.982 -13.650   6.489  1.00  0.00    -0.345 OA
HETATM   29  C   UNL     1      44.179 -12.373   7.109  1.00  0.00     0.186 C 
HETATM   30  C   UNL     1      43.918 -11.210   6.167  1.00  0.00     0.105 C 
HETATM   31  S   UNL     1      42.145 -11.168   5.795  1.00  0.00    -0.136 SA
HETATM   32  C   UNL     1      41.904 -12.854   5.483  1.00  0.00     0.087 C 
ENDBRANCH  24  27
ENDBRANCH   2  23
TORSDOF 8
ENDMDL
MODEL 8
REMARK VINA RESULT:      -6.9     14.864     17.175
REMARK  8 active torsions:
REMARK  status: ('A' for Active; 'I' for Inactive)
REMARK    1  A    between atoms: O_2  and  C_3 
REMARK    2  A    between atoms: C_4  and  O_5 
REMARK    3  A    between atoms: C_8  and  C_9 
REMARK    4  A    between atoms: C_9  and  C_10 
REMARK    5  A    between atoms: C_10  and  N_11 
REMARK       I    between atoms: N_11  and  C_12 
REMARK    6  A    between atoms: C_12  and  C_13 
REMARK    7  A    between atoms: C_14  and  N_15 
REMARK       I    between atoms: N_15  and  C_16 
REMARK    8  A    between atoms: C_16  and  C_17 
ROOT
HETATM    1  C   UNL     1      49.321 -30.142   1.873  1.00  0.00     0.058 A 
HETATM    2  C   UNL     1      48.302 -30.476   2.785  1.00  0.00     0.050 A 
HETATM    3  C   UNL     1      48.666 -30.814   4.101  1.00  0.00     0.030 A 
HETATM    4  C   UNL     1      49.993 -30.737   4.530  1.00  0.00     0.002 A 
HETATM    5  C   UNL     1      50.985 -30.334   3.646  1.00  0.00     0.001 A 
HETATM    6  C   UNL     1      50.653 -30.048   2.323  1.00  0.00     0.019 A 
ENDROOT
BRANCH   1   7
HETATM    7  C   UNL     1      49.164 -30.026   0.397  1.00  0.00     0.253 C 
HETATM    8  N   UNL     1      48.469 -28.917  -0.046  1.00  0.00    -0.356 N 
HETATM    9  H   UNL     1      48.230 -28.198   0.623  1.00  0.00     0.162 HD
HETATM   10  O   UNL     1      49.537 -30.932  -0.339  1.00  0.00    -0.268 OA
BRANCH   8  11
HETATM   11  C   UNL     1      48.356 -28.625  -1.460  1.00  0.00     0.127 C 
BRANCH  11  12
HETATM   12  C   UNL     1      46.999 -28.022  -1.837  1.00  0.00     0.058 C 
BRANCH  12  13
HETATM   13  C   UNL     1      46.234 -28.933  -2.767  1.00  0.00    -0.054 A 
HETATM   14  C   UNL     1      46.668 -30.247  -2.998  1.00  0.00     0.046 A 
HETATM   15  C   UNL     1      45.934 -31.107  -3.825  1.00  0.00     0.102 A 
HETATM   16  C   UNL     1      44.746 -30.646  -4.419  1.00  0.00     0.101 A 
HETATM   17  C   UNL     1      44.325 -29.328  -4.208  1.00  0.00     0.040 A 
HETATM   18  C   UNL     1      45.060 -28.481  -3.379  1.00  0.00     0.010 A 
BRANCH  15  19
HETATM   19  O   UNL     1      46.279 -32.407  -4.101  1.00  0.00    -0.353 OA
HETATM   20  C   UNL     1      46.081 -33.371  -3.077  1.00  0.00     0.210 C 
ENDBRANCH  15  19
BRANCH  16  21
HETATM   21  O   UNL     1      44.070 -31.521  -5.234  1.00  0.00    -0.353 OA
HETATM   22  C   UNL     1      44.072 -31.177  -6.614  1.00  0.00     0.210 C 
ENDBRANCH  16  21
ENDBRANCH  12  13
ENDBRANCH  11  12
ENDBRANCH   8  11
ENDBRANCH   1   7
BRANCH   2  23
HETATM   23  N   UNL     1      46.908 -30.489   2.536  1.00  0.00    -0.320 N 
HETATM   24  C   UNL     1      46.099 -29.383   2.348  1.00  0.00     0.280 C 
HETATM   25  O   UNL     1      46.458 -28.216   2.290  1.00  0.00    -0.265 OA
HETATM   26  H   UNL     1      46.397 -31.321   2.814  1.00  0.00     0.169 HD
BRANCH  24  27
HETATM   27  C   UNL     1      44.638 -29.771   2.301  1.00  0.00     0.143 C 
HETATM   28  O   UNL     1      43.865 -29.182   1.311  1.00  0.00    -0.345 OA
HETATM   29  C   UNL     1      42.449 -29.356   1.434  1.00  0.00     0.186 C 
HETATM   30  C   UNL     1      42.044 -30.806   1.637  1.00  0.00     0.105 C 
HETATM   31  S   UNL     1      42.623 -31.331   3.273  1.00  0.00    -0.136 SA
HETATM   32  C   UNL     1      44.226 -30.681   3.204  1.00  0.00     0.087 C 
ENDBRANCH  24  27
ENDBRANCH   2  23
TORSDOF 8
ENDMDL
MODEL 9
REMARK VINA RESULT:      -6.9      3.063      6.583
REMARK  8 active torsions:
REMARK  status: ('A' for Active; 'I' for Inactive)
REMARK    1  A    between atoms: O_2  and  C_3 
REMARK    2  A    between atoms: C_4  and  O_5 
REMARK    3  A    between atoms: C_8  and  C_9 
REMARK    4  A    between atoms: C_9  and  C_10 
REMARK    5  A    between atoms: C_10  and  N_11 
REMARK       I    between atoms: N_11  and  C_12 
REMARK    6  A    between atoms: C_12  and  C_13 
REMARK    7  A    between atoms: C_14  and  N_15 
REMARK       I    between atoms: N_15  and  C_16 
REMARK    8  A    between atoms: C_16  and  C_17 
ROOT
HETATM    1  C   UNL     1      42.356 -16.851   2.968  1.00  0.00     0.058 A 
HETATM    2  C   UNL     1      43.268 -16.497   3.981  1.00  0.00     0.050 A 
HETATM    3  C   UNL     1      44.217 -17.452   4.389  1.00  0.00     0.030 A 
HETATM    4  C   UNL     1      44.321 -18.692   3.753  1.00  0.00     0.002 A 
HETATM    5  C   UNL     1      43.467 -19.006   2.705  1.00  0.00     0.001 A 
HETATM    6  C   UNL     1      42.484 -18.095   2.321  1.00  0.00     0.019 A 
ENDROOT
BRANCH   1   7
HETATM    7  C   UNL     1      41.129 -16.092   2.600  1.00  0.00     0.253 C 
HETATM    8  N   UNL     1      41.206 -15.360   1.431  1.00  0.00    -0.356 N 
HETATM    9  H   UNL     1      42.014 -15.482   0.837  1.00  0.00     0.162 HD
HETATM   10  O   UNL     1      40.174 -16.050   3.367  1.00  0.00    -0.268 OA
BRANCH   8  11
HETATM   11  C   UNL     1      40.042 -14.681   0.899  1.00  0.00     0.127 C 
BRANCH  11  12
HETATM   12  C   UNL     1      40.027 -14.634  -0.631  1.00  0.00     0.058 C 
BRANCH  12  13
HETATM   13  C   UNL     1      39.568 -13.286  -1.134  1.00  0.00    -0.054 A 
HETATM   14  C   UNL     1      40.316 -12.130  -0.864  1.00  0.00     0.046 A 
HETATM   15  C   UNL     1      39.916 -10.885  -1.368  1.00  0.00     0.102 A 
HETATM   16  C   UNL     1      38.757 -10.803  -2.159  1.00  0.00     0.101 A 
HETATM   17  C   UNL     1      37.997 -11.951  -2.409  1.00  0.00     0.040 A 
HETATM   18  C   UNL     1      38.406 -13.186  -1.906  1.00  0.00     0.010 A 
BRANCH  15  19
HETATM   19  O   UNL     1      40.589  -9.707  -1.161  1.00  0.00    -0.353 OA
HETATM   20  C   UNL     1      41.568  -9.681  -0.132  1.00  0.00     0.210 C 
ENDBRANCH  15  19
BRANCH  16  21
HETATM   21  O   UNL     1      38.397  -9.558  -2.617  1.00  0.00    -0.353 OA
HETATM   22  C   UNL     1      38.035  -9.508  -3.992  1.00  0.00     0.210 C 
ENDBRANCH  16  21
ENDBRANCH  12  13
ENDBRANCH  11  12
ENDBRANCH   8  11
ENDBRANCH   1   7
BRANCH   2  23
HETATM   23  N   UNL     1      43.365 -15.248   4.640  1.00  0.00    -0.320 N 
HETATM   24  C   UNL     1      42.589 -14.819   5.701  1.00  0.00     0.280 C 
HETATM   25  O   UNL     1      41.742 -15.469   6.297  1.00  0.00    -0.265 OA
HETATM   26  H   UNL     1      43.806 -14.489   4.129  1.00  0.00     0.169 HD
BRANCH  24  27
HETATM   27  C   UNL     1      42.844 -13.363   6.017  1.00  0.00     0.143 C 
HETATM   28  O   UNL     1      42.016 -12.435   5.403  1.00  0.00    -0.345 OA
HETATM   29  C   UNL     1      42.425 -11.065   5.505  1.00  0.00     0.186 C 
HETATM   30  C   UNL     1      42.738 -10.644   6.930  1.00  0.00     0.105 C 
HETATM   31  S   UNL     1      44.235 -11.515   7.462  1.00  0.00    -0.136 SA
HETATM   32  C   UNL     1      43.832 -13.100   6.894  1.00  0.00     0.087 C 
ENDBRANCH  24  27
ENDBRANCH   2  23
TORSDOF 8
ENDMDL
MODEL 10
REMARK VINA RESULT:      -6.9      3.024      7.211
REMARK  8 active torsions:
REMARK  status: ('A' for Active; 'I' for Inactive)
REMARK    1  A    between atoms: O_2  and  C_3 
REMARK    2  A    between atoms: C_4  and  O_5 
REMARK    3  A    between atoms: C_8  and  C_9 
REMARK    4  A    between atoms: C_9  and  C_10 
REMARK    5  A    between atoms: C_10  and  N_11 
REMARK       I    between atoms: N_11  and  C_12 
REMARK    6  A    between atoms: C_12  and  C_13 
REMARK    7  A    between atoms: C_14  and  N_15 
REMARK       I    between atoms: N_15  and  C_16 
REMARK    8  A    between atoms: C_16  and  C_17 
ROOT
HETATM    1  C   UNL     1      42.696 -15.160   4.895  1.00  0.00     0.058 A 
HETATM    2  C   UNL     1      43.139 -14.487   6.049  1.00  0.00     0.050 A 
HETATM    3  C   UNL     1      44.086 -15.124   6.872  1.00  0.00     0.030 A 
HETATM    4  C   UNL     1      44.648 -16.354   6.517  1.00  0.00     0.002 A 
HETATM    5  C   UNL     1      44.261 -16.977   5.338  1.00  0.00     0.001 A 
HETATM    6  C   UNL     1      43.284 -16.389   4.537  1.00  0.00     0.019 A 
ENDROOT
BRANCH   1   7
HETATM    7  C   UNL     1      41.521 -14.779   4.064  1.00  0.00     0.253 C 
HETATM    8  N   UNL     1      41.051 -15.754   3.206  1.00  0.00    -0.356 N 
HETATM    9  H   UNL     1      41.430 -16.688   3.283  1.00  0.00     0.162 HD
HETATM   10  O   UNL     1      41.097 -13.628   4.081  1.00  0.00    -0.268 OA
BRANCH   8  11
HETATM   11  C   UNL     1      39.840 -15.551   2.438  1.00  0.00     0.127 C 
BRANCH  11  12
HETATM   12  C   UNL     1      40.005 -15.914   0.959  1.00  0.00     0.058 C 
BRANCH  12  13
HETATM   13  C   UNL     1      40.067 -14.677   0.095  1.00  0.00    -0.054 A 
HETATM   14  C   UNL     1      39.312 -14.589  -1.085  1.00  0.00     0.046 A 
HETATM   15  C   UNL     1      39.333 -13.425  -1.863  1.00  0.00     0.102 A 
HETATM   16  C   UNL     1      40.115 -12.333  -1.447  1.00  0.00     0.101 A 
HETATM   17  C   UNL     1      40.887 -12.427  -0.284  1.00  0.00     0.040 A 
HETATM   18  C   UNL     1      40.855 -13.589   0.486  1.00  0.00     0.010 A 
BRANCH  15  19
HETATM   19  O   UNL     1      38.623 -13.249  -3.025  1.00  0.00    -0.353 OA
HETATM   20  C   UNL     1      37.206 -13.234  -2.932  1.00  0.00     0.210 C 
ENDBRANCH  15  19
BRANCH  16  21
HETATM   21  O   UNL     1      40.116 -11.219  -2.252  1.00  0.00    -0.353 OA
HETATM   22  C   UNL     1      41.194 -10.318  -2.025  1.00  0.00     0.210 C 
ENDBRANCH  16  21
ENDBRANCH  12  13
ENDBRANCH  11  12
ENDBRANCH   8  11
ENDBRANCH   1   7
BRANCH   2  23
HETATM   23  N   UNL     1      42.754 -13.196   6.482  1.00  0.00    -0.320 N 
HETATM   24  C   UNL     1      43.303 -11.995   6.070  1.00  0.00     0.280 C 
HETATM   25  O   UNL     1      44.159 -11.840   5.210  1.00  0.00    -0.265 OA
HETATM   26  H   UNL     1      42.266 -13.133   7.371  1.00  0.00     0.169 HD
BRANCH  24  27
HETATM   27  C   UNL     1      42.774 -10.838   6.887  1.00  0.00     0.143 C 
HETATM   28  O   UNL     1      41.430 -10.528   6.735  1.00  0.00    -0.345 OA
HETATM   29  C   UNL     1      41.005  -9.286   7.310  1.00  0.00     0.186 C 
HETATM   30  C   UNL     1      41.432  -9.125   8.759  1.00  0.00     0.105 C 
HETATM   31  S   UNL     1      43.235  -8.951   8.802  1.00  0.00    -0.136 SA
HETATM   32  C   UNL     1      43.648 -10.235   7.715  1.00  0.00     0.087 C 
ENDBRANCH  24  27
ENDBRANCH   2  23
TORSDOF 8
ENDMDL
