MODEL 1
REMARK VINA RESULT:      -7.5      0.000      0.000
REMARK  3 active torsions:
REMARK  status: ('A' for Active; 'I' for Inactive)
REMARK    1  A    between atoms: C_2  and  C_3 
REMARK    2  A    between atoms: C_7  and  N_8 
REMARK       I    between atoms: N_8  and  C_9 
REMARK    3  A    between atoms: C_9  and  C_10 
ROOT
HETATM    1  N   UNL     1      40.755 -14.077   1.540  1.00  0.00    -0.309 N 
HETATM    2  C   UNL     1      41.868 -14.675   2.102  1.00  0.00     0.234 C 
HETATM    3  O   UNL     1      43.038 -14.549   1.746  1.00  0.00    -0.272 OA
HETATM    4  H   UNL     1      39.846 -14.280   1.929  1.00  0.00     0.170 HD
ENDROOT
BRANCH   2   5
HETATM    5  C   UNL     1      41.554 -15.595   3.276  1.00  0.00     0.138 C 
HETATM    6  C   UNL     1      42.458 -16.770   3.391  1.00  0.00    -0.008 A 
HETATM    7  C   UNL     1      43.327 -16.575   4.454  1.00  0.00     0.076 A 
HETATM    8  C   UNL     1      42.547 -17.900   2.595  1.00  0.00     0.030 A 
HETATM    9  C   UNL     1      44.319 -17.481   4.763  1.00  0.00     0.039 A 
HETATM   10  O   UNL     1      43.134 -15.386   5.108  1.00  0.00    -0.349 OA
HETATM   11  C   UNL     1      44.419 -18.633   3.977  1.00  0.00     0.022 A 
HETATM   12  C   UNL     1      43.538 -18.836   2.903  1.00  0.00     0.011 A 
HETATM   13 BR   UNL     1      43.704 -20.396   1.847  1.00  0.00    -0.051 Br
HETATM   14  C   UNL     1      41.842 -14.927   4.623  1.00  0.00     0.194 C 
ENDBRANCH   2   5
BRANCH   1  15
HETATM   15  C   UNL     1      40.769 -13.169   0.501  1.00  0.00     0.158 A 
HETATM   16  N   UNL     1      41.328 -11.963   0.555  1.00  0.00    -0.156 NA
HETATM   17  N   UNL     1      41.083 -11.416  -0.636  1.00  0.00    -0.280 N 
HETATM   18  C   UNL     1      40.380 -12.227  -1.480  1.00  0.00     0.037 A 
HETATM   19  H   UNL     1      41.418 -10.472  -0.805  1.00  0.00     0.189 HD
HETATM   20  C   UNL     1      40.170 -13.402  -0.776  1.00  0.00     0.010 A 
HETATM   21  C   UNL     1      39.460 -14.618  -1.245  1.00  0.00     0.054 C 
BRANCH  18  22
HETATM   22  C   UNL     1      39.991 -11.787  -2.848  1.00  0.00     0.055 C 
HETATM   23  C   UNL     1      38.572 -11.238  -2.879  1.00  0.00     0.011 C 
ENDBRANCH  18  22
ENDBRANCH   1  15
TORSDOF 3
ENDMDL
MODEL 2
REMARK VINA RESULT:      -7.4      3.888      7.159
REMARK  3 active torsions:
REMARK  status: ('A' for Active; 'I' for Inactive)
REMARK    1  A    between atoms: C_2  and  C_3 
REMARK    2  A    between atoms: C_7  and  N_8 
REMARK       I    between atoms: N_8  and  C_9 
REMARK    3  A    between atoms: C_9  and  C_10 
ROOT
HETATM    1  N   UNL     1      42.336 -15.896   3.324  1.00  0.00    -0.309 N 
HETATM    2  C   UNL     1      41.145 -15.565   3.943  1.00  0.00     0.234 C 
HETATM    3  O   UNL     1      40.364 -16.329   4.506  1.00  0.00    -0.272 OA
HETATM    4  H   UNL     1      42.877 -15.164   2.887  1.00  0.00     0.170 HD
ENDROOT
BRANCH   2   5
HETATM    5  C   UNL     1      40.800 -14.082   3.875  1.00  0.00     0.138 C 
HETATM    6  C   UNL     1      41.890 -13.179   4.330  1.00  0.00    -0.008 A 
HETATM    7  C   UNL     1      42.460 -12.560   3.227  1.00  0.00     0.076 A 
HETATM    8  C   UNL     1      42.379 -12.954   5.606  1.00  0.00     0.030 A 
HETATM    9  C   UNL     1      43.537 -11.707   3.342  1.00  0.00     0.039 A 
HETATM   10  O   UNL     1      41.888 -12.927   2.037  1.00  0.00    -0.349 OA
HETATM   11  C   UNL     1      44.040 -11.460   4.623  1.00  0.00     0.022 A 
HETATM   12  C   UNL     1      43.462 -12.081   5.743  1.00  0.00     0.011 A 
HETATM   13 BR   UNL     1      44.169 -11.741   7.463  1.00  0.00    -0.051 Br
HETATM   14  C   UNL     1      40.656 -13.591   2.432  1.00  0.00     0.194 C 
ENDBRANCH   2   5
BRANCH   1  15
HETATM   15  C   UNL     1      42.898 -17.156   3.283  1.00  0.00     0.158 A 
HETATM   16  N   UNL     1      42.821 -17.987   2.247  1.00  0.00    -0.156 NA
HETATM   17  N   UNL     1      43.461 -19.089   2.642  1.00  0.00    -0.280 N 
HETATM   18  C   UNL     1      43.963 -19.010   3.910  1.00  0.00     0.037 A 
HETATM   19  H   UNL     1      43.509 -19.869   1.995  1.00  0.00     0.189 HD
HETATM   20  C   UNL     1      43.631 -17.742   4.361  1.00  0.00     0.010 A 
HETATM   21  C   UNL     1      43.951 -17.144   5.681  1.00  0.00     0.054 C 
BRANCH  18  22
HETATM   22  C   UNL     1      44.692 -20.146   4.537  1.00  0.00     0.055 C 
HETATM   23  C   UNL     1      43.789 -20.950   5.461  1.00  0.00     0.011 C 
ENDBRANCH  18  22
ENDBRANCH   1  15
TORSDOF 3
ENDMDL
MODEL 3
REMARK VINA RESULT:      -7.3      4.841      7.105
REMARK  3 active torsions:
REMARK  status: ('A' for Active; 'I' for Inactive)
REMARK    1  A    between atoms: C_2  and  C_3 
REMARK    2  A    between atoms: C_7  and  N_8 
REMARK       I    between atoms: N_8  and  C_9 
REMARK    3  A    between atoms: C_9  and  C_10 
ROOT
HETATM    1  N   UNL     1      43.534 -12.115   5.500  1.00  0.00    -0.309 N 
HETATM    2  C   UNL     1      43.453 -12.082   4.121  1.00  0.00     0.234 C 
HETATM    3  O   UNL     1      44.133 -11.404   3.353  1.00  0.00    -0.272 OA
HETATM    4  H   UNL     1      42.901 -12.713   6.011  1.00  0.00     0.170 HD
ENDROOT
BRANCH   2   5
HETATM    5  C   UNL     1      42.374 -12.988   3.539  1.00  0.00     0.138 C 
HETATM    6  C   UNL     1      42.315 -14.341   4.155  1.00  0.00    -0.008 A 
HETATM    7  C   UNL     1      41.201 -14.420   4.978  1.00  0.00     0.076 A 
HETATM    8  C   UNL     1      43.196 -15.404   4.042  1.00  0.00     0.030 A 
HETATM    9  C   UNL     1      40.923 -15.545   5.725  1.00  0.00     0.039 A 
HETATM   10  O   UNL     1      40.461 -13.267   5.010  1.00  0.00    -0.349 OA
HETATM   11  C   UNL     1      41.796 -16.632   5.618  1.00  0.00     0.022 A 
HETATM   12  C   UNL     1      42.922 -16.557   4.782  1.00  0.00     0.011 A 
HETATM   13 BR   UNL     1      44.094 -18.036   4.666  1.00  0.00    -0.051 Br
HETATM   14  C   UNL     1      40.965 -12.498   3.883  1.00  0.00     0.194 C 
ENDBRANCH   2   5
BRANCH   1  15
HETATM   15  C   UNL     1      44.452 -11.427   6.268  1.00  0.00     0.158 A 
HETATM   16  N   UNL     1      45.771 -11.588   6.198  1.00  0.00    -0.156 NA
HETATM   17  N   UNL     1      46.268 -10.766   7.124  1.00  0.00    -0.280 N 
HETATM   18  C   UNL     1      45.315 -10.062   7.803  1.00  0.00     0.037 A 
HETATM   19  H   UNL     1      47.275 -10.742   7.248  1.00  0.00     0.189 HD
HETATM   20  C   UNL     1      44.104 -10.454   7.255  1.00  0.00     0.010 A 
HETATM   21  C   UNL     1      42.749  -9.978   7.631  1.00  0.00     0.054 C 
BRANCH  18  22
HETATM   22  C   UNL     1      45.669  -9.108   8.889  1.00  0.00     0.055 C 
HETATM   23  C   UNL     1      45.334  -9.671  10.262  1.00  0.00     0.011 C 
ENDBRANCH  18  22
ENDBRANCH   1  15
TORSDOF 3
ENDMDL
MODEL 4
REMARK VINA RESULT:      -7.3      4.779      7.236
REMARK  3 active torsions:
REMARK  status: ('A' for Active; 'I' for Inactive)
REMARK    1  A    between atoms: C_2  and  C_3 
REMARK    2  A    between atoms: C_7  and  N_8 
REMARK       I    between atoms: N_8  and  C_9 
REMARK    3  A    between atoms: C_9  and  C_10 
ROOT
HETATM    1  N   UNL     1      43.291 -14.147   4.230  1.00  0.00    -0.309 N 
HETATM    2  C   UNL     1      42.522 -13.376   5.082  1.00  0.00     0.234 C 
HETATM    3  O   UNL     1      41.611 -13.761   5.812  1.00  0.00    -0.272 OA
HETATM    4  H   UNL     1      44.003 -13.695   3.675  1.00  0.00     0.170 HD
ENDROOT
BRANCH   2   5
HETATM    5  C   UNL     1      42.868 -11.892   5.062  1.00  0.00     0.138 C 
HETATM    6  C   UNL     1      43.682 -11.438   6.221  1.00  0.00    -0.008 A 
HETATM    7  C   UNL     1      44.985 -11.212   5.803  1.00  0.00     0.076 A 
HETATM    8  C   UNL     1      43.321 -11.284   7.549  1.00  0.00     0.030 A 
HETATM    9  C   UNL     1      45.979 -10.836   6.682  1.00  0.00     0.039 A 
HETATM   10  O   UNL     1      45.183 -11.456   4.469  1.00  0.00    -0.349 OA
HETATM   11  C   UNL     1      45.633 -10.666   8.025  1.00  0.00     0.022 A 
HETATM   12  C   UNL     1      44.313 -10.889   8.450  1.00  0.00     0.011 A 
HETATM   13 BR   UNL     1      43.874 -10.665  10.276  1.00  0.00    -0.051 Br
HETATM   14  C   UNL     1      43.836 -11.543   3.927  1.00  0.00     0.194 C 
ENDBRANCH   2   5
BRANCH   1  15
HETATM   15  C   UNL     1      43.212 -15.518   4.094  1.00  0.00     0.158 A 
HETATM   16  N   UNL     1      43.220 -16.382   5.106  1.00  0.00    -0.156 NA
HETATM   17  N   UNL     1      43.161 -17.585   4.532  1.00  0.00    -0.280 N 
HETATM   18  C   UNL     1      43.111 -17.542   3.168  1.00  0.00     0.037 A 
HETATM   19  H   UNL     1      43.170 -18.401   5.135  1.00  0.00     0.189 HD
HETATM   20  C   UNL     1      43.122 -16.196   2.839  1.00  0.00     0.010 A 
HETATM   21  C   UNL     1      43.073 -15.601   1.480  1.00  0.00     0.054 C 
BRANCH  18  22
HETATM   22  C   UNL     1      43.063 -18.782   2.346  1.00  0.00     0.055 C 
HETATM   23  C   UNL     1      43.754 -19.944   3.042  1.00  0.00     0.011 C 
ENDBRANCH  18  22
ENDBRANCH   1  15
TORSDOF 3
ENDMDL
MODEL 5
REMARK VINA RESULT:      -7.2      7.008      9.557
REMARK  3 active torsions:
REMARK  status: ('A' for Active; 'I' for Inactive)
REMARK    1  A    between atoms: C_2  and  C_3 
REMARK    2  A    between atoms: C_7  and  N_8 
REMARK       I    between atoms: N_8  and  C_9 
REMARK    3  A    between atoms: C_9  and  C_10 
ROOT
HETATM    1  N   UNL     1      43.476 -10.782   8.565  1.00  0.00    -0.309 N 
HETATM    2  C   UNL     1      44.553 -11.192   7.802  1.00  0.00     0.234 C 
HETATM    3  O   UNL     1      45.738 -11.193   8.131  1.00  0.00    -0.272 OA
HETATM    4  H   UNL     1      42.551 -10.824   8.163  1.00  0.00     0.170 HD
ENDROOT
BRANCH   2   5
HETATM    5  C   UNL     1      44.180 -11.667   6.403  1.00  0.00     0.138 C 
HETATM    6  C   UNL     1      43.423 -12.948   6.374  1.00  0.00    -0.008 A 
HETATM    7  C   UNL     1      42.095 -12.686   6.071  1.00  0.00     0.076 A 
HETATM    8  C   UNL     1      43.853 -14.236   6.641  1.00  0.00     0.030 A 
HETATM    9  C   UNL     1      41.144 -13.683   6.031  1.00  0.00     0.039 A 
HETATM   10  O   UNL     1      41.829 -11.355   5.880  1.00  0.00    -0.349 OA
HETATM   11  C   UNL     1      41.560 -14.992   6.290  1.00  0.00     0.022 A 
HETATM   12  C   UNL     1      42.905 -15.261   6.592  1.00  0.00     0.011 A 
HETATM   13 BR   UNL     1      43.440 -17.040   6.950  1.00  0.00    -0.051 Br
HETATM   14  C   UNL     1      43.145 -10.752   5.742  1.00  0.00     0.194 C 
ENDBRANCH   2   5
BRANCH   1  15
HETATM   15  C   UNL     1      43.536 -10.353   9.875  1.00  0.00     0.158 A 
HETATM   16  N   UNL     1      43.692 -11.151  10.928  1.00  0.00    -0.156 NA
HETATM   17  N   UNL     1      43.661 -10.337  11.985  1.00  0.00    -0.280 N 
HETATM   18  C   UNL     1      43.490  -9.022  11.661  1.00  0.00     0.037 A 
HETATM   19  H   UNL     1      43.751 -10.752  12.907  1.00  0.00     0.189 HD
HETATM   20  C   UNL     1      43.424  -8.986  10.278  1.00  0.00     0.010 A 
HETATM   21  C   UNL     1      43.253  -7.790   9.415  1.00  0.00     0.054 C 
BRANCH  18  22
HETATM   22  C   UNL     1      43.409  -7.962  12.703  1.00  0.00     0.055 C 
HETATM   23  C   UNL     1      42.508  -8.377  13.857  1.00  0.00     0.011 C 
ENDBRANCH  18  22
ENDBRANCH   1  15
TORSDOF 3
ENDMDL
MODEL 6
REMARK VINA RESULT:      -7.1      4.450      6.146
REMARK  3 active torsions:
REMARK  status: ('A' for Active; 'I' for Inactive)
REMARK    1  A    between atoms: C_2  and  C_3 
REMARK    2  A    between atoms: C_7  and  N_8 
REMARK       I    between atoms: N_8  and  C_9 
REMARK    3  A    between atoms: C_9  and  C_10 
ROOT
HETATM    1  N   UNL     1      43.105 -14.524   5.967  1.00  0.00    -0.309 N 
HETATM    2  C   UNL     1      42.837 -15.533   6.873  1.00  0.00     0.234 C 
HETATM    3  O   UNL     1      42.829 -15.447   8.099  1.00  0.00    -0.272 OA
HETATM    4  H   UNL     1      43.088 -14.738   4.980  1.00  0.00     0.170 HD
ENDROOT
BRANCH   2   5
HETATM    5  C   UNL     1      42.545 -16.884   6.230  1.00  0.00     0.138 C 
HETATM    6  C   UNL     1      42.359 -16.832   4.755  1.00  0.00    -0.008 A 
HETATM    7  C   UNL     1      43.478 -17.368   4.135  1.00  0.00     0.076 A 
HETATM    8  C   UNL     1      41.313 -16.311   4.013  1.00  0.00     0.030 A 
HETATM    9  C   UNL     1      43.608 -17.399   2.763  1.00  0.00     0.039 A 
HETATM   10  O   UNL     1      44.438 -17.797   5.013  1.00  0.00    -0.349 OA
HETATM   11  C   UNL     1      42.559 -16.885   1.996  1.00  0.00     0.022 A 
HETATM   12  C   UNL     1      41.422 -16.346   2.621  1.00  0.00     0.011 A 
HETATM   13 BR   UNL     1      40.022 -15.645   1.560  1.00  0.00    -0.051 Br
HETATM   14  C   UNL     1      43.751 -17.825   6.295  1.00  0.00     0.194 C 
ENDBRANCH   2   5
BRANCH   1  15
HETATM   15  C   UNL     1      43.353 -13.204   6.284  1.00  0.00     0.158 A 
HETATM   16  N   UNL     1      44.532 -12.727   6.676  1.00  0.00    -0.156 NA
HETATM   17  N   UNL     1      44.320 -11.431   6.909  1.00  0.00    -0.280 N 
HETATM   18  C   UNL     1      43.033 -11.035   6.680  1.00  0.00     0.037 A 
HETATM   19  H   UNL     1      45.101 -10.872   7.236  1.00  0.00     0.189 HD
HETATM   20  C   UNL     1      42.367 -12.170   6.247  1.00  0.00     0.010 A 
HETATM   21  C   UNL     1      40.940 -12.282   5.854  1.00  0.00     0.054 C 
BRANCH  18  22
HETATM   22  C   UNL     1      42.593  -9.630   6.903  1.00  0.00     0.055 C 
HETATM   23  C   UNL     1      42.611  -9.265   8.380  1.00  0.00     0.011 C 
ENDBRANCH  18  22
ENDBRANCH   1  15
TORSDOF 3
ENDMDL
MODEL 7
REMARK VINA RESULT:      -7.0      2.671      3.351
REMARK  3 active torsions:
REMARK  status: ('A' for Active; 'I' for Inactive)
REMARK    1  A    between atoms: C_2  and  C_3 
REMARK    2  A    between atoms: C_7  and  N_8 
REMARK       I    between atoms: N_8  and  C_9 
REMARK    3  A    between atoms: C_9  and  C_10 
ROOT
HETATM    1  N   UNL     1      41.394 -14.557   0.361  1.00  0.00    -0.309 N 
HETATM    2  C   UNL     1      41.414 -15.282   1.538  1.00  0.00     0.234 C 
HETATM    3  O   UNL     1      40.446 -15.637   2.208  1.00  0.00    -0.272 OA
HETATM    4  H   UNL     1      42.271 -14.322  -0.080  1.00  0.00     0.170 HD
ENDROOT
BRANCH   2   5
HETATM    5  C   UNL     1      42.814 -15.636   2.027  1.00  0.00     0.138 C 
HETATM    6  C   UNL     1      43.021 -15.438   3.486  1.00  0.00    -0.008 A 
HETATM    7  C   UNL     1      43.057 -16.674   4.114  1.00  0.00     0.076 A 
HETATM    8  C   UNL     1      43.119 -14.264   4.215  1.00  0.00     0.030 A 
HETATM    9  C   UNL     1      43.181 -16.796   5.482  1.00  0.00     0.039 A 
HETATM   10  O   UNL     1      42.899 -17.730   3.255  1.00  0.00    -0.349 OA
HETATM   11  C   UNL     1      43.291 -15.623   6.234  1.00  0.00     0.022 A 
HETATM   12  C   UNL     1      43.260 -14.370   5.601  1.00  0.00     0.011 A 
HETATM   13 BR   UNL     1      43.397 -12.797   6.643  1.00  0.00    -0.051 Br
HETATM   14  C   UNL     1      43.090 -17.140   1.939  1.00  0.00     0.194 C 
ENDBRANCH   2   5
BRANCH   1  15
HETATM   15  C   UNL     1      40.261 -14.153  -0.315  1.00  0.00     0.158 A 
HETATM   16  N   UNL     1      39.472 -14.958  -1.022  1.00  0.00    -0.156 NA
HETATM   17  N   UNL     1      38.529 -14.160  -1.527  1.00  0.00    -0.280 N 
HETATM   18  C   UNL     1      38.670 -12.849  -1.170  1.00  0.00     0.037 A 
HETATM   19  H   UNL     1      37.820 -14.577  -2.120  1.00  0.00     0.189 HD
HETATM   20  C   UNL     1      39.789 -12.804  -0.354  1.00  0.00     0.010 A 
HETATM   21  C   UNL     1      40.372 -11.612   0.311  1.00  0.00     0.054 C 
BRANCH  18  22
HETATM   22  C   UNL     1      37.728 -11.801  -1.650  1.00  0.00     0.055 C 
HETATM   23  C   UNL     1      38.308 -11.017  -2.818  1.00  0.00     0.011 C 
ENDBRANCH  18  22
ENDBRANCH   1  15
TORSDOF 3
ENDMDL
MODEL 8
REMARK VINA RESULT:      -6.9      6.121      8.158
REMARK  3 active torsions:
REMARK  status: ('A' for Active; 'I' for Inactive)
REMARK    1  A    between atoms: C_2  and  C_3 
REMARK    2  A    between atoms: C_7  and  N_8 
REMARK       I    between atoms: N_8  and  C_9 
REMARK    3  A    between atoms: C_9  and  C_10 
ROOT
HETATM    1  N   UNL     1      42.436 -12.045   5.843  1.00  0.00    -0.309 N 
HETATM    2  C   UNL     1      43.453 -12.103   6.778  1.00  0.00     0.234 C 
HETATM    3  O   UNL     1      43.823 -13.089   7.412  1.00  0.00    -0.272 OA
HETATM    4  H   UNL     1      42.229 -11.160   5.404  1.00  0.00     0.170 HD
ENDROOT
BRANCH   2   5
HETATM    5  C   UNL     1      44.146 -10.769   7.027  1.00  0.00     0.138 C 
HETATM    6  C   UNL     1      43.853 -10.166   8.355  1.00  0.00    -0.008 A 
HETATM    7  C   UNL     1      44.966 -10.301   9.172  1.00  0.00     0.076 A 
HETATM    8  C   UNL     1      42.686  -9.590   8.827  1.00  0.00     0.030 A 
HETATM    9  C   UNL     1      44.963  -9.881  10.486  1.00  0.00     0.039 A 
HETATM   10  O   UNL     1      46.019 -10.933   8.565  1.00  0.00    -0.349 OA
HETATM   11  C   UNL     1      43.797  -9.288  10.979  1.00  0.00     0.022 A 
HETATM   12  C   UNL     1      42.670  -9.146  10.152  1.00  0.00     0.011 A 
HETATM   13 BR   UNL     1      41.100  -8.353  10.848  1.00  0.00    -0.051 Br
HETATM   14  C   UNL     1      45.664 -10.924   7.154  1.00  0.00     0.194 C 
ENDBRANCH   2   5
BRANCH   1  15
HETATM   15  C   UNL     1      41.686 -13.117   5.404  1.00  0.00     0.158 A 
HETATM   16  N   UNL     1      40.680 -13.666   6.080  1.00  0.00    -0.156 NA
HETATM   17  N   UNL     1      40.265 -14.679   5.318  1.00  0.00    -0.280 N 
HETATM   18  C   UNL     1      40.967 -14.816   4.154  1.00  0.00     0.037 A 
HETATM   19  H   UNL     1      39.499 -15.250   5.660  1.00  0.00     0.189 HD
HETATM   20  C   UNL     1      41.901 -13.792   4.162  1.00  0.00     0.010 A 
HETATM   21  C   UNL     1      42.910 -13.485   3.118  1.00  0.00     0.054 C 
BRANCH  18  22
HETATM   22  C   UNL     1      40.668 -15.901   3.181  1.00  0.00     0.055 C 
HETATM   23  C   UNL     1      41.844 -16.853   3.022  1.00  0.00     0.011 C 
ENDBRANCH  18  22
ENDBRANCH   1  15
TORSDOF 3
ENDMDL
MODEL 9
REMARK VINA RESULT:      -6.8      3.397      7.211
REMARK  3 active torsions:
REMARK  status: ('A' for Active; 'I' for Inactive)
REMARK    1  A    between atoms: C_2  and  C_3 
REMARK    2  A    between atoms: C_7  and  N_8 
REMARK       I    between atoms: N_8  and  C_9 
REMARK    3  A    between atoms: C_9  and  C_10 
ROOT
HETATM    1  N   UNL     1      43.133 -14.989   4.000  1.00  0.00    -0.309 N 
HETATM    2  C   UNL     1      41.934 -14.342   4.231  1.00  0.00     0.234 C 
HETATM    3  O   UNL     1      40.943 -14.796   4.800  1.00  0.00    -0.272 OA
HETATM    4  H   UNL     1      43.864 -14.498   3.506  1.00  0.00     0.170 HD
ENDROOT
BRANCH   2   5
HETATM    5  C   UNL     1      41.879 -12.920   3.684  1.00  0.00     0.138 C 
HETATM    6  C   UNL     1      40.938 -12.739   2.546  1.00  0.00    -0.008 A 
HETATM    7  C   UNL     1      39.816 -12.053   2.986  1.00  0.00     0.076 A 
HETATM    8  C   UNL     1      41.035 -13.184   1.238  1.00  0.00     0.030 A 
HETATM    9  C   UNL     1      38.747 -11.792   2.156  1.00  0.00     0.039 A 
HETATM   10  O   UNL     1      39.860 -11.727   4.316  1.00  0.00    -0.349 OA
HETATM   11  C   UNL     1      38.829 -12.225   0.829  1.00  0.00     0.022 A 
HETATM   12  C   UNL     1      39.967 -12.915   0.379  1.00  0.00     0.011 A 
HETATM   13 BR   UNL     1      40.047 -13.502  -1.417  1.00  0.00    -0.051 Br
HETATM   14  C   UNL     1      41.251 -11.944   4.683  1.00  0.00     0.194 C 
ENDBRANCH   2   5
BRANCH   1  15
HETATM   15  C   UNL     1      43.457 -16.260   4.430  1.00  0.00     0.158 A 
HETATM   16  N   UNL     1      43.826 -16.570   5.670  1.00  0.00    -0.156 NA
HETATM   17  N   UNL     1      44.075 -17.880   5.639  1.00  0.00    -0.280 N 
HETATM   18  C   UNL     1      43.877 -18.448   4.413  1.00  0.00     0.037 A 
HETATM   19  H   UNL     1      44.390 -18.325   6.495  1.00  0.00     0.189 HD
HETATM   20  C   UNL     1      43.449 -17.417   3.592  1.00  0.00     0.010 A 
HETATM   21  C   UNL     1      43.086 -17.503   2.155  1.00  0.00     0.054 C 
BRANCH  18  22
HETATM   22  C   UNL     1      44.122 -19.896   4.171  1.00  0.00     0.055 C 
HETATM   23  C   UNL     1      43.976 -20.711   5.448  1.00  0.00     0.011 C 
ENDBRANCH  18  22
ENDBRANCH   1  15
TORSDOF 3
ENDMDL
MODEL 10
REMARK VINA RESULT:      -6.7     14.895     16.924
REMARK  3 active torsions:
REMARK  status: ('A' for Active; 'I' for Inactive)
REMARK    1  A    between atoms: C_2  and  C_3 
REMARK    2  A    between atoms: C_7  and  N_8 
REMARK       I    between atoms: N_8  and  C_9 
REMARK    3  A    between atoms: C_9  and  C_10 
ROOT
HETATM    1  N   UNL     1      46.280 -29.038   0.866  1.00  0.00    -0.309 N 
HETATM    2  C   UNL     1      46.183 -28.475  -0.393  1.00  0.00     0.234 C 
HETATM    3  O   UNL     1      47.040 -27.819  -0.981  1.00  0.00    -0.272 OA
HETATM    4  H   UNL     1      45.489 -29.545   1.234  1.00  0.00     0.170 HD
ENDROOT
BRANCH   2   5
HETATM    5  C   UNL     1      44.839 -28.704  -1.075  1.00  0.00     0.138 C 
HETATM    6  C   UNL     1      44.802 -29.895  -1.966  1.00  0.00    -0.008 A 
HETATM    7  C   UNL     1      44.070 -30.901  -1.352  1.00  0.00     0.076 A 
HETATM    8  C   UNL     1      45.404 -30.100  -3.196  1.00  0.00     0.030 A 
HETATM    9  C   UNL     1      43.915 -32.146  -1.925  1.00  0.00     0.039 A 
HETATM   10  O   UNL     1      43.582 -30.550  -0.120  1.00  0.00    -0.349 OA
HETATM   11  C   UNL     1      44.508 -32.369  -3.171  1.00  0.00     0.022 A 
HETATM   12  C   UNL     1      45.245 -31.351  -3.797  1.00  0.00     0.011 A 
HETATM   13 BR   UNL     1      46.048 -31.683  -5.477  1.00  0.00    -0.051 Br
HETATM   14  C   UNL     1      43.749 -29.106  -0.078  1.00  0.00     0.194 C 
ENDBRANCH   2   5
BRANCH   1  15
HETATM   15  C   UNL     1      47.400 -29.016   1.672  1.00  0.00     0.158 A 
HETATM   16  N   UNL     1      47.721 -28.022   2.497  1.00  0.00    -0.156 NA
HETATM   17  N   UNL     1      48.879 -28.391   3.046  1.00  0.00    -0.280 N 
HETATM   18  C   UNL     1      49.333 -29.603   2.611  1.00  0.00     0.037 A 
HETATM   19  H   UNL     1      49.315 -27.757   3.709  1.00  0.00     0.189 HD
HETATM   20  C   UNL     1      48.376 -30.059   1.718  1.00  0.00     0.010 A 
HETATM   21  C   UNL     1      48.384 -31.338   0.965  1.00  0.00     0.054 C 
BRANCH  18  22
HETATM   22  C   UNL     1      50.619 -30.178   3.092  1.00  0.00     0.055 C 
HETATM   23  C   UNL     1      50.577 -30.479   4.582  1.00  0.00     0.011 C 
ENDBRANCH  18  22
ENDBRANCH   1  15
TORSDOF 3
ENDMDL
