MODEL 1
REMARK VINA RESULT:      -7.8      0.000      0.000
REMARK  5 active torsions:
REMARK  status: ('A' for Active; 'I' for Inactive)
REMARK    1  A    between atoms: C_7  and  C_8 
REMARK    2  A    between atoms: C_8  and  N_9 
REMARK    3  A    between atoms: N_9  and  C_12 
REMARK    4  A    between atoms: C_15  and  O_16 
REMARK    5  A    between atoms: O_16  and  C_17 
ROOT
HETATM    1  C   UNL     1      43.303 -15.838   3.979  1.00  0.00     0.164 A 
HETATM    2  N   UNL     1      43.783 -16.752   4.846  1.00  0.00    -0.236 NA
HETATM    3  C   UNL     1      43.895 -18.024   4.387  1.00  0.00     0.142 A 
HETATM    4  C   UNL     1      43.540 -18.420   3.105  1.00  0.00     0.062 A 
HETATM    5  C   UNL     1      43.692 -19.781   2.697  1.00  0.00     0.101 C 
HETATM    6  N   UNL     1      43.816 -20.887   2.371  1.00  0.00    -0.191 NA
HETATM    7  C   UNL     1      43.033 -17.453   2.239  1.00  0.00     0.028 A 
HETATM    8  C   UNL     1      42.905 -16.138   2.685  1.00  0.00     0.059 A 
ENDROOT
BRANCH   1   9
HETATM    9  O   UNL     1      43.146 -14.529   4.383  1.00  0.00    -0.329 OA
BRANCH   9  10
HETATM   10  C   UNL     1      42.897 -14.363   5.785  1.00  0.00     0.130 C 
HETATM   11  C   UNL     1      44.001 -13.437   6.317  1.00  0.00     0.034 C 
HETATM   12  C   UNL     1      43.928 -12.039   5.696  1.00  0.00     0.035 C 
HETATM   13  C   UNL     1      42.555 -11.379   5.861  1.00  0.00     0.186 C 
HETATM   14  C   UNL     1      41.431 -12.313   5.397  1.00  0.00     0.035 C 
HETATM   15  C   UNL     1      41.521 -13.717   6.005  1.00  0.00     0.034 C 
BRANCH  13  16
HETATM   16  N   UNL     1      42.308 -11.010   7.299  1.00  0.00    -0.067 N 
HETATM   17  H   UNL     1      42.890 -11.564   7.938  1.00  0.00     0.278 HD
HETATM   18  H   UNL     1      41.338 -11.259   7.542  1.00  0.00     0.278 HD
BRANCH  16  19
HETATM   19  C   UNL     1      42.462  -9.560   7.644  1.00  0.00     0.280 C 
BRANCH  19  20
HETATM   20  C   UNL     1      43.005  -9.400   9.015  1.00  0.00     0.034 A 
HETATM   21  C   UNL     1      44.256  -9.725   9.514  1.00  0.00     0.046 A 
HETATM   22  C   UNL     1      45.400 -10.325   8.776  1.00  0.00     0.071 C 
HETATM   23  N   UNL     1      44.425  -9.448  10.855  1.00  0.00    -0.250 NA
HETATM   24  C   UNL     1      43.347  -8.892  11.362  1.00  0.00     0.072 A 
HETATM   25  C   UNL     1      43.217  -8.427  12.770  1.00  0.00     0.078 C 
HETATM   26  S   UNL     1      42.038  -8.725  10.264  1.00  0.00    -0.076 SA
ENDBRANCH  19  20
ENDBRANCH  16  19
ENDBRANCH  13  16
ENDBRANCH   9  10
ENDBRANCH   1   9
TORSDOF 5
ENDMDL
MODEL 2
REMARK VINA RESULT:      -7.3      1.368      1.827
REMARK  5 active torsions:
REMARK  status: ('A' for Active; 'I' for Inactive)
REMARK    1  A    between atoms: C_7  and  C_8 
REMARK    2  A    between atoms: C_8  and  N_9 
REMARK    3  A    between atoms: N_9  and  C_12 
REMARK    4  A    between atoms: C_15  and  O_16 
REMARK    5  A    between atoms: O_16  and  C_17 
ROOT
HETATM    1  C   UNL     1      43.378 -15.978   3.954  1.00  0.00     0.164 A 
HETATM    2  N   UNL     1      43.877 -16.970   4.720  1.00  0.00    -0.236 NA
HETATM    3  C   UNL     1      43.935 -18.203   4.155  1.00  0.00     0.142 A 
HETATM    4  C   UNL     1      43.509 -18.486   2.865  1.00  0.00     0.062 A 
HETATM    5  C   UNL     1      43.607 -19.811   2.342  1.00  0.00     0.101 C 
HETATM    6  N   UNL     1      43.688 -20.889   1.922  1.00  0.00    -0.191 NA
HETATM    7  C   UNL     1      42.985 -17.441   2.105  1.00  0.00     0.028 A 
HETATM    8  C   UNL     1      42.911 -16.164   2.661  1.00  0.00     0.059 A 
ENDROOT
BRANCH   1   9
HETATM    9  O   UNL     1      43.273 -14.704   4.469  1.00  0.00    -0.329 OA
BRANCH   9  10
HETATM   10  C   UNL     1      42.306 -14.562   5.518  1.00  0.00     0.130 C 
HETATM   11  C   UNL     1      43.009 -13.814   6.660  1.00  0.00     0.034 C 
HETATM   12  C   UNL     1      43.417 -12.395   6.252  1.00  0.00     0.035 C 
HETATM   13  C   UNL     1      42.248 -11.565   5.713  1.00  0.00     0.186 C 
HETATM   14  C   UNL     1      41.489 -12.321   4.617  1.00  0.00     0.035 C 
HETATM   15  C   UNL     1      41.102 -13.748   5.022  1.00  0.00     0.034 C 
BRANCH  13  16
HETATM   16  N   UNL     1      41.281 -11.223   6.815  1.00  0.00    -0.067 N 
HETATM   17  H   UNL     1      41.521 -11.700   7.692  1.00  0.00     0.278 HD
HETATM   18  H   UNL     1      40.351 -11.587   6.563  1.00  0.00     0.278 HD
BRANCH  16  19
HETATM   19  C   UNL     1      41.093  -9.764   7.099  1.00  0.00     0.280 C 
BRANCH  19  20
HETATM   20  C   UNL     1      41.480  -9.445   8.495  1.00  0.00     0.034 A 
HETATM   21  C   UNL     1      40.682  -9.253   9.611  1.00  0.00     0.046 A 
HETATM   22  C   UNL     1      39.198  -9.329   9.691  1.00  0.00     0.071 C 
HETATM   23  N   UNL     1      41.377  -8.958  10.766  1.00  0.00    -0.250 NA
HETATM   24  C   UNL     1      42.674  -8.959  10.549  1.00  0.00     0.072 A 
HETATM   25  C   UNL     1      43.706  -8.725  11.596  1.00  0.00     0.078 C 
HETATM   26  S   UNL     1      43.132  -9.257   8.922  1.00  0.00    -0.076 SA
ENDBRANCH  19  20
ENDBRANCH  16  19
ENDBRANCH  13  16
ENDBRANCH   9  10
ENDBRANCH   1   9
TORSDOF 5
ENDMDL
MODEL 3
REMARK VINA RESULT:      -7.0      5.787      7.924
REMARK  5 active torsions:
REMARK  status: ('A' for Active; 'I' for Inactive)
REMARK    1  A    between atoms: C_7  and  C_8 
REMARK    2  A    between atoms: C_8  and  N_9 
REMARK    3  A    between atoms: N_9  and  C_12 
REMARK    4  A    between atoms: C_15  and  O_16 
REMARK    5  A    between atoms: O_16  and  C_17 
ROOT
HETATM    1  C   UNL     1      42.917 -16.279   3.264  1.00  0.00     0.164 A 
HETATM    2  N   UNL     1      43.014 -16.420   4.602  1.00  0.00    -0.236 NA
HETATM    3  C   UNL     1      43.465 -17.617   5.055  1.00  0.00     0.142 A 
HETATM    4  C   UNL     1      43.814 -18.677   4.230  1.00  0.00     0.062 A 
HETATM    5  C   UNL     1      44.285 -19.906   4.786  1.00  0.00     0.101 C 
HETATM    6  N   UNL     1      44.667 -20.901   5.242  1.00  0.00    -0.191 NA
HETATM    7  C   UNL     1      43.689 -18.503   2.852  1.00  0.00     0.028 A 
HETATM    8  C   UNL     1      43.226 -17.283   2.359  1.00  0.00     0.059 A 
ENDROOT
BRANCH   1   9
HETATM    9  O   UNL     1      42.449 -15.095   2.733  1.00  0.00    -0.329 OA
BRANCH   9  10
HETATM   10  C   UNL     1      41.038 -14.893   2.880  1.00  0.00     0.130 C 
HETATM   11  C   UNL     1      40.824 -13.376   2.985  1.00  0.00     0.034 C 
HETATM   12  C   UNL     1      41.235 -12.647   1.703  1.00  0.00     0.035 C 
HETATM   13  C   UNL     1      40.543 -13.195   0.451  1.00  0.00     0.186 C 
HETATM   14  C   UNL     1      40.687 -14.719   0.360  1.00  0.00     0.035 C 
HETATM   15  C   UNL     1      40.294 -15.443   1.653  1.00  0.00     0.034 C 
BRANCH  13  16
HETATM   16  N   UNL     1      39.077 -12.853   0.455  1.00  0.00    -0.067 N 
HETATM   17  H   UNL     1      38.845 -12.191   1.206  1.00  0.00     0.278 HD
HETATM   18  H   UNL     1      38.540 -13.703   0.678  1.00  0.00     0.278 HD
BRANCH  16  19
HETATM   19  C   UNL     1      38.518 -12.333  -0.834  1.00  0.00     0.280 C 
BRANCH  19  20
HETATM   20  C   UNL     1      39.353 -11.226  -1.362  1.00  0.00     0.034 A 
HETATM   21  C   UNL     1      40.339 -11.251  -2.335  1.00  0.00     0.046 A 
HETATM   22  C   UNL     1      40.814 -12.424  -3.118  1.00  0.00     0.071 C 
HETATM   23  N   UNL     1      40.930 -10.028  -2.580  1.00  0.00    -0.250 NA
HETATM   24  C   UNL     1      40.387  -9.086  -1.841  1.00  0.00     0.072 A 
HETATM   25  C   UNL     1      40.762  -7.646  -1.897  1.00  0.00     0.078 C 
HETATM   26  S   UNL     1      39.169  -9.629  -0.760  1.00  0.00    -0.076 SA
ENDBRANCH  19  20
ENDBRANCH  16  19
ENDBRANCH  13  16
ENDBRANCH   9  10
ENDBRANCH   1   9
TORSDOF 5
ENDMDL
MODEL 4
REMARK VINA RESULT:      -6.8      4.028     10.299
REMARK  5 active torsions:
REMARK  status: ('A' for Active; 'I' for Inactive)
REMARK    1  A    between atoms: C_7  and  C_8 
REMARK    2  A    between atoms: C_8  and  N_9 
REMARK    3  A    between atoms: N_9  and  C_12 
REMARK    4  A    between atoms: C_15  and  O_16 
REMARK    5  A    between atoms: O_16  and  C_17 
ROOT
HETATM    1  C   UNL     1      42.588  -8.278  12.809  1.00  0.00     0.164 A 
HETATM    2  N   UNL     1      41.567  -9.069  13.200  1.00  0.00    -0.236 NA
HETATM    3  C   UNL     1      41.106  -8.884  14.463  1.00  0.00     0.142 A 
HETATM    4  C   UNL     1      41.627  -7.953  15.351  1.00  0.00     0.062 A 
HETATM    5  C   UNL     1      41.081  -7.818  16.665  1.00  0.00     0.101 C 
HETATM    6  N   UNL     1      40.636  -7.713  17.730  1.00  0.00    -0.191 NA
HETATM    7  C   UNL     1      42.690  -7.162  14.920  1.00  0.00     0.028 A 
HETATM    8  C   UNL     1      43.186  -7.331  13.627  1.00  0.00     0.059 A 
ENDROOT
BRANCH   1   9
HETATM    9  O   UNL     1      43.119  -8.422  11.545  1.00  0.00    -0.329 OA
BRANCH   9  10
HETATM   10  C   UNL     1      42.857  -9.690  10.930  1.00  0.00     0.130 C 
HETATM   11  C   UNL     1      42.622  -9.411   9.438  1.00  0.00     0.034 C 
HETATM   12  C   UNL     1      43.871  -8.846   8.755  1.00  0.00     0.035 C 
HETATM   13  C   UNL     1      45.108  -9.730   8.941  1.00  0.00     0.186 C 
HETATM   14  C   UNL     1      45.325 -10.078  10.418  1.00  0.00     0.035 C 
HETATM   15  C   UNL     1      44.066 -10.622  11.103  1.00  0.00     0.034 C 
BRANCH  13  16
HETATM   16  N   UNL     1      44.974 -11.012   8.162  1.00  0.00    -0.067 N 
HETATM   17  H   UNL     1      44.374 -11.689   8.649  1.00  0.00     0.278 HD
HETATM   18  H   UNL     1      45.897 -11.465   8.112  1.00  0.00     0.278 HD
BRANCH  16  19
HETATM   19  C   UNL     1      44.499 -10.878   6.748  1.00  0.00     0.280 C 
BRANCH  19  20
HETATM   20  C   UNL     1      43.382 -11.816   6.477  1.00  0.00     0.034 A 
HETATM   21  C   UNL     1      42.072 -11.549   6.115  1.00  0.00     0.046 A 
HETATM   22  C   UNL     1      41.443 -10.219   5.896  1.00  0.00     0.071 C 
HETATM   23  N   UNL     1      41.286 -12.671   5.949  1.00  0.00    -0.250 NA
HETATM   24  C   UNL     1      41.983 -13.769   6.142  1.00  0.00     0.072 A 
HETATM   25  C   UNL     1      41.447 -15.149   5.993  1.00  0.00     0.078 C 
HETATM   26  S   UNL     1      43.619 -13.513   6.596  1.00  0.00    -0.076 SA
ENDBRANCH  19  20
ENDBRANCH  16  19
ENDBRANCH  13  16
ENDBRANCH   9  10
ENDBRANCH   1   9
TORSDOF 5
ENDMDL
MODEL 5
REMARK VINA RESULT:      -6.8      2.707      3.194
REMARK  5 active torsions:
REMARK  status: ('A' for Active; 'I' for Inactive)
REMARK    1  A    between atoms: C_7  and  C_8 
REMARK    2  A    between atoms: C_8  and  N_9 
REMARK    3  A    between atoms: N_9  and  C_12 
REMARK    4  A    between atoms: C_15  and  O_16 
REMARK    5  A    between atoms: O_16  and  C_17 
ROOT
HETATM    1  C   UNL     1      43.267 -15.935   3.902  1.00  0.00     0.164 A 
HETATM    2  N   UNL     1      43.729 -16.892   4.733  1.00  0.00    -0.236 NA
HETATM    3  C   UNL     1      43.852 -18.140   4.213  1.00  0.00     0.142 A 
HETATM    4  C   UNL     1      43.525 -18.471   2.905  1.00  0.00     0.062 A 
HETATM    5  C   UNL     1      43.687 -19.810   2.433  1.00  0.00     0.101 C 
HETATM    6  N   UNL     1      43.820 -20.898   2.054  1.00  0.00    -0.191 NA
HETATM    7  C   UNL     1      43.037 -17.461   2.078  1.00  0.00     0.028 A 
HETATM    8  C   UNL     1      42.898 -16.170   2.587  1.00  0.00     0.059 A 
ENDROOT
BRANCH   1   9
HETATM    9  O   UNL     1      43.100 -14.649   4.368  1.00  0.00    -0.329 OA
BRANCH   9  10
HETATM   10  C   UNL     1      42.534 -14.558   5.682  1.00  0.00     0.130 C 
HETATM   11  C   UNL     1      43.201 -13.354   6.362  1.00  0.00     0.034 C 
HETATM   12  C   UNL     1      42.867 -12.037   5.656  1.00  0.00     0.035 C 
HETATM   13  C   UNL     1      41.362 -11.798   5.509  1.00  0.00     0.186 C 
HETATM   14  C   UNL     1      40.663 -13.016   4.893  1.00  0.00     0.035 C 
HETATM   15  C   UNL     1      41.017 -14.334   5.590  1.00  0.00     0.034 C 
BRANCH  13  16
HETATM   16  N   UNL     1      40.732 -11.512   6.846  1.00  0.00    -0.067 N 
HETATM   17  H   UNL     1      41.329 -10.910   7.426  1.00  0.00     0.278 HD
HETATM   18  H   UNL     1      40.658 -12.395   7.372  1.00  0.00     0.278 HD
BRANCH  16  19
HETATM   19  C   UNL     1      39.351 -10.931   6.815  1.00  0.00     0.280 C 
BRANCH  19  20
HETATM   20  C   UNL     1      39.357  -9.533   7.311  1.00  0.00     0.034 A 
HETATM   21  C   UNL     1      39.295  -9.056   8.610  1.00  0.00     0.046 A 
HETATM   22  C   UNL     1      39.212  -9.850   9.866  1.00  0.00     0.071 C 
HETATM   23  N   UNL     1      39.313  -7.681   8.715  1.00  0.00    -0.250 NA
HETATM   24  C   UNL     1      39.423  -7.118   7.532  1.00  0.00     0.072 A 
HETATM   25  C   UNL     1      39.519  -5.652   7.298  1.00  0.00     0.078 C 
HETATM   26  S   UNL     1      39.450  -8.216   6.213  1.00  0.00    -0.076 SA
ENDBRANCH  19  20
ENDBRANCH  16  19
ENDBRANCH  13  16
ENDBRANCH   9  10
ENDBRANCH   1   9
TORSDOF 5
ENDMDL
MODEL 6
REMARK VINA RESULT:      -6.7      5.473      8.375
REMARK  5 active torsions:
REMARK  status: ('A' for Active; 'I' for Inactive)
REMARK    1  A    between atoms: C_7  and  C_8 
REMARK    2  A    between atoms: C_8  and  N_9 
REMARK    3  A    between atoms: N_9  and  C_12 
REMARK    4  A    between atoms: C_15  and  O_16 
REMARK    5  A    between atoms: O_16  and  C_17 
ROOT
HETATM    1  C   UNL     1      43.239 -16.152   3.614  1.00  0.00     0.164 A 
HETATM    2  N   UNL     1      43.271 -16.360   4.946  1.00  0.00    -0.236 NA
HETATM    3  C   UNL     1      43.541 -17.625   5.357  1.00  0.00     0.142 A 
HETATM    4  C   UNL     1      43.771 -18.688   4.495  1.00  0.00     0.062 A 
HETATM    5  C   UNL     1      44.053 -19.991   5.009  1.00  0.00     0.101 C 
HETATM    6  N   UNL     1      44.280 -21.047   5.430  1.00  0.00    -0.191 NA
HETATM    7  C   UNL     1      43.717 -18.442   3.124  1.00  0.00     0.028 A 
HETATM    8  C   UNL     1      43.440 -17.152   2.674  1.00  0.00     0.059 A 
ENDROOT
BRANCH   1   9
HETATM    9  O   UNL     1      42.954 -14.895   3.125  1.00  0.00    -0.329 OA
BRANCH   9  10
HETATM   10  C   UNL     1      41.609 -14.456   3.357  1.00  0.00     0.130 C 
HETATM   11  C   UNL     1      41.671 -12.930   3.521  1.00  0.00     0.034 C 
HETATM   12  C   UNL     1      42.139 -12.233   2.240  1.00  0.00     0.035 C 
HETATM   13  C   UNL     1      41.300 -12.603   1.013  1.00  0.00     0.186 C 
HETATM   14  C   UNL     1      41.168 -14.123   0.868  1.00  0.00     0.035 C 
HETATM   15  C   UNL     1      40.720 -14.819   2.158  1.00  0.00     0.034 C 
BRANCH  13  16
HETATM   16  N   UNL     1      39.919 -12.010   1.110  1.00  0.00    -0.067 N 
HETATM   17  H   UNL     1      39.786 -11.503   1.993  1.00  0.00     0.278 HD
HETATM   18  H   UNL     1      39.232 -12.778   1.141  1.00  0.00     0.278 HD
BRANCH  16  19
HETATM   19  C   UNL     1      39.500 -11.123  -0.022  1.00  0.00     0.280 C 
BRANCH  19  20
HETATM   20  C   UNL     1      39.378 -11.899  -1.281  1.00  0.00     0.034 A 
HETATM   21  C   UNL     1      39.981 -11.688  -2.510  1.00  0.00     0.046 A 
HETATM   22  C   UNL     1      40.933 -10.607  -2.882  1.00  0.00     0.071 C 
HETATM   23  N   UNL     1      39.635 -12.607  -3.480  1.00  0.00    -0.250 NA
HETATM   24  C   UNL     1      38.819 -13.517  -2.998  1.00  0.00     0.072 A 
HETATM   25  C   UNL     1      38.294 -14.677  -3.770  1.00  0.00     0.078 C 
HETATM   26  S   UNL     1      38.369 -13.286  -1.358  1.00  0.00    -0.076 SA
ENDBRANCH  19  20
ENDBRANCH  16  19
ENDBRANCH  13  16
ENDBRANCH   9  10
ENDBRANCH   1   9
TORSDOF 5
ENDMDL
MODEL 7
REMARK VINA RESULT:      -6.7      3.000      4.120
REMARK  5 active torsions:
REMARK  status: ('A' for Active; 'I' for Inactive)
REMARK    1  A    between atoms: C_7  and  C_8 
REMARK    2  A    between atoms: C_8  and  N_9 
REMARK    3  A    between atoms: N_9  and  C_12 
REMARK    4  A    between atoms: C_15  and  O_16 
REMARK    5  A    between atoms: O_16  and  C_17 
ROOT
HETATM    1  C   UNL     1      43.345 -16.133   4.073  1.00  0.00     0.164 A 
HETATM    2  N   UNL     1      43.841 -17.134   4.828  1.00  0.00    -0.236 NA
HETATM    3  C   UNL     1      43.944 -18.350   4.233  1.00  0.00     0.142 A 
HETATM    4  C   UNL     1      43.566 -18.607   2.923  1.00  0.00     0.062 A 
HETATM    5  C   UNL     1      43.710 -19.916   2.369  1.00  0.00     0.101 C 
HETATM    6  N   UNL     1      43.829 -20.979   1.923  1.00  0.00    -0.191 NA
HETATM    7  C   UNL     1      43.044 -17.553   2.174  1.00  0.00     0.028 A 
HETATM    8  C   UNL     1      42.924 -16.294   2.761  1.00  0.00     0.059 A 
ENDROOT
BRANCH   1   9
HETATM    9  O   UNL     1      43.195 -14.875   4.618  1.00  0.00    -0.329 OA
BRANCH   9  10
HETATM   10  C   UNL     1      42.519 -14.849   5.881  1.00  0.00     0.130 C 
HETATM   11  C   UNL     1      42.918 -13.532   6.562  1.00  0.00     0.034 C 
HETATM   12  C   UNL     1      42.426 -12.309   5.782  1.00  0.00     0.035 C 
HETATM   13  C   UNL     1      40.917 -12.335   5.515  1.00  0.00     0.186 C 
HETATM   14  C   UNL     1      40.485 -13.669   4.897  1.00  0.00     0.035 C 
HETATM   15  C   UNL     1      40.999 -14.889   5.669  1.00  0.00     0.034 C 
BRANCH  13  16
HETATM   16  N   UNL     1      40.144 -12.126   6.790  1.00  0.00    -0.067 N 
HETATM   17  H   UNL     1      40.767 -12.054   7.604  1.00  0.00     0.278 HD
HETATM   18  H   UNL     1      39.572 -12.963   6.970  1.00  0.00     0.278 HD
BRANCH  16  19
HETATM   19  C   UNL     1      39.198 -10.965   6.806  1.00  0.00     0.280 C 
BRANCH  19  20
HETATM   20  C   UNL     1      39.539  -9.994   5.737  1.00  0.00     0.034 A 
HETATM   21  C   UNL     1      40.529  -9.025   5.706  1.00  0.00     0.046 A 
HETATM   22  C   UNL     1      41.528  -8.714   6.764  1.00  0.00     0.071 C 
HETATM   23  N   UNL     1      40.562  -8.280   4.545  1.00  0.00    -0.250 NA
HETATM   24  C   UNL     1      39.647  -8.690   3.695  1.00  0.00     0.072 A 
HETATM   25  C   UNL     1      39.449  -8.129   2.330  1.00  0.00     0.078 C 
HETATM   26  S   UNL     1      38.649  -9.962   4.269  1.00  0.00    -0.076 SA
ENDBRANCH  19  20
ENDBRANCH  16  19
ENDBRANCH  13  16
ENDBRANCH   9  10
ENDBRANCH   1   9
TORSDOF 5
ENDMDL
MODEL 8
REMARK VINA RESULT:      -6.6      5.262      6.574
REMARK  5 active torsions:
REMARK  status: ('A' for Active; 'I' for Inactive)
REMARK    1  A    between atoms: C_7  and  C_8 
REMARK    2  A    between atoms: C_8  and  N_9 
REMARK    3  A    between atoms: N_9  and  C_12 
REMARK    4  A    between atoms: C_15  and  O_16 
REMARK    5  A    between atoms: O_16  and  C_17 
ROOT
HETATM    1  C   UNL     1      43.158 -16.552   3.014  1.00  0.00     0.164 A 
HETATM    2  N   UNL     1      43.503 -16.514   4.318  1.00  0.00    -0.236 NA
HETATM    3  C   UNL     1      43.868 -17.692   4.884  1.00  0.00     0.142 A 
HETATM    4  C   UNL     1      43.896 -18.903   4.206  1.00  0.00     0.062 A 
HETATM    5  C   UNL     1      44.298 -20.101   4.874  1.00  0.00     0.101 C 
HETATM    6  N   UNL     1      44.624 -21.070   5.420  1.00  0.00    -0.191 NA
HETATM    7  C   UNL     1      43.521 -18.910   2.863  1.00  0.00     0.028 A 
HETATM    8  C   UNL     1      43.138 -17.714   2.257  1.00  0.00     0.059 A 
ENDROOT
BRANCH   1   9
HETATM    9  O   UNL     1      42.759 -15.396   2.379  1.00  0.00    -0.329 OA
BRANCH   9  10
HETATM   10  C   UNL     1      41.679 -14.705   3.020  1.00  0.00     0.130 C 
HETATM   11  C   UNL     1      41.714 -13.261   2.499  1.00  0.00     0.034 C 
HETATM   12  C   UNL     1      41.443 -13.187   0.994  1.00  0.00     0.035 C 
HETATM   13  C   UNL     1      40.133 -13.868   0.585  1.00  0.00     0.186 C 
HETATM   14  C   UNL     1      40.046 -15.290   1.151  1.00  0.00     0.035 C 
HETATM   15  C   UNL     1      40.339 -15.362   2.654  1.00  0.00     0.034 C 
BRANCH  13  16
HETATM   16  N   UNL     1      38.945 -13.084   1.076  1.00  0.00    -0.067 N 
HETATM   17  H   UNL     1      39.034 -12.845   2.071  1.00  0.00     0.278 HD
HETATM   18  H   UNL     1      38.109 -13.683   1.022  1.00  0.00     0.278 HD
BRANCH  16  19
HETATM   19  C   UNL     1      38.614 -11.839   0.311  1.00  0.00     0.280 C 
BRANCH  19  20
HETATM   20  C   UNL     1      38.325 -10.715   1.235  1.00  0.00     0.034 A 
HETATM   21  C   UNL     1      37.606  -9.551   1.012  1.00  0.00     0.046 A 
HETATM   22  C   UNL     1      36.921  -9.131  -0.240  1.00  0.00     0.071 C 
HETATM   23  N   UNL     1      37.540  -8.705   2.100  1.00  0.00    -0.250 NA
HETATM   24  C   UNL     1      38.159  -9.222   3.138  1.00  0.00     0.072 A 
HETATM   25  C   UNL     1      38.233  -8.586   4.482  1.00  0.00     0.078 C 
HETATM   26  S   UNL     1      38.913 -10.736   2.848  1.00  0.00    -0.076 SA
ENDBRANCH  19  20
ENDBRANCH  16  19
ENDBRANCH  13  16
ENDBRANCH   9  10
ENDBRANCH   1   9
TORSDOF 5
ENDMDL
MODEL 9
REMARK VINA RESULT:      -6.6      2.886      3.739
REMARK  5 active torsions:
REMARK  status: ('A' for Active; 'I' for Inactive)
REMARK    1  A    between atoms: C_7  and  C_8 
REMARK    2  A    between atoms: C_8  and  N_9 
REMARK    3  A    between atoms: N_9  and  C_12 
REMARK    4  A    between atoms: C_15  and  O_16 
REMARK    5  A    between atoms: O_16  and  C_17 
ROOT
HETATM    1  C   UNL     1      43.360 -15.963   3.854  1.00  0.00     0.164 A 
HETATM    2  N   UNL     1      43.950 -16.846   4.686  1.00  0.00    -0.236 NA
HETATM    3  C   UNL     1      44.051 -18.124   4.241  1.00  0.00     0.142 A 
HETATM    4  C   UNL     1      43.582 -18.556   3.008  1.00  0.00     0.062 A 
HETATM    5  C   UNL     1      43.732 -19.921   2.612  1.00  0.00     0.101 C 
HETATM    6  N   UNL     1      43.854 -21.029   2.294  1.00  0.00    -0.191 NA
HETATM    7  C   UNL     1      42.965 -17.621   2.178  1.00  0.00     0.028 A 
HETATM    8  C   UNL     1      42.845 -16.300   2.611  1.00  0.00     0.059 A 
ENDROOT
BRANCH   1   9
HETATM    9  O   UNL     1      43.207 -14.651   4.248  1.00  0.00    -0.329 OA
BRANCH   9  10
HETATM   10  C   UNL     1      42.517 -13.821   3.304  1.00  0.00     0.130 C 
HETATM   11  C   UNL     1      41.395 -13.117   4.082  1.00  0.00     0.034 C 
HETATM   12  C   UNL     1      41.944 -12.180   5.161  1.00  0.00     0.035 C 
HETATM   13  C   UNL     1      42.939 -11.151   4.615  1.00  0.00     0.186 C 
HETATM   14  C   UNL     1      44.032 -11.826   3.778  1.00  0.00     0.035 C 
HETATM   15  C   UNL     1      43.478 -12.779   2.713  1.00  0.00     0.034 C 
BRANCH  13  16
HETATM   16  N   UNL     1      42.238 -10.133   3.755  1.00  0.00    -0.067 N 
HETATM   17  H   UNL     1      42.016 -10.510   2.826  1.00  0.00     0.278 HD
HETATM   18  H   UNL     1      42.885  -9.352   3.576  1.00  0.00     0.278 HD
BRANCH  16  19
HETATM   19  C   UNL     1      40.999  -9.521   4.334  1.00  0.00     0.280 C 
BRANCH  19  20
HETATM   20  C   UNL     1      41.301  -8.208   4.955  1.00  0.00     0.034 A 
HETATM   21  C   UNL     1      41.536  -7.893   6.284  1.00  0.00     0.046 A 
HETATM   22  C   UNL     1      41.551  -8.818   7.449  1.00  0.00     0.071 C 
HETATM   23  N   UNL     1      41.779  -6.555   6.518  1.00  0.00    -0.250 NA
HETATM   24  C   UNL     1      41.767  -5.869   5.396  1.00  0.00     0.072 A 
HETATM   25  C   UNL     1      42.041  -4.410   5.293  1.00  0.00     0.078 C 
HETATM   26  S   UNL     1      41.401  -6.789   3.994  1.00  0.00    -0.076 SA
ENDBRANCH  19  20
ENDBRANCH  16  19
ENDBRANCH  13  16
ENDBRANCH   9  10
ENDBRANCH   1   9
TORSDOF 5
ENDMDL
MODEL 10
REMARK VINA RESULT:      -6.6      6.152      8.604
REMARK  5 active torsions:
REMARK  status: ('A' for Active; 'I' for Inactive)
REMARK    1  A    between atoms: C_7  and  C_8 
REMARK    2  A    between atoms: C_8  and  N_9 
REMARK    3  A    between atoms: N_9  and  C_12 
REMARK    4  A    between atoms: C_15  and  O_16 
REMARK    5  A    between atoms: O_16  and  C_17 
ROOT
HETATM    1  C   UNL     1      42.824 -15.721   2.653  1.00  0.00     0.164 A 
HETATM    2  N   UNL     1      42.907 -15.685   3.999  1.00  0.00    -0.236 NA
HETATM    3  C   UNL     1      43.293 -16.832   4.615  1.00  0.00     0.142 A 
HETATM    4  C   UNL     1      43.591 -18.010   3.944  1.00  0.00     0.062 A 
HETATM    5  C   UNL     1      43.994 -19.175   4.666  1.00  0.00     0.101 C 
HETATM    6  N   UNL     1      44.321 -20.118   5.256  1.00  0.00    -0.191 NA
HETATM    7  C   UNL     1      43.481 -18.017   2.554  1.00  0.00     0.028 A 
HETATM    8  C   UNL     1      43.084 -16.853   1.896  1.00  0.00     0.059 A 
ENDROOT
BRANCH   1   9
HETATM    9  O   UNL     1      42.421 -14.598   1.963  1.00  0.00    -0.329 OA
BRANCH   9  10
HETATM   10  C   UNL     1      41.109 -14.129   2.301  1.00  0.00     0.130 C 
HETATM   11  C   UNL     1      41.011 -12.690   1.773  1.00  0.00     0.034 C 
HETATM   12  C   UNL     1      41.113 -12.630   0.246  1.00  0.00     0.035 C 
HETATM   13  C   UNL     1      40.091 -13.526  -0.461  1.00  0.00     0.186 C 
HETATM   14  C   UNL     1      40.125 -14.953   0.098  1.00  0.00     0.035 C 
HETATM   15  C   UNL     1      40.044 -15.008   1.627  1.00  0.00     0.034 C 
BRANCH  13  16
HETATM   16  N   UNL     1      38.697 -12.981  -0.297  1.00  0.00    -0.067 N 
HETATM   17  H   UNL     1      38.683 -12.151   0.308  1.00  0.00     0.278 HD
HETATM   18  H   UNL     1      38.126 -13.680   0.199  1.00  0.00     0.278 HD
BRANCH  16  19
HETATM   19  C   UNL     1      37.960 -12.665  -1.563  1.00  0.00     0.280 C 
BRANCH  19  20
HETATM   20  C   UNL     1      37.581 -11.231  -1.606  1.00  0.00     0.034 A 
HETATM   21  C   UNL     1      36.614 -10.596  -2.368  1.00  0.00     0.046 A 
HETATM   22  C   UNL     1      35.685 -11.211  -3.355  1.00  0.00     0.071 C 
HETATM   23  N   UNL     1      36.530  -9.234  -2.165  1.00  0.00    -0.250 NA
HETATM   24  C   UNL     1      37.384  -8.841  -1.246  1.00  0.00     0.072 A 
HETATM   25  C   UNL     1      37.516  -7.441  -0.756  1.00  0.00     0.078 C 
HETATM   26  S   UNL     1      38.385 -10.084  -0.613  1.00  0.00    -0.076 SA
ENDBRANCH  19  20
ENDBRANCH  16  19
ENDBRANCH  13  16
ENDBRANCH   9  10
ENDBRANCH   1   9
TORSDOF 5
ENDMDL
