MODEL 1
REMARK VINA RESULT:      -8.3      0.000      0.000
REMARK  8 active torsions:
REMARK  status: ('A' for Active; 'I' for Inactive)
REMARK    1  A    between atoms: O_2  and  C_3 
REMARK    2  A    between atoms: C_7  and  C_9 
REMARK    3  A    between atoms: C_9  and  C_10 
REMARK    4  A    between atoms: C_9  and  N_18 
REMARK    5  A    between atoms: C_10  and  C_11 
REMARK    6  A    between atoms: C_11  and  N_12 
REMARK       I    between atoms: N_18  and  C_19 
REMARK    7  A    between atoms: C_19  and  C_21 
REMARK    8  A    between atoms: C_24  and  C_27 
ROOT
HETATM    1  C   UNL     1      41.411 -10.995   1.247  1.00  0.00     0.119 C 
ENDROOT
BRANCH   1   2
HETATM    2  C   UNL     1      41.239 -10.912  -0.263  1.00  0.00    -0.033 A 
HETATM    3  C   UNL     1      41.228  -9.704  -0.975  1.00  0.00     0.009 A 
HETATM    4  C   UNL     1      41.049  -9.700  -2.359  1.00  0.00     0.003 A 
HETATM    5  C   UNL     1      40.857 -10.898  -3.044  1.00  0.00     0.037 A 
HETATM    6  C   UNL     1      40.830 -12.110  -2.356  1.00  0.00     0.068 A 
HETATM    7  C   UNL     1      41.029 -12.114  -0.975  1.00  0.00     0.046 A 
BRANCH   6   8
HETATM    8  O   UNL     1      40.610 -13.208  -3.139  1.00  0.00    -0.356 OA
HETATM    9  C   UNL     1      39.439 -13.970  -2.869  1.00  0.00     0.210 C 
ENDBRANCH   6   8
ENDBRANCH   1   2
BRANCH   1  10
HETATM   10  C   UNL     1      40.253 -10.382   2.068  1.00  0.00     0.057 C 
BRANCH  10  11
HETATM   11  C   UNL     1      40.759  -9.614   3.288  1.00  0.00     0.237 C 
BRANCH  11  12
HETATM   12  N   UNL     1      40.236 -10.227   4.569  1.00  0.00    -0.071 N 
HETATM   13  H   UNL     1      39.612  -9.538   5.014  1.00  0.00     0.279 HD
HETATM   14  C   UNL     1      41.288 -10.620   5.590  1.00  0.00     0.235 C 
HETATM   15  C   UNL     1      41.089 -12.108   5.808  1.00  0.00     0.029 C 
HETATM   16  C   UNL     1      39.618 -12.325   5.522  1.00  0.00     0.029 C 
HETATM   17  C   UNL     1      39.392 -11.463   4.300  1.00  0.00     0.235 C 
ENDBRANCH  11  12
ENDBRANCH  10  11
ENDBRANCH   1  10
BRANCH   1  18
HETATM   18  N   UNL     1      41.629 -12.392   1.600  1.00  0.00    -0.348 N 
HETATM   19  C   UNL     1      42.658 -12.789   2.424  1.00  0.00     0.252 C 
HETATM   20  O   UNL     1      43.373 -11.975   3.003  1.00  0.00    -0.268 OA
HETATM   21  H   UNL     1      41.017 -13.078   1.176  1.00  0.00     0.163 HD
BRANCH  19  22
HETATM   22  C   UNL     1      42.810 -14.250   2.674  1.00  0.00     0.032 A 
HETATM   23  C   UNL     1      42.817 -14.802   3.958  1.00  0.00     0.018 A 
HETATM   24  C   UNL     1      43.040 -16.174   4.129  1.00  0.00     0.013 A 
HETATM   25  C   UNL     1      43.251 -17.021   3.027  1.00  0.00    -0.026 A 
HETATM   26  C   UNL     1      43.195 -16.458   1.743  1.00  0.00     0.013 A 
HETATM   27  C   UNL     1      42.973 -15.089   1.566  1.00  0.00     0.018 A 
BRANCH  25  28
HETATM   28  C   UNL     1      43.539 -18.452   3.213  1.00  0.00    -0.023 A 
HETATM   29  C   UNL     1      43.352 -19.375   2.178  1.00  0.00     0.031 A 
HETATM   30  C   UNL     1      43.627 -20.713   2.412  1.00  0.00     0.117 A 
HETATM   31  N   UNL     1      44.069 -21.193   3.594  1.00  0.00    -0.273 NA
HETATM   32  C   UNL     1      44.247 -20.294   4.583  1.00  0.00     0.117 A 
HETATM   33  C   UNL     1      44.001 -18.938   4.442  1.00  0.00     0.031 A 
ENDBRANCH  25  28
ENDBRANCH  19  22
ENDBRANCH   1  18
TORSDOF 8
ENDMDL
MODEL 2
REMARK VINA RESULT:      -8.3      3.243      7.974
REMARK  8 active torsions:
REMARK  status: ('A' for Active; 'I' for Inactive)
REMARK    1  A    between atoms: O_2  and  C_3 
REMARK    2  A    between atoms: C_7  and  C_9 
REMARK    3  A    between atoms: C_9  and  C_10 
REMARK    4  A    between atoms: C_9  and  N_18 
REMARK    5  A    between atoms: C_10  and  C_11 
REMARK    6  A    between atoms: C_11  and  N_12 
REMARK       I    between atoms: N_18  and  C_19 
REMARK    7  A    between atoms: C_19  and  C_21 
REMARK    8  A    between atoms: C_24  and  C_27 
ROOT
HETATM    1  C   UNL     1      42.723 -16.314   5.815  1.00  0.00     0.119 C 
ENDROOT
BRANCH   1   2
HETATM    2  C   UNL     1      43.212 -17.708   5.451  1.00  0.00    -0.033 A 
HETATM    3  C   UNL     1      43.382 -18.738   6.388  1.00  0.00     0.009 A 
HETATM    4  C   UNL     1      43.849 -19.990   5.987  1.00  0.00     0.003 A 
HETATM    5  C   UNL     1      44.174 -20.222   4.652  1.00  0.00     0.037 A 
HETATM    6  C   UNL     1      44.047 -19.206   3.706  1.00  0.00     0.068 A 
HETATM    7  C   UNL     1      43.559 -17.960   4.106  1.00  0.00     0.046 A 
BRANCH   6   8
HETATM    8  O   UNL     1      44.420 -19.553   2.439  1.00  0.00    -0.356 OA
HETATM    9  C   UNL     1      43.584 -20.474   1.748  1.00  0.00     0.210 C 
ENDBRANCH   6   8
ENDBRANCH   1   2
BRANCH   1  10
HETATM   10  C   UNL     1      43.783 -15.408   6.485  1.00  0.00     0.057 C 
BRANCH  10  11
HETATM   11  C   UNL     1      43.170 -14.501   7.551  1.00  0.00     0.237 C 
BRANCH  11  12
HETATM   12  N   UNL     1      43.212 -13.051   7.117  1.00  0.00    -0.071 N 
HETATM   13  H   UNL     1      43.050 -12.470   7.951  1.00  0.00     0.279 HD
HETATM   14  C   UNL     1      42.190 -12.647   6.070  1.00  0.00     0.235 C 
HETATM   15  C   UNL     1      43.008 -12.126   4.903  1.00  0.00     0.029 C 
HETATM   16  C   UNL     1      44.271 -11.599   5.548  1.00  0.00     0.029 C 
HETATM   17  C   UNL     1      44.580 -12.663   6.580  1.00  0.00     0.235 C 
ENDBRANCH  11  12
ENDBRANCH  10  11
ENDBRANCH   1  10
BRANCH   1  18
HETATM   18  N   UNL     1      42.183 -15.697   4.611  1.00  0.00    -0.348 N 
HETATM   19  C   UNL     1      40.861 -15.827   4.248  1.00  0.00     0.252 C 
HETATM   20  O   UNL     1      40.040 -16.369   4.983  1.00  0.00    -0.268 OA
HETATM   21  H   UNL     1      42.832 -15.198   4.015  1.00  0.00     0.163 HD
BRANCH  19  22
HETATM   22  C   UNL     1      40.437 -15.191   2.970  1.00  0.00     0.032 A 
HETATM   23  C   UNL     1      40.409 -15.879   1.754  1.00  0.00     0.018 A 
HETATM   24  C   UNL     1      40.073 -15.203   0.574  1.00  0.00     0.013 A 
HETATM   25  C   UNL     1      39.751 -13.836   0.584  1.00  0.00    -0.026 A 
HETATM   26  C   UNL     1      39.739 -13.171   1.820  1.00  0.00     0.013 A 
HETATM   27  C   UNL     1      40.074 -13.840   3.001  1.00  0.00     0.018 A 
BRANCH  25  28
HETATM   28  C   UNL     1      39.453 -13.116  -0.664  1.00  0.00    -0.023 A 
HETATM   29  C   UNL     1      38.448 -12.144  -0.725  1.00  0.00     0.031 A 
HETATM   30  C   UNL     1      38.200 -11.506  -1.930  1.00  0.00     0.117 A 
HETATM   31  N   UNL     1      38.873 -11.768  -3.069  1.00  0.00    -0.273 NA
HETATM   32  C   UNL     1      39.839 -12.705  -2.999  1.00  0.00     0.117 A 
HETATM   33  C   UNL     1      40.161 -13.393  -1.840  1.00  0.00     0.031 A 
ENDBRANCH  25  28
ENDBRANCH  19  22
ENDBRANCH   1  18
TORSDOF 8
ENDMDL
MODEL 3
REMARK VINA RESULT:      -8.2      3.776      8.237
REMARK  8 active torsions:
REMARK  status: ('A' for Active; 'I' for Inactive)
REMARK    1  A    between atoms: O_2  and  C_3 
REMARK    2  A    between atoms: C_7  and  C_9 
REMARK    3  A    between atoms: C_9  and  C_10 
REMARK    4  A    between atoms: C_9  and  N_18 
REMARK    5  A    between atoms: C_10  and  C_11 
REMARK    6  A    between atoms: C_11  and  N_12 
REMARK       I    between atoms: N_18  and  C_19 
REMARK    7  A    between atoms: C_19  and  C_21 
REMARK    8  A    between atoms: C_24  and  C_27 
ROOT
HETATM    1  C   UNL     1      43.193 -12.932   2.811  1.00  0.00     0.119 C 
ENDROOT
BRANCH   1   2
HETATM    2  C   UNL     1      43.157 -14.445   2.974  1.00  0.00    -0.033 A 
HETATM    3  C   UNL     1      43.424 -15.342   1.929  1.00  0.00     0.009 A 
HETATM    4  C   UNL     1      43.358 -16.719   2.146  1.00  0.00     0.003 A 
HETATM    5  C   UNL     1      43.004 -17.216   3.399  1.00  0.00     0.037 A 
HETATM    6  C   UNL     1      42.702 -16.346   4.445  1.00  0.00     0.068 A 
HETATM    7  C   UNL     1      42.788 -14.969   4.232  1.00  0.00     0.046 A 
BRANCH   6   8
HETATM    8  O   UNL     1      42.347 -16.957   5.614  1.00  0.00    -0.356 OA
HETATM    9  C   UNL     1      43.295 -17.848   6.191  1.00  0.00     0.210 C 
ENDBRANCH   6   8
ENDBRANCH   1   2
BRANCH   1  10
HETATM   10  C   UNL     1      42.078 -12.349   1.911  1.00  0.00     0.057 C 
BRANCH  10  11
HETATM   11  C   UNL     1      40.701 -12.455   2.564  1.00  0.00     0.237 C 
BRANCH  11  12
HETATM   12  N   UNL     1      39.796 -13.376   1.775  1.00  0.00    -0.071 N 
HETATM   13  H   UNL     1      38.900 -12.889   1.633  1.00  0.00     0.279 HD
HETATM   14  C   UNL     1      39.494 -14.716   2.421  1.00  0.00     0.235 C 
HETATM   15  C   UNL     1      39.985 -15.752   1.427  1.00  0.00     0.029 C 
HETATM   16  C   UNL     1      39.857 -15.061   0.086  1.00  0.00     0.029 C 
HETATM   17  C   UNL     1      40.354 -13.664   0.390  1.00  0.00     0.235 C 
ENDBRANCH  11  12
ENDBRANCH  10  11
ENDBRANCH   1  10
BRANCH   1  18
HETATM   18  N   UNL     1      43.168 -12.335   4.140  1.00  0.00    -0.348 N 
HETATM   19  C   UNL     1      44.227 -11.609   4.639  1.00  0.00     0.252 C 
HETATM   20  O   UNL     1      45.199 -11.325   3.945  1.00  0.00    -0.268 OA
HETATM   21  H   UNL     1      42.351 -12.511   4.712  1.00  0.00     0.163 HD
BRANCH  19  22
HETATM   22  C   UNL     1      44.104 -11.088   6.029  1.00  0.00     0.032 A 
HETATM   23  C   UNL     1      45.094 -11.272   6.998  1.00  0.00     0.018 A 
HETATM   24  C   UNL     1      44.885 -10.824   8.308  1.00  0.00     0.013 A 
HETATM   25  C   UNL     1      43.693 -10.177   8.675  1.00  0.00    -0.026 A 
HETATM   26  C   UNL     1      42.728  -9.959   7.679  1.00  0.00     0.013 A 
HETATM   27  C   UNL     1      42.931 -10.405   6.370  1.00  0.00     0.018 A 
BRANCH  25  28
HETATM   28  C   UNL     1      43.453  -9.757  10.064  1.00  0.00    -0.023 A 
HETATM   29  C   UNL     1      43.361 -10.689  11.104  1.00  0.00     0.031 A 
HETATM   30  C   UNL     1      43.121 -10.238  12.393  1.00  0.00     0.117 A 
HETATM   31  N   UNL     1      42.965  -8.937  12.715  1.00  0.00    -0.273 NA
HETATM   32  C   UNL     1      43.057  -8.048  11.706  1.00  0.00     0.117 A 
HETATM   33  C   UNL     1      43.297  -8.403  10.389  1.00  0.00     0.031 A 
ENDBRANCH  25  28
ENDBRANCH  19  22
ENDBRANCH   1  18
TORSDOF 8
ENDMDL
MODEL 4
REMARK VINA RESULT:      -8.2      1.345      2.269
REMARK  8 active torsions:
REMARK  status: ('A' for Active; 'I' for Inactive)
REMARK    1  A    between atoms: O_2  and  C_3 
REMARK    2  A    between atoms: C_7  and  C_9 
REMARK    3  A    between atoms: C_9  and  C_10 
REMARK    4  A    between atoms: C_9  and  N_18 
REMARK    5  A    between atoms: C_10  and  C_11 
REMARK    6  A    between atoms: C_11  and  N_12 
REMARK       I    between atoms: N_18  and  C_19 
REMARK    7  A    between atoms: C_19  and  C_21 
REMARK    8  A    between atoms: C_24  and  C_27 
ROOT
HETATM    1  C   UNL     1      41.575 -10.793   1.531  1.00  0.00     0.119 C 
ENDROOT
BRANCH   1   2
HETATM    2  C   UNL     1      41.264 -10.656   0.048  1.00  0.00    -0.033 A 
HETATM    3  C   UNL     1      41.132  -9.421  -0.604  1.00  0.00     0.009 A 
HETATM    4  C   UNL     1      40.830  -9.368  -1.966  1.00  0.00     0.003 A 
HETATM    5  C   UNL     1      40.633 -10.545  -2.686  1.00  0.00     0.037 A 
HETATM    6  C   UNL     1      40.725 -11.784  -2.055  1.00  0.00     0.068 A 
HETATM    7  C   UNL     1      41.048 -11.836  -0.698  1.00  0.00     0.046 A 
BRANCH   6   8
HETATM    8  O   UNL     1      40.488 -12.858  -2.865  1.00  0.00    -0.356 OA
HETATM    9  C   UNL     1      39.128 -13.229  -3.065  1.00  0.00     0.210 C 
ENDBRANCH   6   8
ENDBRANCH   1   2
BRANCH   1  10
HETATM   10  C   UNL     1      40.530 -10.153   2.476  1.00  0.00     0.057 C 
BRANCH  10  11
HETATM   11  C   UNL     1      39.381 -11.109   2.790  1.00  0.00     0.237 C 
BRANCH  11  12
HETATM   12  N   UNL     1      38.095 -10.642   2.142  1.00  0.00    -0.071 N 
HETATM   13  H   UNL     1      37.352 -10.685   2.854  1.00  0.00     0.279 HD
HETATM   14  C   UNL     1      37.631 -11.448   0.943  1.00  0.00     0.235 C 
HETATM   15  C   UNL     1      37.560 -10.450  -0.198  1.00  0.00     0.029 C 
HETATM   16  C   UNL     1      37.277  -9.131   0.487  1.00  0.00     0.029 C 
HETATM   17  C   UNL     1      38.182  -9.190   1.698  1.00  0.00     0.235 C 
ENDBRANCH  11  12
ENDBRANCH  10  11
ENDBRANCH   1  10
BRANCH   1  18
HETATM   18  N   UNL     1      41.758 -12.209   1.824  1.00  0.00    -0.348 N 
HETATM   19  C   UNL     1      42.781 -12.667   2.624  1.00  0.00     0.252 C 
HETATM   20  O   UNL     1      43.521 -11.896   3.231  1.00  0.00    -0.268 OA
HETATM   21  H   UNL     1      41.125 -12.860   1.377  1.00  0.00     0.163 HD
BRANCH  19  22
HETATM   22  C   UNL     1      42.895 -14.139   2.813  1.00  0.00     0.032 A 
HETATM   23  C   UNL     1      42.902 -14.744   4.073  1.00  0.00     0.018 A 
HETATM   24  C   UNL     1      43.089 -16.128   4.185  1.00  0.00     0.013 A 
HETATM   25  C   UNL     1      43.264 -16.934   3.048  1.00  0.00    -0.026 A 
HETATM   26  C   UNL     1      43.208 -16.317   1.788  1.00  0.00     0.013 A 
HETATM   27  C   UNL     1      43.023 -14.937   1.670  1.00  0.00     0.018 A 
BRANCH  25  28
HETATM   28  C   UNL     1      43.515 -18.378   3.171  1.00  0.00    -0.023 A 
HETATM   29  C   UNL     1      43.294 -19.253   2.101  1.00  0.00     0.031 A 
HETATM   30  C   UNL     1      43.535 -20.606   2.278  1.00  0.00     0.117 A 
HETATM   31  N   UNL     1      43.973 -21.146   3.434  1.00  0.00    -0.273 NA
HETATM   32  C   UNL     1      44.184 -20.294   4.457  1.00  0.00     0.117 A 
HETATM   33  C   UNL     1      43.974 -18.927   4.375  1.00  0.00     0.031 A 
ENDBRANCH  25  28
ENDBRANCH  19  22
ENDBRANCH   1  18
TORSDOF 8
ENDMDL
MODEL 5
REMARK VINA RESULT:      -8.1      3.088      6.458
REMARK  8 active torsions:
REMARK  status: ('A' for Active; 'I' for Inactive)
REMARK    1  A    between atoms: O_2  and  C_3 
REMARK    2  A    between atoms: C_7  and  C_9 
REMARK    3  A    between atoms: C_9  and  C_10 
REMARK    4  A    between atoms: C_9  and  N_18 
REMARK    5  A    between atoms: C_10  and  C_11 
REMARK    6  A    between atoms: C_11  and  N_12 
REMARK       I    between atoms: N_18  and  C_19 
REMARK    7  A    between atoms: C_19  and  C_21 
REMARK    8  A    between atoms: C_24  and  C_27 
ROOT
HETATM    1  C   UNL     1      42.433 -11.208   6.343  1.00  0.00     0.119 C 
ENDROOT
BRANCH   1   2
HETATM    2  C   UNL     1      43.674 -10.796   7.120  1.00  0.00    -0.033 A 
HETATM    3  C   UNL     1      44.981 -11.097   6.707  1.00  0.00     0.009 A 
HETATM    4  C   UNL     1      46.075 -10.701   7.478  1.00  0.00     0.003 A 
HETATM    5  C   UNL     1      45.877 -10.022   8.678  1.00  0.00     0.037 A 
HETATM    6  C   UNL     1      44.589  -9.740   9.128  1.00  0.00     0.068 A 
HETATM    7  C   UNL     1      43.496 -10.118   8.346  1.00  0.00     0.046 A 
BRANCH   6   8
HETATM    8  O   UNL     1      44.531  -9.092  10.329  1.00  0.00    -0.356 OA
HETATM    9  C   UNL     1      43.260  -8.595  10.734  1.00  0.00     0.210 C 
ENDBRANCH   6   8
ENDBRANCH   1   2
BRANCH   1  10
HETATM   10  C   UNL     1      41.933 -10.164   5.316  1.00  0.00     0.057 C 
BRANCH  10  11
HETATM   11  C   UNL     1      42.398 -10.489   3.897  1.00  0.00     0.237 C 
BRANCH  11  12
HETATM   12  N   UNL     1      41.218 -10.775   2.993  1.00  0.00    -0.071 N 
HETATM   13  H   UNL     1      41.158 -10.011   2.305  1.00  0.00     0.279 HD
HETATM   14  C   UNL     1      39.870 -10.880   3.683  1.00  0.00     0.235 C 
HETATM   15  C   UNL     1      39.365 -12.272   3.350  1.00  0.00     0.029 C 
HETATM   16  C   UNL     1      40.007 -12.584   2.015  1.00  0.00     0.029 C 
HETATM   17  C   UNL     1      41.414 -12.056   2.198  1.00  0.00     0.235 C 
ENDBRANCH  11  12
ENDBRANCH  10  11
ENDBRANCH   1  10
BRANCH   1  18
HETATM   18  N   UNL     1      42.704 -12.490   5.706  1.00  0.00    -0.348 N 
HETATM   19  C   UNL     1      41.843 -13.560   5.814  1.00  0.00     0.252 C 
HETATM   20  O   UNL     1      40.744 -13.453   6.351  1.00  0.00    -0.268 OA
HETATM   21  H   UNL     1      43.582 -12.585   5.211  1.00  0.00     0.163 HD
BRANCH  19  22
HETATM   22  C   UNL     1      42.251 -14.834   5.159  1.00  0.00     0.032 A 
HETATM   23  C   UNL     1      41.627 -15.330   4.011  1.00  0.00     0.018 A 
HETATM   24  C   UNL     1      42.007 -16.573   3.489  1.00  0.00     0.013 A 
HETATM   25  C   UNL     1      43.019 -17.339   4.093  1.00  0.00    -0.026 A 
HETATM   26  C   UNL     1      43.666 -16.805   5.218  1.00  0.00     0.013 A 
HETATM   27  C   UNL     1      43.291 -15.566   5.744  1.00  0.00     0.018 A 
BRANCH  25  28
HETATM   28  C   UNL     1      43.377 -18.668   3.574  1.00  0.00    -0.023 A 
HETATM   29  C   UNL     1      43.184 -19.004   2.229  1.00  0.00     0.031 A 
HETATM   30  C   UNL     1      43.528 -20.275   1.797  1.00  0.00     0.117 A 
HETATM   31  N   UNL     1      44.042 -21.227   2.602  1.00  0.00    -0.273 NA
HETATM   32  C   UNL     1      44.225 -20.893   3.895  1.00  0.00     0.117 A 
HETATM   33  C   UNL     1      43.915 -19.648   4.418  1.00  0.00     0.031 A 
ENDBRANCH  25  28
ENDBRANCH  19  22
ENDBRANCH   1  18
TORSDOF 8
ENDMDL
MODEL 6
REMARK VINA RESULT:      -8.0      3.434      8.147
REMARK  8 active torsions:
REMARK  status: ('A' for Active; 'I' for Inactive)
REMARK    1  A    between atoms: O_2  and  C_3 
REMARK    2  A    between atoms: C_7  and  C_9 
REMARK    3  A    between atoms: C_9  and  C_10 
REMARK    4  A    between atoms: C_9  and  N_18 
REMARK    5  A    between atoms: C_10  and  C_11 
REMARK    6  A    between atoms: C_11  and  N_12 
REMARK       I    between atoms: N_18  and  C_19 
REMARK    7  A    between atoms: C_19  and  C_21 
REMARK    8  A    between atoms: C_24  and  C_27 
ROOT
HETATM    1  C   UNL     1      42.702 -14.163   2.778  1.00  0.00     0.119 C 
ENDROOT
BRANCH   1   2
HETATM    2  C   UNL     1      43.070 -15.609   3.075  1.00  0.00    -0.033 A 
HETATM    3  C   UNL     1      43.159 -16.603   2.089  1.00  0.00     0.009 A 
HETATM    4  C   UNL     1      43.487 -17.915   2.435  1.00  0.00     0.003 A 
HETATM    5  C   UNL     1      43.708 -18.254   3.769  1.00  0.00     0.037 A 
HETATM    6  C   UNL     1      43.594 -17.292   4.771  1.00  0.00     0.068 A 
HETATM    7  C   UNL     1      43.285 -15.976   4.421  1.00  0.00     0.046 A 
BRANCH   6   8
HETATM    8  O   UNL     1      43.811 -17.757   6.037  1.00  0.00    -0.356 OA
HETATM    9  C   UNL     1      44.162 -16.796   7.026  1.00  0.00     0.210 C 
ENDBRANCH   6   8
ENDBRANCH   1   2
BRANCH   1  10
HETATM   10  C   UNL     1      41.316 -13.967   2.119  1.00  0.00     0.057 C 
BRANCH  10  11
HETATM   11  C   UNL     1      40.177 -14.386   3.048  1.00  0.00     0.237 C 
BRANCH  11  12
HETATM   12  N   UNL     1      39.278 -13.210   3.366  1.00  0.00    -0.071 N 
HETATM   13  H   UNL     1      38.304 -13.545   3.345  1.00  0.00     0.279 HD
HETATM   14  C   UNL     1      39.377 -12.030   2.417  1.00  0.00     0.235 C 
HETATM   15  C   UNL     1      39.780 -10.856   3.290  1.00  0.00     0.029 C 
HETATM   16  C   UNL     1      39.212 -11.200   4.650  1.00  0.00     0.029 C 
HETATM   17  C   UNL     1      39.521 -12.677   4.769  1.00  0.00     0.235 C 
ENDBRANCH  11  12
ENDBRANCH  10  11
ENDBRANCH   1  10
BRANCH   1  18
HETATM   18  N   UNL     1      42.811 -13.405   4.017  1.00  0.00    -0.348 N 
HETATM   19  C   UNL     1      43.474 -12.200   4.085  1.00  0.00     0.252 C 
HETATM   20  O   UNL     1      43.903 -11.640   3.079  1.00  0.00    -0.268 OA
HETATM   21  H   UNL     1      42.417 -13.822   4.851  1.00  0.00     0.163 HD
BRANCH  19  22
HETATM   22  C   UNL     1      43.561 -11.542   5.419  1.00  0.00     0.032 A 
HETATM   23  C   UNL     1      44.513 -11.898   6.378  1.00  0.00     0.018 A 
HETATM   24  C   UNL     1      44.494 -11.293   7.642  1.00  0.00     0.013 A 
HETATM   25  C   UNL     1      43.535 -10.319   7.969  1.00  0.00    -0.026 A 
HETATM   26  C   UNL     1      42.616  -9.940   6.978  1.00  0.00     0.013 A 
HETATM   27  C   UNL     1      42.630 -10.541   5.716  1.00  0.00     0.018 A 
BRANCH  25  28
HETATM   28  C   UNL     1      43.483  -9.726   9.314  1.00  0.00    -0.023 A 
HETATM   29  C   UNL     1      43.628 -10.510  10.464  1.00  0.00     0.031 A 
HETATM   30  C   UNL     1      43.557  -9.901  11.707  1.00  0.00     0.117 A 
HETATM   31  N   UNL     1      43.353  -8.579  11.884  1.00  0.00    -0.273 NA
HETATM   32  C   UNL     1      43.217  -7.833  10.770  1.00  0.00     0.117 A 
HETATM   33  C   UNL     1      43.275  -8.352   9.487  1.00  0.00     0.031 A 
ENDBRANCH  25  28
ENDBRANCH  19  22
ENDBRANCH   1  18
TORSDOF 8
ENDMDL
MODEL 7
REMARK VINA RESULT:      -7.9      5.230      9.767
REMARK  8 active torsions:
REMARK  status: ('A' for Active; 'I' for Inactive)
REMARK    1  A    between atoms: O_2  and  C_3 
REMARK    2  A    between atoms: C_7  and  C_9 
REMARK    3  A    between atoms: C_9  and  C_10 
REMARK    4  A    between atoms: C_9  and  N_18 
REMARK    5  A    between atoms: C_10  and  C_11 
REMARK    6  A    between atoms: C_11  and  N_12 
REMARK       I    between atoms: N_18  and  C_19 
REMARK    7  A    between atoms: C_19  and  C_21 
REMARK    8  A    between atoms: C_24  and  C_27 
ROOT
HETATM    1  C   UNL     1      43.910 -12.429   5.995  1.00  0.00     0.119 C 
ENDROOT
BRANCH   1   2
HETATM    2  C   UNL     1      43.368 -13.843   6.148  1.00  0.00    -0.033 A 
HETATM    3  C   UNL     1      43.066 -14.425   7.388  1.00  0.00     0.009 A 
HETATM    4  C   UNL     1      42.587 -15.734   7.457  1.00  0.00     0.003 A 
HETATM    5  C   UNL     1      42.425 -16.483   6.293  1.00  0.00     0.037 A 
HETATM    6  C   UNL     1      42.750 -15.940   5.051  1.00  0.00     0.068 A 
HETATM    7  C   UNL     1      43.210 -14.623   4.983  1.00  0.00     0.046 A 
BRANCH   6   8
HETATM    8  O   UNL     1      42.570 -16.784   3.992  1.00  0.00    -0.356 OA
HETATM    9  C   UNL     1      43.465 -17.884   3.883  1.00  0.00     0.210 C 
ENDBRANCH   6   8
ENDBRANCH   1   2
BRANCH   1  10
HETATM   10  C   UNL     1      43.398 -11.669   4.748  1.00  0.00     0.057 C 
BRANCH  10  11
HETATM   11  C   UNL     1      42.393 -10.578   5.115  1.00  0.00     0.237 C 
BRANCH  11  12
HETATM   12  N   UNL     1      40.975 -11.036   4.851  1.00  0.00    -0.071 N 
HETATM   13  H   UNL     1      40.441 -10.224   4.511  1.00  0.00     0.279 HD
HETATM   14  C   UNL     1      40.233 -11.606   6.046  1.00  0.00     0.235 C 
HETATM   15  C   UNL     1      39.852 -13.017   5.637  1.00  0.00     0.029 C 
HETATM   16  C   UNL     1      39.729 -12.939   4.130  1.00  0.00     0.029 C 
HETATM   17  C   UNL     1      40.916 -12.082   3.748  1.00  0.00     0.235 C 
ENDBRANCH  11  12
ENDBRANCH  10  11
ENDBRANCH   1  10
BRANCH   1  18
HETATM   18  N   UNL     1      43.614 -11.697   7.219  1.00  0.00    -0.348 N 
HETATM   19  C   UNL     1      44.578 -10.986   7.901  1.00  0.00     0.252 C 
HETATM   20  O   UNL     1      45.709 -10.832   7.447  1.00  0.00    -0.268 OA
HETATM   21  H   UNL     1      42.673 -11.766   7.585  1.00  0.00     0.163 HD
BRANCH  19  22
HETATM   22  C   UNL     1      44.167 -10.319   9.167  1.00  0.00     0.032 A 
HETATM   23  C   UNL     1      45.073  -9.993  10.180  1.00  0.00     0.018 A 
HETATM   24  C   UNL     1      44.613  -9.435  11.379  1.00  0.00     0.013 A 
HETATM   25  C   UNL     1      43.246  -9.183  11.588  1.00  0.00    -0.026 A 
HETATM   26  C   UNL     1      42.356  -9.473  10.543  1.00  0.00     0.013 A 
HETATM   27  C   UNL     1      42.809 -10.031   9.344  1.00  0.00     0.018 A 
BRANCH  25  28
HETATM   28  C   UNL     1      42.759  -8.648  12.869  1.00  0.00    -0.023 A 
HETATM   29  C   UNL     1      41.687  -9.239  13.547  1.00  0.00     0.031 A 
HETATM   30  C   UNL     1      41.261  -8.685  14.744  1.00  0.00     0.117 A 
HETATM   31  N   UNL     1      41.820  -7.594  15.307  1.00  0.00    -0.273 NA
HETATM   32  C   UNL     1      42.853  -7.035  14.647  1.00  0.00     0.117 A 
HETATM   33  C   UNL     1      43.350  -7.518  13.447  1.00  0.00     0.031 A 
ENDBRANCH  25  28
ENDBRANCH  19  22
ENDBRANCH   1  18
TORSDOF 8
ENDMDL
MODEL 8
REMARK VINA RESULT:      -7.8      2.643      8.244
REMARK  8 active torsions:
REMARK  status: ('A' for Active; 'I' for Inactive)
REMARK    1  A    between atoms: O_2  and  C_3 
REMARK    2  A    between atoms: C_7  and  C_9 
REMARK    3  A    between atoms: C_9  and  C_10 
REMARK    4  A    between atoms: C_9  and  N_18 
REMARK    5  A    between atoms: C_10  and  C_11 
REMARK    6  A    between atoms: C_11  and  N_12 
REMARK       I    between atoms: N_18  and  C_19 
REMARK    7  A    between atoms: C_19  and  C_21 
REMARK    8  A    between atoms: C_24  and  C_27 
ROOT
HETATM    1  C   UNL     1      42.334 -15.462   4.360  1.00  0.00     0.119 C 
ENDROOT
BRANCH   1   2
HETATM    2  C   UNL     1      42.819 -16.781   3.778  1.00  0.00    -0.033 A 
HETATM    3  C   UNL     1      42.535 -17.201   2.470  1.00  0.00     0.009 A 
HETATM    4  C   UNL     1      43.000 -18.432   2.005  1.00  0.00     0.003 A 
HETATM    5  C   UNL     1      43.733 -19.267   2.846  1.00  0.00     0.037 A 
HETATM    6  C   UNL     1      44.001 -18.889   4.161  1.00  0.00     0.068 A 
HETATM    7  C   UNL     1      43.552 -17.648   4.617  1.00  0.00     0.046 A 
BRANCH   6   8
HETATM    8  O   UNL     1      44.707 -19.805   4.888  1.00  0.00    -0.356 OA
HETATM    9  C   UNL     1      43.992 -20.938   5.369  1.00  0.00     0.210 C 
ENDBRANCH   6   8
ENDBRANCH   1   2
BRANCH   1  10
HETATM   10  C   UNL     1      43.197 -14.906   5.518  1.00  0.00     0.057 C 
BRANCH  10  11
HETATM   11  C   UNL     1      42.349 -14.208   6.580  1.00  0.00     0.237 C 
BRANCH  11  12
HETATM   12  N   UNL     1      42.816 -12.784   6.795  1.00  0.00    -0.071 N 
HETATM   13  H   UNL     1      42.527 -12.499   7.742  1.00  0.00     0.279 HD
HETATM   14  C   UNL     1      42.269 -11.757   5.820  1.00  0.00     0.235 C 
HETATM   15  C   UNL     1      43.493 -11.149   5.161  1.00  0.00     0.029 C 
HETATM   16  C   UNL     1      44.577 -11.285   6.209  1.00  0.00     0.029 C 
HETATM   17  C   UNL     1      44.332 -12.675   6.755  1.00  0.00     0.235 C 
ENDBRANCH  11  12
ENDBRANCH  10  11
ENDBRANCH   1  10
BRANCH   1  18
HETATM   18  N   UNL     1      42.225 -14.501   3.271  1.00  0.00    -0.348 N 
HETATM   19  C   UNL     1      41.076 -13.776   3.042  1.00  0.00     0.252 C 
HETATM   20  O   UNL     1      40.124 -13.813   3.817  1.00  0.00    -0.268 OA
HETATM   21  H   UNL     1      43.020 -14.413   2.649  1.00  0.00     0.163 HD
BRANCH  19  22
HETATM   22  C   UNL     1      41.068 -12.859   1.869  1.00  0.00     0.032 A 
HETATM   23  C   UNL     1      40.801 -13.295   0.568  1.00  0.00     0.018 A 
HETATM   24  C   UNL     1      40.884 -12.396  -0.503  1.00  0.00     0.013 A 
HETATM   25  C   UNL     1      41.224 -11.048  -0.298  1.00  0.00    -0.026 A 
HETATM   26  C   UNL     1      41.444 -10.617   1.019  1.00  0.00     0.013 A 
HETATM   27  C   UNL     1      41.364 -11.510   2.092  1.00  0.00     0.018 A 
BRANCH  25  28
HETATM   28  C   UNL     1      41.364 -10.120  -1.431  1.00  0.00    -0.023 A 
HETATM   29  C   UNL     1      42.132  -8.954  -1.329  1.00  0.00     0.031 A 
HETATM   30  C   UNL     1      42.219  -8.108  -2.424  1.00  0.00     0.117 A 
HETATM   31  N   UNL     1      41.598  -8.337  -3.600  1.00  0.00    -0.273 NA
HETATM   32  C   UNL     1      40.862  -9.463  -3.686  1.00  0.00     0.117 A 
HETATM   33  C   UNL     1      40.719 -10.369  -2.649  1.00  0.00     0.031 A 
ENDBRANCH  25  28
ENDBRANCH  19  22
ENDBRANCH   1  18
TORSDOF 8
ENDMDL
MODEL 9
REMARK VINA RESULT:      -7.5      2.603      7.899
REMARK  8 active torsions:
REMARK  status: ('A' for Active; 'I' for Inactive)
REMARK    1  A    between atoms: O_2  and  C_3 
REMARK    2  A    between atoms: C_7  and  C_9 
REMARK    3  A    between atoms: C_9  and  C_10 
REMARK    4  A    between atoms: C_9  and  N_18 
REMARK    5  A    between atoms: C_10  and  C_11 
REMARK    6  A    between atoms: C_11  and  N_12 
REMARK       I    between atoms: N_18  and  C_19 
REMARK    7  A    between atoms: C_19  and  C_21 
REMARK    8  A    between atoms: C_24  and  C_27 
ROOT
HETATM    1  C   UNL     1      41.142 -15.483   4.623  1.00  0.00     0.119 C 
ENDROOT
BRANCH   1   2
HETATM    2  C   UNL     1      42.263 -16.497   4.450  1.00  0.00    -0.033 A 
HETATM    3  C   UNL     1      43.282 -16.693   5.393  1.00  0.00     0.009 A 
HETATM    4  C   UNL     1      44.289 -17.631   5.163  1.00  0.00     0.003 A 
HETATM    5  C   UNL     1      44.304 -18.367   3.979  1.00  0.00     0.037 A 
HETATM    6  C   UNL     1      43.322 -18.168   3.011  1.00  0.00     0.068 A 
HETATM    7  C   UNL     1      42.304 -17.244   3.252  1.00  0.00     0.046 A 
BRANCH   6   8
HETATM    8  O   UNL     1      43.462 -18.933   1.888  1.00  0.00    -0.356 OA
HETATM    9  C   UNL     1      43.241 -20.332   2.027  1.00  0.00     0.210 C 
ENDBRANCH   6   8
ENDBRANCH   1   2
BRANCH   1  10
HETATM   10  C   UNL     1      41.050 -14.850   6.032  1.00  0.00     0.057 C 
BRANCH  10  11
HETATM   11  C   UNL     1      40.743 -13.355   5.969  1.00  0.00     0.237 C 
BRANCH  11  12
HETATM   12  N   UNL     1      41.929 -12.538   6.435  1.00  0.00    -0.071 N 
HETATM   13  H   UNL     1      41.650 -12.040   7.292  1.00  0.00     0.279 HD
HETATM   14  C   UNL     1      42.444 -11.504   5.450  1.00  0.00     0.235 C 
HETATM   15  C   UNL     1      43.893 -11.882   5.204  1.00  0.00     0.029 C 
HETATM   16  C   UNL     1      44.314 -12.566   6.486  1.00  0.00     0.029 C 
HETATM   17  C   UNL     1      43.108 -13.420   6.813  1.00  0.00     0.235 C 
ENDBRANCH  11  12
ENDBRANCH  10  11
ENDBRANCH   1  10
BRANCH   1  18
HETATM   18  N   UNL     1      41.293 -14.463   3.593  1.00  0.00    -0.348 N 
HETATM   19  C   UNL     1      40.486 -14.421   2.478  1.00  0.00     0.252 C 
HETATM   20  O   UNL     1      39.519 -15.167   2.351  1.00  0.00    -0.268 OA
HETATM   21  H   UNL     1      42.052 -13.802   3.703  1.00  0.00     0.163 HD
BRANCH  19  22
HETATM   22  C   UNL     1      40.767 -13.361   1.470  1.00  0.00     0.032 A 
HETATM   23  C   UNL     1      41.291 -12.111   1.811  1.00  0.00     0.018 A 
HETATM   24  C   UNL     1      41.461 -11.130   0.826  1.00  0.00     0.013 A 
HETATM   25  C   UNL     1      41.122 -11.378  -0.516  1.00  0.00    -0.026 A 
HETATM   26  C   UNL     1      40.641 -12.654  -0.848  1.00  0.00     0.013 A 
HETATM   27  C   UNL     1      40.469 -13.637   0.131  1.00  0.00     0.018 A 
BRANCH  25  28
HETATM   28  C   UNL     1      41.250 -10.328  -1.538  1.00  0.00    -0.023 A 
HETATM   29  C   UNL     1      40.684 -10.474  -2.810  1.00  0.00     0.031 A 
HETATM   30  C   UNL     1      40.847  -9.458  -3.739  1.00  0.00     0.117 A 
HETATM   31  N   UNL     1      41.530  -8.321  -3.495  1.00  0.00    -0.273 NA
HETATM   32  C   UNL     1      42.069  -8.191  -2.267  1.00  0.00     0.117 A 
HETATM   33  C   UNL     1      41.958  -9.149  -1.273  1.00  0.00     0.031 A 
ENDBRANCH  25  28
ENDBRANCH  19  22
ENDBRANCH   1  18
TORSDOF 8
ENDMDL
MODEL 10
REMARK VINA RESULT:      -7.5      2.985      8.341
REMARK  8 active torsions:
REMARK  status: ('A' for Active; 'I' for Inactive)
REMARK    1  A    between atoms: O_2  and  C_3 
REMARK    2  A    between atoms: C_7  and  C_9 
REMARK    3  A    between atoms: C_9  and  C_10 
REMARK    4  A    between atoms: C_9  and  N_18 
REMARK    5  A    between atoms: C_10  and  C_11 
REMARK    6  A    between atoms: C_11  and  N_12 
REMARK       I    between atoms: N_18  and  C_19 
REMARK    7  A    between atoms: C_19  and  C_21 
REMARK    8  A    between atoms: C_24  and  C_27 
ROOT
HETATM    1  C   UNL     1      42.142 -15.508   2.561  1.00  0.00     0.119 C 
ENDROOT
BRANCH   1   2
HETATM    2  C   UNL     1      42.835 -16.755   3.090  1.00  0.00    -0.033 A 
HETATM    3  C   UNL     1      43.222 -17.830   2.276  1.00  0.00     0.009 A 
HETATM    4  C   UNL     1      43.840 -18.951   2.831  1.00  0.00     0.003 A 
HETATM    5  C   UNL     1      44.058 -19.023   4.205  1.00  0.00     0.037 A 
HETATM    6  C   UNL     1      43.653 -17.984   5.041  1.00  0.00     0.068 A 
HETATM    7  C   UNL     1      43.053 -16.854   4.482  1.00  0.00     0.046 A 
BRANCH   6   8
HETATM    8  O   UNL     1      43.902 -18.187   6.369  1.00  0.00    -0.356 OA
HETATM    9  C   UNL     1      43.538 -17.141   7.262  1.00  0.00     0.210 C 
ENDBRANCH   6   8
ENDBRANCH   1   2
BRANCH   1  10
HETATM   10  C   UNL     1      40.736 -15.750   1.963  1.00  0.00     0.057 C 
BRANCH  10  11
HETATM   11  C   UNL     1      39.717 -14.727   2.462  1.00  0.00     0.237 C 
BRANCH  11  12
HETATM   12  N   UNL     1      39.411 -13.701   1.393  1.00  0.00    -0.071 N 
HETATM   13  H   UNL     1      38.392 -13.695   1.246  1.00  0.00     0.279 HD
HETATM   14  C   UNL     1      40.068 -13.938   0.045  1.00  0.00     0.235 C 
HETATM   15  C   UNL     1      40.901 -12.695  -0.211  1.00  0.00     0.029 C 
HETATM   16  C   UNL     1      40.169 -11.605   0.542  1.00  0.00     0.029 C 
HETATM   17  C   UNL     1      39.791 -12.296   1.834  1.00  0.00     0.235 C 
ENDBRANCH  11  12
ENDBRANCH  10  11
ENDBRANCH   1  10
BRANCH   1  18
HETATM   18  N   UNL     1      42.098 -14.526   3.636  1.00  0.00    -0.348 N 
HETATM   19  C   UNL     1      42.866 -13.383   3.619  1.00  0.00     0.252 C 
HETATM   20  O   UNL     1      43.537 -13.071   2.638  1.00  0.00    -0.268 OA
HETATM   21  H   UNL     1      41.509 -14.736   4.432  1.00  0.00     0.163 HD
BRANCH  19  22
HETATM   22  C   UNL     1      42.772 -12.477   4.797  1.00  0.00     0.032 A 
HETATM   23  C   UNL     1      41.745 -11.542   4.954  1.00  0.00     0.018 A 
HETATM   24  C   UNL     1      41.756 -10.667   6.048  1.00  0.00     0.013 A 
HETATM   25  C   UNL     1      42.781 -10.713   7.008  1.00  0.00    -0.026 A 
HETATM   26  C   UNL     1      43.779 -11.689   6.860  1.00  0.00     0.013 A 
HETATM   27  C   UNL     1      43.774 -12.564   5.770  1.00  0.00     0.018 A 
BRANCH  25  28
HETATM   28  C   UNL     1      42.819  -9.757   8.125  1.00  0.00    -0.023 A 
HETATM   29  C   UNL     1      41.680  -9.044   8.516  1.00  0.00     0.031 A 
HETATM   30  C   UNL     1      41.776  -8.146   9.567  1.00  0.00     0.117 A 
HETATM   31  N   UNL     1      42.915  -7.908  10.249  1.00  0.00    -0.273 NA
HETATM   32  C   UNL     1      44.006  -8.601   9.865  1.00  0.00     0.117 A 
HETATM   33  C   UNL     1      44.006  -9.521   8.829  1.00  0.00     0.031 A 
ENDBRANCH  25  28
ENDBRANCH  19  22
ENDBRANCH   1  18
TORSDOF 8
ENDMDL
