MODEL 1
REMARK VINA RESULT:      -9.0      0.000      0.000
REMARK  6 active torsions:
REMARK  status: ('A' for Active; 'I' for Inactive)
REMARK    1  A    between atoms: C_2  and  C_3 
REMARK    2  A    between atoms: C_4  and  O_5 
REMARK    3  A    between atoms: O_5  and  C_6 
REMARK    4  A    between atoms: C_6  and  C_7 
REMARK       I    between atoms: C_7  and  N_8 
REMARK    5  A    between atoms: N_8  and  C_9 
REMARK    6  A    between atoms: C_16  and  C_17 
REMARK       I    between atoms: C_17  and  N_18 
ROOT
HETATM    1  C   UNL     1      41.847 -14.963   1.986  1.00  0.00     0.246 C 
HETATM    2  N   UNL     1      41.843 -14.031   0.957  1.00  0.00    -0.325 N 
HETATM    3  O   UNL     1      40.870 -15.524   2.471  1.00  0.00    -0.271 OA
HETATM    4  H   UNL     1      42.753 -13.731   0.627  1.00  0.00     0.169 HD
ENDROOT
BRANCH   2   5
HETATM    5  C   UNL     1      40.728 -13.490   0.287  1.00  0.00     0.035 A 
HETATM    6  C   UNL     1      40.132 -14.080  -0.835  1.00  0.00     0.046 A 
HETATM    7  C   UNL     1      38.998 -13.469  -1.421  1.00  0.00     0.030 A 
HETATM    8  C   UNL     1      38.522 -12.281  -0.881  1.00  0.00     0.063 A 
HETATM    9  C   UNL     1      38.107 -13.765  -2.499  1.00  0.00     0.156 A 
HETATM   10  N   UNL     1      37.451 -11.933  -1.654  1.00  0.00    -0.277 N 
HETATM   11  C   UNL     1      39.097 -11.663   0.231  1.00  0.00     0.034 A 
HETATM   12  H   UNL     1      36.864 -11.111  -1.556  1.00  0.00     0.189 HD
HETATM   13  N   UNL     1      37.163 -12.805  -2.632  1.00  0.00    -0.168 NA
HETATM   14  C   UNL     1      40.199 -12.301   0.811  1.00  0.00     0.032 A 
BRANCH   9  15
HETATM   15  C   UNL     1      38.125 -14.937  -3.385  1.00  0.00     0.270 C 
HETATM   16  N   UNL     1      38.257 -16.130  -2.725  1.00  0.00    -0.365 N 
HETATM   17  H   UNL     1      38.354 -16.117  -1.717  1.00  0.00     0.159 HD
HETATM   18  H   UNL     1      38.323 -16.986  -3.253  1.00  0.00     0.159 HD
HETATM   19  O   UNL     1      38.048 -14.894  -4.607  1.00  0.00    -0.266 OA
ENDBRANCH   9  15
ENDBRANCH   2   5
BRANCH   1  20
HETATM   20  C   UNL     1      43.268 -15.300   2.450  1.00  0.00     0.278 C 
BRANCH  20  21
HETATM   21  O   UNL     1      43.283 -16.043   3.657  1.00  0.00    -0.342 OA
BRANCH  21  22
HETATM   22  C   UNL     1      43.440 -17.404   3.614  1.00  0.00     0.076 A 
HETATM   23  C   UNL     1      43.629 -18.066   4.856  1.00  0.00    -0.017 A 
HETATM   24  C   UNL     1      43.913 -19.451   4.812  1.00  0.00     0.011 A 
HETATM   25  C   UNL     1      43.962 -20.160   3.611  1.00  0.00     0.001 A 
HETATM   26  C   UNL     1      43.717 -19.507   2.416  1.00  0.00     0.003 A 
HETATM   27  C   UNL     1      43.454 -18.138   2.417  1.00  0.00     0.037 A 
BRANCH  23  28
HETATM   28  C   UNL     1      43.547 -17.333   6.220  1.00  0.00    -0.021 C 
HETATM   29  C   UNL     1      44.718 -16.339   6.414  1.00  0.00     0.019 C 
HETATM   30  C   UNL     1      43.553 -18.374   7.357  1.00  0.00     0.019 C 
HETATM   31  C   UNL     1      42.257 -16.485   6.385  1.00  0.00     0.019 C 
ENDBRANCH  23  28
ENDBRANCH  21  22
ENDBRANCH  20  21
ENDBRANCH   1  20
TORSDOF 6
ENDMDL
MODEL 2
REMARK VINA RESULT:      -8.8      5.562      8.950
REMARK  6 active torsions:
REMARK  status: ('A' for Active; 'I' for Inactive)
REMARK    1  A    between atoms: C_2  and  C_3 
REMARK    2  A    between atoms: C_4  and  O_5 
REMARK    3  A    between atoms: O_5  and  C_6 
REMARK    4  A    between atoms: C_6  and  C_7 
REMARK       I    between atoms: C_7  and  N_8 
REMARK    5  A    between atoms: N_8  and  C_9 
REMARK    6  A    between atoms: C_16  and  C_17 
REMARK       I    between atoms: C_17  and  N_18 
ROOT
HETATM    1  C   UNL     1      41.500 -13.097   6.045  1.00  0.00     0.246 C 
HETATM    2  N   UNL     1      42.597 -13.117   6.895  1.00  0.00    -0.325 N 
HETATM    3  O   UNL     1      41.213 -12.218   5.239  1.00  0.00    -0.271 OA
HETATM    4  H   UNL     1      42.723 -13.963   7.438  1.00  0.00     0.169 HD
ENDROOT
BRANCH   2   5
HETATM    5  C   UNL     1      43.581 -12.122   7.059  1.00  0.00     0.035 A 
HETATM    6  C   UNL     1      43.364 -10.916   7.739  1.00  0.00     0.046 A 
HETATM    7  C   UNL     1      44.427  -9.992   7.870  1.00  0.00     0.030 A 
HETATM    8  C   UNL     1      45.655 -10.295   7.293  1.00  0.00     0.063 A 
HETATM    9  C   UNL     1      44.622  -8.725   8.502  1.00  0.00     0.156 A 
HETATM   10  N   UNL     1      46.460  -9.227   7.568  1.00  0.00    -0.277 N 
HETATM   11  C   UNL     1      45.901 -11.483   6.603  1.00  0.00     0.034 A 
HETATM   12  H   UNL     1      47.427  -9.099   7.291  1.00  0.00     0.189 HD
HETATM   13  N   UNL     1      45.878  -8.265   8.303  1.00  0.00    -0.168 NA
HETATM   14  C   UNL     1      44.843 -12.394   6.512  1.00  0.00     0.032 A 
BRANCH   9  15
HETATM   15  C   UNL     1      43.653  -7.959   9.299  1.00  0.00     0.270 C 
HETATM   16  N   UNL     1      43.435  -8.471  10.550  1.00  0.00    -0.365 N 
HETATM   17  H   UNL     1      43.919  -9.319  10.817  1.00  0.00     0.159 HD
HETATM   18  H   UNL     1      42.754  -8.038  11.153  1.00  0.00     0.159 HD
HETATM   19  O   UNL     1      43.061  -6.959   8.911  1.00  0.00    -0.266 OA
ENDBRANCH   9  15
ENDBRANCH   2   5
BRANCH   1  20
HETATM   20  C   UNL     1      40.661 -14.374   6.160  1.00  0.00     0.278 C 
BRANCH  20  21
HETATM   21  O   UNL     1      40.909 -15.283   5.101  1.00  0.00    -0.342 OA
BRANCH  21  22
HETATM   22  C   UNL     1      41.954 -16.166   5.195  1.00  0.00     0.076 A 
HETATM   23  C   UNL     1      42.647 -16.467   3.993  1.00  0.00    -0.017 A 
HETATM   24  C   UNL     1      43.645 -17.467   4.057  1.00  0.00     0.011 A 
HETATM   25  C   UNL     1      43.979 -18.106   5.252  1.00  0.00     0.001 A 
HETATM   26  C   UNL     1      43.331 -17.756   6.423  1.00  0.00     0.003 A 
HETATM   27  C   UNL     1      42.327 -16.790   6.396  1.00  0.00     0.037 A 
BRANCH  23  28
HETATM   28  C   UNL     1      42.342 -15.760   2.647  1.00  0.00    -0.021 C 
HETATM   29  C   UNL     1      40.875 -15.972   2.201  1.00  0.00     0.019 C 
HETATM   30  C   UNL     1      43.299 -16.295   1.564  1.00  0.00     0.019 C 
HETATM   31  C   UNL     1      42.535 -14.220   2.705  1.00  0.00     0.019 C 
ENDBRANCH  23  28
ENDBRANCH  21  22
ENDBRANCH  20  21
ENDBRANCH   1  20
TORSDOF 6
ENDMDL
MODEL 3
REMARK VINA RESULT:      -8.6      1.742      3.050
REMARK  6 active torsions:
REMARK  status: ('A' for Active; 'I' for Inactive)
REMARK    1  A    between atoms: C_2  and  C_3 
REMARK    2  A    between atoms: C_4  and  O_5 
REMARK    3  A    between atoms: O_5  and  C_6 
REMARK    4  A    between atoms: C_6  and  C_7 
REMARK       I    between atoms: C_7  and  N_8 
REMARK    5  A    between atoms: N_8  and  C_9 
REMARK    6  A    between atoms: C_16  and  C_17 
REMARK       I    between atoms: C_17  and  N_18 
ROOT
HETATM    1  C   UNL     1      41.993 -12.197   2.775  1.00  0.00     0.246 C 
HETATM    2  N   UNL     1      40.757 -12.770   2.510  1.00  0.00    -0.325 N 
HETATM    3  O   UNL     1      42.508 -11.256   2.180  1.00  0.00    -0.271 OA
HETATM    4  H   UNL     1      40.453 -13.489   3.156  1.00  0.00     0.169 HD
ENDROOT
BRANCH   2   5
HETATM    5  C   UNL     1      39.855 -12.439   1.478  1.00  0.00     0.035 A 
HETATM    6  C   UNL     1      39.829 -13.079   0.232  1.00  0.00     0.046 A 
HETATM    7  C   UNL     1      38.867 -12.690  -0.729  1.00  0.00     0.030 A 
HETATM    8  C   UNL     1      37.988 -11.659  -0.418  1.00  0.00     0.063 A 
HETATM    9  C   UNL     1      38.493 -13.106  -2.043  1.00  0.00     0.156 A 
HETATM   10  N   UNL     1      37.204 -11.502  -1.525  1.00  0.00    -0.277 N 
HETATM   11  C   UNL     1      37.992 -10.996   0.811  1.00  0.00     0.034 A 
HETATM   12  H   UNL     1      36.457 -10.829  -1.659  1.00  0.00     0.189 HD
HETATM   13  N   UNL     1      37.470 -12.361  -2.522  1.00  0.00    -0.168 NA
HETATM   14  C   UNL     1      38.934 -11.419   1.755  1.00  0.00     0.032 A 
BRANCH   9  15
HETATM   15  C   UNL     1      39.070 -14.199  -2.839  1.00  0.00     0.270 C 
HETATM   16  N   UNL     1      38.246 -15.283  -2.975  1.00  0.00    -0.365 N 
HETATM   17  H   UNL     1      37.343 -15.265  -2.515  1.00  0.00     0.159 HD
HETATM   18  H   UNL     1      38.573 -16.099  -3.468  1.00  0.00     0.159 HD
HETATM   19  O   UNL     1      40.189 -14.186  -3.339  1.00  0.00    -0.266 OA
ENDBRANCH   9  15
ENDBRANCH   2   5
BRANCH   1  20
HETATM   20  C   UNL     1      42.673 -12.837   3.990  1.00  0.00     0.278 C 
BRANCH  20  21
HETATM   21  O   UNL     1      42.182 -14.139   4.263  1.00  0.00    -0.342 OA
BRANCH  21  22
HETATM   22  C   UNL     1      43.000 -15.060   4.864  1.00  0.00     0.076 A 
HETATM   23  C   UNL     1      43.224 -16.273   4.160  1.00  0.00    -0.017 A 
HETATM   24  C   UNL     1      43.966 -17.277   4.824  1.00  0.00     0.011 A 
HETATM   25  C   UNL     1      44.501 -17.084   6.098  1.00  0.00     0.001 A 
HETATM   26  C   UNL     1      44.320 -15.873   6.743  1.00  0.00     0.003 A 
HETATM   27  C   UNL     1      43.577 -14.866   6.129  1.00  0.00     0.037 A 
BRANCH  23  28
HETATM   28  C   UNL     1      42.685 -16.525   2.728  1.00  0.00    -0.021 C 
HETATM   29  C   UNL     1      41.160 -16.280   2.632  1.00  0.00     0.019 C 
HETATM   30  C   UNL     1      43.009 -17.973   2.310  1.00  0.00     0.019 C 
HETATM   31  C   UNL     1      43.318 -15.591   1.660  1.00  0.00     0.019 C 
ENDBRANCH  23  28
ENDBRANCH  21  22
ENDBRANCH  20  21
ENDBRANCH   1  20
TORSDOF 6
ENDMDL
MODEL 4
REMARK VINA RESULT:      -8.6      5.598      8.810
REMARK  6 active torsions:
REMARK  status: ('A' for Active; 'I' for Inactive)
REMARK    1  A    between atoms: C_2  and  C_3 
REMARK    2  A    between atoms: C_4  and  O_5 
REMARK    3  A    between atoms: O_5  and  C_6 
REMARK    4  A    between atoms: C_6  and  C_7 
REMARK       I    between atoms: C_7  and  N_8 
REMARK    5  A    between atoms: N_8  and  C_9 
REMARK    6  A    between atoms: C_16  and  C_17 
REMARK       I    between atoms: C_17  and  N_18 
ROOT
HETATM    1  C   UNL     1      43.525 -12.217   4.248  1.00  0.00     0.246 C 
HETATM    2  N   UNL     1      43.703 -12.543   5.586  1.00  0.00    -0.325 N 
HETATM    3  O   UNL     1      43.829 -11.160   3.704  1.00  0.00    -0.271 OA
HETATM    4  H   UNL     1      43.468 -13.493   5.847  1.00  0.00     0.169 HD
ENDROOT
BRANCH   2   5
HETATM    5  C   UNL     1      44.217 -11.725   6.613  1.00  0.00     0.035 A 
HETATM    6  C   UNL     1      43.428 -11.149   7.617  1.00  0.00     0.046 A 
HETATM    7  C   UNL     1      44.044 -10.364   8.619  1.00  0.00     0.030 A 
HETATM    8  C   UNL     1      45.418 -10.161   8.563  1.00  0.00     0.063 A 
HETATM    9  C   UNL     1      43.620  -9.670   9.794  1.00  0.00     0.156 A 
HETATM   10  N   UNL     1      45.713  -9.366   9.633  1.00  0.00    -0.277 N 
HETATM   11  C   UNL     1      46.231 -10.715   7.572  1.00  0.00     0.034 A 
HETATM   12  H   UNL     1      46.625  -9.008   9.900  1.00  0.00     0.189 HD
HETATM   13  N   UNL     1      44.660  -9.056  10.405  1.00  0.00    -0.168 NA
HETATM   14  C   UNL     1      45.603 -11.511   6.609  1.00  0.00     0.032 A 
BRANCH   9  15
HETATM   15  C   UNL     1      42.263  -9.594  10.353  1.00  0.00     0.270 C 
HETATM   16  N   UNL     1      42.097 -10.306  11.511  1.00  0.00    -0.365 N 
HETATM   17  H   UNL     1      42.884 -10.832  11.871  1.00  0.00     0.159 HD
HETATM   18  H   UNL     1      41.189 -10.348  11.944  1.00  0.00     0.159 HD
HETATM   19  O   UNL     1      41.332  -8.975   9.851  1.00  0.00    -0.266 OA
ENDBRANCH   9  15
ENDBRANCH   2   5
BRANCH   1  20
HETATM   20  C   UNL     1      42.938 -13.383   3.447  1.00  0.00     0.278 C 
BRANCH  20  21
HETATM   21  O   UNL     1      42.751 -14.545   4.238  1.00  0.00    -0.342 OA
BRANCH  21  22
HETATM   22  C   UNL     1      42.974 -15.782   3.690  1.00  0.00     0.076 A 
HETATM   23  C   UNL     1      43.292 -16.833   4.591  1.00  0.00    -0.017 A 
HETATM   24  C   UNL     1      43.642 -18.082   4.027  1.00  0.00     0.011 A 
HETATM   25  C   UNL     1      43.635 -18.301   2.649  1.00  0.00     0.001 A 
HETATM   26  C   UNL     1      43.265 -17.280   1.791  1.00  0.00     0.003 A 
HETATM   27  C   UNL     1      42.933 -16.029   2.309  1.00  0.00     0.037 A 
BRANCH  23  28
HETATM   28  C   UNL     1      43.279 -16.653   6.131  1.00  0.00    -0.021 C 
HETATM   29  C   UNL     1      41.967 -15.995   6.625  1.00  0.00     0.019 C 
HETATM   30  C   UNL     1      44.485 -15.792   6.553  1.00  0.00     0.019 C 
HETATM   31  C   UNL     1      43.382 -17.994   6.906  1.00  0.00     0.019 C 
ENDBRANCH  23  28
ENDBRANCH  21  22
ENDBRANCH  20  21
ENDBRANCH   1  20
TORSDOF 6
ENDMDL
MODEL 5
REMARK VINA RESULT:      -8.5      5.523      8.855
REMARK  6 active torsions:
REMARK  status: ('A' for Active; 'I' for Inactive)
REMARK    1  A    between atoms: C_2  and  C_3 
REMARK    2  A    between atoms: C_4  and  O_5 
REMARK    3  A    between atoms: O_5  and  C_6 
REMARK    4  A    between atoms: C_6  and  C_7 
REMARK       I    between atoms: C_7  and  N_8 
REMARK    5  A    between atoms: N_8  and  C_9 
REMARK    6  A    between atoms: C_16  and  C_17 
REMARK       I    between atoms: C_17  and  N_18 
ROOT
HETATM    1  C   UNL     1      41.569 -13.232   6.109  1.00  0.00     0.246 C 
HETATM    2  N   UNL     1      42.649 -13.198   6.981  1.00  0.00    -0.325 N 
HETATM    3  O   UNL     1      41.294 -12.401   5.250  1.00  0.00    -0.271 OA
HETATM    4  H   UNL     1      42.767 -14.012   7.573  1.00  0.00     0.169 HD
ENDROOT
BRANCH   2   5
HETATM    5  C   UNL     1      43.625 -12.190   7.108  1.00  0.00     0.035 A 
HETATM    6  C   UNL     1      43.433 -11.007   7.833  1.00  0.00     0.046 A 
HETATM    7  C   UNL     1      44.486 -10.067   7.921  1.00  0.00     0.030 A 
HETATM    8  C   UNL     1      45.679 -10.332   7.259  1.00  0.00     0.063 A 
HETATM    9  C   UNL     1      44.701  -8.814   8.574  1.00  0.00     0.156 A 
HETATM   10  N   UNL     1      46.482  -9.257   7.511  1.00  0.00    -0.277 N 
HETATM   11  C   UNL     1      45.900 -11.497   6.522  1.00  0.00     0.034 A 
HETATM   12  H   UNL     1      47.427  -9.104   7.175  1.00  0.00     0.189 HD
HETATM   13  N   UNL     1      45.934  -8.326   8.307  1.00  0.00    -0.168 NA
HETATM   14  C   UNL     1      44.853 -12.424   6.474  1.00  0.00     0.032 A 
BRANCH   9  15
HETATM   15  C   UNL     1      43.773  -8.087   9.453  1.00  0.00     0.270 C 
HETATM   16  N   UNL     1      43.313  -6.911   8.924  1.00  0.00    -0.365 N 
HETATM   17  H   UNL     1      43.651  -6.626   8.013  1.00  0.00     0.159 HD
HETATM   18  H   UNL     1      42.706  -6.322   9.472  1.00  0.00     0.159 HD
HETATM   19  O   UNL     1      43.429  -8.457  10.569  1.00  0.00    -0.266 OA
ENDBRANCH   9  15
ENDBRANCH   2   5
BRANCH   1  20
HETATM   20  C   UNL     1      40.734 -14.505   6.279  1.00  0.00     0.278 C 
BRANCH  20  21
HETATM   21  O   UNL     1      41.464 -15.679   5.963  1.00  0.00    -0.342 OA
BRANCH  21  22
HETATM   22  C   UNL     1      41.567 -16.083   4.657  1.00  0.00     0.076 A 
HETATM   23  C   UNL     1      42.699 -16.870   4.318  1.00  0.00    -0.017 A 
HETATM   24  C   UNL     1      42.878 -17.189   2.951  1.00  0.00     0.011 A 
HETATM   25  C   UNL     1      41.964 -16.794   1.973  1.00  0.00     0.001 A 
HETATM   26  C   UNL     1      40.836 -16.078   2.333  1.00  0.00     0.003 A 
HETATM   27  C   UNL     1      40.637 -15.727   3.667  1.00  0.00     0.037 A 
BRANCH  23  28
HETATM   28  C   UNL     1      43.723 -17.366   5.370  1.00  0.00    -0.021 C 
HETATM   29  C   UNL     1      43.034 -18.085   6.555  1.00  0.00     0.019 C 
HETATM   30  C   UNL     1      44.539 -16.167   5.891  1.00  0.00     0.019 C 
HETATM   31  C   UNL     1      44.739 -18.395   4.802  1.00  0.00     0.019 C 
ENDBRANCH  23  28
ENDBRANCH  21  22
ENDBRANCH  20  21
ENDBRANCH   1  20
TORSDOF 6
ENDMDL
MODEL 6
REMARK VINA RESULT:      -8.4      1.879      2.837
REMARK  6 active torsions:
REMARK  status: ('A' for Active; 'I' for Inactive)
REMARK    1  A    between atoms: C_2  and  C_3 
REMARK    2  A    between atoms: C_4  and  O_5 
REMARK    3  A    between atoms: O_5  and  C_6 
REMARK    4  A    between atoms: C_6  and  C_7 
REMARK       I    between atoms: C_7  and  N_8 
REMARK    5  A    between atoms: N_8  and  C_9 
REMARK    6  A    between atoms: C_16  and  C_17 
REMARK       I    between atoms: C_17  and  N_18 
ROOT
HETATM    1  C   UNL     1      40.743 -15.147   1.031  1.00  0.00     0.246 C 
HETATM    2  N   UNL     1      40.803 -14.334  -0.092  1.00  0.00    -0.325 N 
HETATM    3  O   UNL     1      39.749 -15.714   1.473  1.00  0.00    -0.271 OA
HETATM    4  H   UNL     1      41.726 -14.014  -0.360  1.00  0.00     0.169 HD
ENDROOT
BRANCH   2   5
HETATM    5  C   UNL     1      39.741 -13.939  -0.931  1.00  0.00     0.035 A 
HETATM    6  C   UNL     1      39.044 -12.732  -0.789  1.00  0.00     0.046 A 
HETATM    7  C   UNL     1      38.009 -12.416  -1.699  1.00  0.00     0.030 A 
HETATM    8  C   UNL     1      37.691 -13.330  -2.697  1.00  0.00     0.063 A 
HETATM    9  C   UNL     1      37.127 -11.313  -1.918  1.00  0.00     0.156 A 
HETATM   10  N   UNL     1      36.663 -12.764  -3.395  1.00  0.00    -0.277 N 
HETATM   11  C   UNL     1      38.360 -14.544  -2.861  1.00  0.00     0.034 A 
HETATM   12  H   UNL     1      36.170 -13.158  -4.190  1.00  0.00     0.189 HD
HETATM   13  N   UNL     1      36.300 -11.546  -2.964  1.00  0.00    -0.168 NA
HETATM   14  C   UNL     1      39.400 -14.821  -1.966  1.00  0.00     0.032 A 
BRANCH   9  15
HETATM   15  C   UNL     1      37.066 -10.048  -1.172  1.00  0.00     0.270 C 
HETATM   16  N   UNL     1      37.981  -9.116  -1.583  1.00  0.00    -0.365 N 
HETATM   17  H   UNL     1      38.624  -9.364  -2.325  1.00  0.00     0.159 HD
HETATM   18  H   UNL     1      38.043  -8.234  -1.101  1.00  0.00     0.159 HD
HETATM   19  O   UNL     1      36.293  -9.815  -0.250  1.00  0.00    -0.266 OA
ENDBRANCH   9  15
ENDBRANCH   2   5
BRANCH   1  20
HETATM   20  C   UNL     1      42.120 -15.341   1.673  1.00  0.00     0.278 C 
BRANCH  20  21
HETATM   21  O   UNL     1      42.036 -15.848   2.995  1.00  0.00    -0.342 OA
BRANCH  21  22
HETATM   22  C   UNL     1      42.694 -17.006   3.321  1.00  0.00     0.076 A 
HETATM   23  C   UNL     1      43.015 -17.194   4.691  1.00  0.00    -0.017 A 
HETATM   24  C   UNL     1      43.800 -18.324   5.020  1.00  0.00     0.011 A 
HETATM   25  C   UNL     1      44.210 -19.248   4.058  1.00  0.00     0.001 A 
HETATM   26  C   UNL     1      43.836 -19.077   2.737  1.00  0.00     0.003 A 
HETATM   27  C   UNL     1      43.081 -17.964   2.370  1.00  0.00     0.037 A 
BRANCH  23  28
HETATM   28  C   UNL     1      42.554 -16.219   5.804  1.00  0.00    -0.021 C 
HETATM   29  C   UNL     1      43.051 -14.775   5.552  1.00  0.00     0.019 C 
HETATM   30  C   UNL     1      43.074 -16.719   7.166  1.00  0.00     0.019 C 
HETATM   31  C   UNL     1      41.009 -16.107   5.921  1.00  0.00     0.019 C 
ENDBRANCH  23  28
ENDBRANCH  21  22
ENDBRANCH  20  21
ENDBRANCH   1  20
TORSDOF 6
ENDMDL
MODEL 7
REMARK VINA RESULT:      -8.3      2.650      3.561
REMARK  6 active torsions:
REMARK  status: ('A' for Active; 'I' for Inactive)
REMARK    1  A    between atoms: C_2  and  C_3 
REMARK    2  A    between atoms: C_4  and  O_5 
REMARK    3  A    between atoms: O_5  and  C_6 
REMARK    4  A    between atoms: C_6  and  C_7 
REMARK       I    between atoms: C_7  and  N_8 
REMARK    5  A    between atoms: N_8  and  C_9 
REMARK    6  A    between atoms: C_16  and  C_17 
REMARK       I    between atoms: C_17  and  N_18 
ROOT
HETATM    1  C   UNL     1      40.051 -14.594   1.881  1.00  0.00     0.246 C 
HETATM    2  N   UNL     1      40.561 -14.613   0.590  1.00  0.00    -0.325 N 
HETATM    3  O   UNL     1      39.349 -13.719   2.379  1.00  0.00    -0.271 OA
HETATM    4  H   UNL     1      41.055 -15.455   0.321  1.00  0.00     0.169 HD
ENDROOT
BRANCH   2   5
HETATM    5  C   UNL     1      40.434 -13.621  -0.404  1.00  0.00     0.035 A 
HETATM    6  C   UNL     1      40.979 -12.335  -0.294  1.00  0.00     0.046 A 
HETATM    7  C   UNL     1      40.817 -11.419  -1.360  1.00  0.00     0.030 A 
HETATM    8  C   UNL     1      40.095 -11.814  -2.480  1.00  0.00     0.063 A 
HETATM    9  C   UNL     1      41.241 -10.086  -1.649  1.00  0.00     0.156 A 
HETATM   10  N   UNL     1      40.097 -10.733  -3.314  1.00  0.00    -0.277 N 
HETATM   11  C   UNL     1      39.534 -13.085  -2.617  1.00  0.00     0.034 A 
HETATM   12  H   UNL     1      39.654 -10.658  -4.224  1.00  0.00     0.189 HD
HETATM   13  N   UNL     1      40.785  -9.676  -2.855  1.00  0.00    -0.168 NA
HETATM   14  C   UNL     1      39.732 -13.983  -1.562  1.00  0.00     0.032 A 
BRANCH   9  15
HETATM   15  C   UNL     1      42.077  -9.208  -0.818  1.00  0.00     0.270 C 
HETATM   16  N   UNL     1      41.506  -8.865   0.378  1.00  0.00    -0.365 N 
HETATM   17  H   UNL     1      40.576  -9.207   0.585  1.00  0.00     0.159 HD
HETATM   18  H   UNL     1      41.987  -8.231   0.996  1.00  0.00     0.159 HD
HETATM   19  O   UNL     1      43.183  -8.786  -1.137  1.00  0.00    -0.266 OA
ENDBRANCH   9  15
ENDBRANCH   2   5
BRANCH   1  20
HETATM   20  C   UNL     1      40.407 -15.866   2.658  1.00  0.00     0.278 C 
BRANCH  20  21
HETATM   21  O   UNL     1      41.713 -15.818   3.207  1.00  0.00    -0.342 OA
BRANCH  21  22
HETATM   22  C   UNL     1      42.459 -16.966   3.284  1.00  0.00     0.076 A 
HETATM   23  C   UNL     1      43.250 -17.136   4.451  1.00  0.00    -0.017 A 
HETATM   24  C   UNL     1      44.114 -18.255   4.487  1.00  0.00     0.011 A 
HETATM   25  C   UNL     1      44.165 -19.186   3.448  1.00  0.00     0.001 A 
HETATM   26  C   UNL     1      43.342 -19.033   2.346  1.00  0.00     0.003 A 
HETATM   27  C   UNL     1      42.492 -17.931   2.266  1.00  0.00     0.037 A 
BRANCH  23  28
HETATM   28  C   UNL     1      43.204 -16.153   5.649  1.00  0.00    -0.021 C 
HETATM   29  C   UNL     1      44.408 -16.346   6.603  1.00  0.00     0.019 C 
HETATM   30  C   UNL     1      41.887 -16.356   6.424  1.00  0.00     0.019 C 
HETATM   31  C   UNL     1      43.256 -14.661   5.221  1.00  0.00     0.019 C 
ENDBRANCH  23  28
ENDBRANCH  21  22
ENDBRANCH  20  21
ENDBRANCH   1  20
TORSDOF 6
ENDMDL
MODEL 8
REMARK VINA RESULT:      -8.2      4.927      7.635
REMARK  6 active torsions:
REMARK  status: ('A' for Active; 'I' for Inactive)
REMARK    1  A    between atoms: C_2  and  C_3 
REMARK    2  A    between atoms: C_4  and  O_5 
REMARK    3  A    between atoms: O_5  and  C_6 
REMARK    4  A    between atoms: C_6  and  C_7 
REMARK       I    between atoms: C_7  and  N_8 
REMARK    5  A    between atoms: N_8  and  C_9 
REMARK    6  A    between atoms: C_16  and  C_17 
REMARK       I    between atoms: C_17  and  N_18 
ROOT
HETATM    1  C   UNL     1      42.144 -13.063   3.565  1.00  0.00     0.246 C 
HETATM    2  N   UNL     1      41.488 -12.614   4.703  1.00  0.00    -0.325 N 
HETATM    3  O   UNL     1      43.151 -12.577   3.060  1.00  0.00    -0.271 OA
HETATM    4  H   UNL     1      40.716 -13.187   5.025  1.00  0.00     0.169 HD
ENDROOT
BRANCH   2   5
HETATM    5  C   UNL     1      41.795 -11.486   5.489  1.00  0.00     0.035 A 
HETATM    6  C   UNL     1      42.927 -11.393   6.310  1.00  0.00     0.046 A 
HETATM    7  C   UNL     1      43.160 -10.205   7.041  1.00  0.00     0.030 A 
HETATM    8  C   UNL     1      42.240  -9.168   6.946  1.00  0.00     0.063 A 
HETATM    9  C   UNL     1      44.177  -9.713   7.916  1.00  0.00     0.156 A 
HETATM   10  N   UNL     1      42.718  -8.181   7.760  1.00  0.00    -0.277 N 
HETATM   11  C   UNL     1      41.099  -9.231   6.143  1.00  0.00     0.034 A 
HETATM   12  H   UNL     1      42.294  -7.277   7.944  1.00  0.00     0.189 HD
HETATM   13  N   UNL     1      43.887  -8.467   8.354  1.00  0.00    -0.168 NA
HETATM   14  C   UNL     1      40.906 -10.405   5.408  1.00  0.00     0.032 A 
BRANCH   9  15
HETATM   15  C   UNL     1      45.415 -10.391   8.327  1.00  0.00     0.270 C 
HETATM   16  N   UNL     1      46.396 -10.382   7.372  1.00  0.00    -0.365 N 
HETATM   17  H   UNL     1      46.197  -9.948   6.478  1.00  0.00     0.159 HD
HETATM   18  H   UNL     1      47.265 -10.860   7.546  1.00  0.00     0.159 HD
HETATM   19  O   UNL     1      45.588 -10.939   9.409  1.00  0.00    -0.266 OA
ENDBRANCH   9  15
ENDBRANCH   2   5
BRANCH   1  20
HETATM   20  C   UNL     1      41.502 -14.332   2.995  1.00  0.00     0.278 C 
BRANCH  20  21
HETATM   21  O   UNL     1      41.468 -15.392   3.936  1.00  0.00    -0.342 OA
BRANCH  21  22
HETATM   22  C   UNL     1      42.222 -16.517   3.719  1.00  0.00     0.076 A 
HETATM   23  C   UNL     1      43.009 -16.979   4.807  1.00  0.00    -0.017 A 
HETATM   24  C   UNL     1      43.881 -18.063   4.557  1.00  0.00     0.011 A 
HETATM   25  C   UNL     1      43.943 -18.694   3.314  1.00  0.00     0.001 A 
HETATM   26  C   UNL     1      43.125 -18.265   2.283  1.00  0.00     0.003 A 
HETATM   27  C   UNL     1      42.267 -17.185   2.486  1.00  0.00     0.037 A 
BRANCH  23  28
HETATM   28  C   UNL     1      42.950 -16.339   6.218  1.00  0.00    -0.021 C 
HETATM   29  C   UNL     1      43.714 -14.994   6.276  1.00  0.00     0.019 C 
HETATM   30  C   UNL     1      43.544 -17.321   7.247  1.00  0.00     0.019 C 
HETATM   31  C   UNL     1      41.505 -16.011   6.684  1.00  0.00     0.019 C 
ENDBRANCH  23  28
ENDBRANCH  21  22
ENDBRANCH  20  21
ENDBRANCH   1  20
TORSDOF 6
ENDMDL
MODEL 9
REMARK VINA RESULT:      -8.0      2.378      3.846
REMARK  6 active torsions:
REMARK  status: ('A' for Active; 'I' for Inactive)
REMARK    1  A    between atoms: C_2  and  C_3 
REMARK    2  A    between atoms: C_4  and  O_5 
REMARK    3  A    between atoms: O_5  and  C_6 
REMARK    4  A    between atoms: C_6  and  C_7 
REMARK       I    between atoms: C_7  and  N_8 
REMARK    5  A    between atoms: N_8  and  C_9 
REMARK    6  A    between atoms: C_16  and  C_17 
REMARK       I    between atoms: C_17  and  N_18 
ROOT
HETATM    1  C   UNL     1      40.506 -13.191   3.096  1.00  0.00     0.246 C 
HETATM    2  N   UNL     1      41.056 -13.456   1.850  1.00  0.00    -0.325 N 
HETATM    3  O   UNL     1      39.395 -12.722   3.323  1.00  0.00    -0.271 OA
HETATM    4  H   UNL     1      41.957 -13.920   1.851  1.00  0.00     0.169 HD
ENDROOT
BRANCH   2   5
HETATM    5  C   UNL     1      40.492 -13.197   0.584  1.00  0.00     0.035 A 
HETATM    6  C   UNL     1      40.411 -11.920   0.013  1.00  0.00     0.046 A 
HETATM    7  C   UNL     1      39.848 -11.770  -1.275  1.00  0.00     0.030 A 
HETATM    8  C   UNL     1      39.363 -12.895  -1.931  1.00  0.00     0.063 A 
HETATM    9  C   UNL     1      39.634 -10.693  -2.189  1.00  0.00     0.156 A 
HETATM   10  N   UNL     1      38.877 -12.441  -3.123  1.00  0.00    -0.277 N 
HETATM   11  C   UNL     1      39.422 -14.180  -1.387  1.00  0.00     0.034 A 
HETATM   12  H   UNL     1      38.435 -12.987  -3.856  1.00  0.00     0.189 HD
HETATM   13  N   UNL     1      39.030 -11.122  -3.321  1.00  0.00    -0.168 NA
HETATM   14  C   UNL     1      40.009 -14.307  -0.124  1.00  0.00     0.032 A 
BRANCH   9  15
HETATM   15  C   UNL     1      40.004  -9.281  -2.018  1.00  0.00     0.270 C 
HETATM   16  N   UNL     1      41.355  -9.058  -2.000  1.00  0.00    -0.365 N 
HETATM   17  H   UNL     1      41.977  -9.854  -2.079  1.00  0.00     0.159 HD
HETATM   18  H   UNL     1      41.705  -8.127  -1.844  1.00  0.00     0.159 HD
HETATM   19  O   UNL     1      39.208  -8.358  -1.884  1.00  0.00    -0.266 OA
ENDBRANCH   9  15
ENDBRANCH   2   5
BRANCH   1  20
HETATM   20  C   UNL     1      41.435 -13.621   4.236  1.00  0.00     0.278 C 
BRANCH  20  21
HETATM   21  O   UNL     1      42.532 -14.395   3.779  1.00  0.00    -0.342 OA
BRANCH  21  22
HETATM   22  C   UNL     1      43.069 -15.358   4.594  1.00  0.00     0.076 A 
HETATM   23  C   UNL     1      43.133 -16.676   4.070  1.00  0.00    -0.017 A 
HETATM   24  C   UNL     1      43.571 -17.698   4.944  1.00  0.00     0.011 A 
HETATM   25  C   UNL     1      43.971 -17.432   6.254  1.00  0.00     0.001 A 
HETATM   26  C   UNL     1      43.956 -16.131   6.727  1.00  0.00     0.003 A 
HETATM   27  C   UNL     1      43.511 -15.100   5.901  1.00  0.00     0.037 A 
BRANCH  23  28
HETATM   28  C   UNL     1      42.737 -17.020   2.610  1.00  0.00    -0.021 C 
HETATM   29  C   UNL     1      41.219 -16.842   2.365  1.00  0.00     0.019 C 
HETATM   30  C   UNL     1      43.149 -18.473   2.301  1.00  0.00     0.019 C 
HETATM   31  C   UNL     1      43.432 -16.116   1.556  1.00  0.00     0.019 C 
ENDBRANCH  23  28
ENDBRANCH  21  22
ENDBRANCH  20  21
ENDBRANCH   1  20
TORSDOF 6
ENDMDL
MODEL 10
REMARK VINA RESULT:      -8.0      2.851      8.803
REMARK  6 active torsions:
REMARK  status: ('A' for Active; 'I' for Inactive)
REMARK    1  A    between atoms: C_2  and  C_3 
REMARK    2  A    between atoms: C_4  and  O_5 
REMARK    3  A    between atoms: O_5  and  C_6 
REMARK    4  A    between atoms: C_6  and  C_7 
REMARK       I    between atoms: C_7  and  N_8 
REMARK    5  A    between atoms: N_8  and  C_9 
REMARK    6  A    between atoms: C_16  and  C_17 
REMARK       I    between atoms: C_17  and  N_18 
ROOT
HETATM    1  C   UNL     1      41.151 -14.173   1.835  1.00  0.00     0.246 C 
HETATM    2  N   UNL     1      42.395 -14.767   2.001  1.00  0.00    -0.325 N 
HETATM    3  O   UNL     1      40.169 -14.316   2.557  1.00  0.00    -0.271 OA
HETATM    4  H   UNL     1      43.117 -14.472   1.354  1.00  0.00     0.169 HD
ENDROOT
BRANCH   2   5
HETATM    5  C   UNL     1      42.786 -15.693   2.989  1.00  0.00     0.035 A 
HETATM    6  C   UNL     1      42.961 -17.062   2.747  1.00  0.00     0.046 A 
HETATM    7  C   UNL     1      43.380 -17.906   3.802  1.00  0.00     0.030 A 
HETATM    8  C   UNL     1      43.580 -17.355   5.062  1.00  0.00     0.063 A 
HETATM    9  C   UNL     1      43.706 -19.289   3.950  1.00  0.00     0.156 A 
HETATM   10  N   UNL     1      43.957 -18.398   5.859  1.00  0.00    -0.277 N 
HETATM   11  C   UNL     1      43.407 -15.998   5.338  1.00  0.00     0.034 A 
HETATM   12  H   UNL     1      44.176 -18.366   6.849  1.00  0.00     0.189 HD
HETATM   13  N   UNL     1      44.055 -19.577   5.225  1.00  0.00    -0.168 NA
HETATM   14  C   UNL     1      43.020 -15.179   4.272  1.00  0.00     0.032 A 
BRANCH   9  15
HETATM   15  C   UNL     1      43.709 -20.329   2.912  1.00  0.00     0.270 C 
HETATM   16  N   UNL     1      43.206 -19.914   1.708  1.00  0.00    -0.365 N 
HETATM   17  H   UNL     1      42.860 -18.966   1.630  1.00  0.00     0.159 HD
HETATM   18  H   UNL     1      43.128 -20.571   0.948  1.00  0.00     0.159 HD
HETATM   19  O   UNL     1      44.101 -21.479   3.072  1.00  0.00    -0.266 OA
ENDBRANCH   9  15
ENDBRANCH   2   5
BRANCH   1  20
HETATM   20  C   UNL     1      41.126 -13.218   0.638  1.00  0.00     0.278 C 
BRANCH  20  21
HETATM   21  O   UNL     1      39.818 -12.765   0.333  1.00  0.00    -0.342 OA
BRANCH  21  22
HETATM   22  C   UNL     1      39.205 -13.188  -0.818  1.00  0.00     0.076 A 
HETATM   23  C   UNL     1      38.126 -12.397  -1.296  1.00  0.00    -0.017 A 
HETATM   24  C   UNL     1      37.410 -12.889  -2.411  1.00  0.00     0.011 A 
HETATM   25  C   UNL     1      37.764 -14.076  -3.055  1.00  0.00     0.001 A 
HETATM   26  C   UNL     1      38.856 -14.801  -2.610  1.00  0.00     0.003 A 
HETATM   27  C   UNL     1      39.573 -14.358  -1.500  1.00  0.00     0.037 A 
BRANCH  23  28
HETATM   28  C   UNL     1      37.714 -11.053  -0.641  1.00  0.00    -0.021 C 
HETATM   29  C   UNL     1      37.180 -11.250   0.798  1.00  0.00     0.019 C 
HETATM   30  C   UNL     1      36.637 -10.374  -1.509  1.00  0.00     0.019 C 
HETATM   31  C   UNL     1      38.892 -10.049  -0.508  1.00  0.00     0.019 C 
ENDBRANCH  23  28
ENDBRANCH  21  22
ENDBRANCH  20  21
ENDBRANCH   1  20
TORSDOF 6
ENDMDL
