MODEL 1
REMARK VINA RESULT:      -9.2      0.000      0.000
REMARK  6 active torsions:
REMARK  status: ('A' for Active; 'I' for Inactive)
REMARK    1  A    between atoms: O_2  and  C_3 
REMARK    2  A    between atoms: C_6  and  C_7 
REMARK    3  A    between atoms: C_7  and  N_8 
REMARK       I    between atoms: N_8  and  C_9 
REMARK    4  A    between atoms: C_9  and  C_10 
REMARK    5  A    between atoms: C_10  and  S_11 
REMARK    6  A    between atoms: S_11  and  C_12 
ROOT
HETATM    1  C   UNL     1      43.216 -13.382   6.361  1.00  0.00     0.198 A 
HETATM    2  N   UNL     1      43.186 -14.074   5.160  1.00  0.00    -0.257 N 
HETATM    3  C   UNL     1      43.380 -15.394   5.572  1.00  0.00     0.173 A 
HETATM    4  C   UNL     1      43.412 -16.493   4.577  1.00  0.00     0.053 A 
HETATM    5  C   UNL     1      43.255 -16.107   3.264  1.00  0.00     0.090 A 
HETATM    6  S   UNL     1      43.325 -17.442   2.211  1.00  0.00    -0.075 SA
HETATM    7  C   UNL     1      43.563 -18.522   3.514  1.00  0.00    -0.008 A 
HETATM    8  C   UNL     1      43.577 -17.891   4.747  1.00  0.00    -0.028 A 
HETATM    9  C   UNL     1      43.775 -18.642   6.028  1.00  0.00     0.041 C 
HETATM   10  C   UNL     1      43.558 -20.153   5.839  1.00  0.00     0.005 C 
HETATM   11  C   UNL     1      44.248 -20.673   4.570  1.00  0.00     0.005 C 
HETATM   12  C   UNL     1      43.698 -19.999   3.304  1.00  0.00     0.047 C 
HETATM   13  N   UNL     1      43.071 -14.816   2.877  1.00  0.00    -0.336 N 
HETATM   14  C   UNL     1      43.020 -13.735   3.776  1.00  0.00     0.106 A 
HETATM   15  C   UNL     1      42.825 -12.496   3.292  1.00  0.00     0.064 C 
HETATM   16  N   UNL     1      43.522 -15.478   6.872  1.00  0.00    -0.128 NA
HETATM   17  N   UNL     1      43.422 -14.208   7.369  1.00  0.00    -0.122 NA
HETATM   18  H   UNL     1      42.957 -14.600   1.891  1.00  0.00     0.168 HD
ENDROOT
BRANCH   1  19
HETATM   19  S   UNL     1      43.018 -11.672   6.563  1.00  0.00    -0.080 SA
BRANCH  19  20
HETATM   20  C   UNL     1      44.696 -11.101   6.154  1.00  0.00     0.185 C 
BRANCH  20  21
HETATM   21  C   UNL     1      45.427 -10.650   7.406  1.00  0.00     0.227 C 
HETATM   22  N   UNL     1      44.646  -9.991   8.333  1.00  0.00    -0.356 N 
HETATM   23  H   UNL     1      43.646 -10.148   8.297  1.00  0.00     0.162 HD
HETATM   24  O   UNL     1      46.639 -10.800   7.546  1.00  0.00    -0.273 OA
BRANCH  22  25
HETATM   25  C   UNL     1      45.216  -9.562   9.590  1.00  0.00     0.161 C 
BRANCH  25  26
HETATM   26  C   UNL     1      44.190  -9.492  10.690  1.00  0.00    -0.040 A 
HETATM   27  C   UNL     1      43.833 -10.648  11.396  1.00  0.00     0.011 A 
HETATM   28  C   UNL     1      42.925 -10.580  12.455  1.00  0.00     0.037 A 
HETATM   29  C   UNL     1      42.366  -9.360  12.839  1.00  0.00     0.068 A 
HETATM   30  C   UNL     1      42.714  -8.204  12.141  1.00  0.00     0.037 A 
HETATM   31  C   UNL     1      43.626  -8.269  11.082  1.00  0.00     0.011 A 
BRANCH  29  32
HETATM   32  O   UNL     1      41.505  -9.433  13.899  1.00  0.00    -0.356 OA
HETATM   33  C   UNL     1      41.702  -8.491  14.947  1.00  0.00     0.210 C 
ENDBRANCH  29  32
ENDBRANCH  25  26
ENDBRANCH  22  25
ENDBRANCH  20  21
ENDBRANCH  19  20
ENDBRANCH   1  19
TORSDOF 6
ENDMDL
MODEL 2
REMARK VINA RESULT:      -9.1      1.467      1.878
REMARK  6 active torsions:
REMARK  status: ('A' for Active; 'I' for Inactive)
REMARK    1  A    between atoms: O_2  and  C_3 
REMARK    2  A    between atoms: C_6  and  C_7 
REMARK    3  A    between atoms: C_7  and  N_8 
REMARK       I    between atoms: N_8  and  C_9 
REMARK    4  A    between atoms: C_9  and  C_10 
REMARK    5  A    between atoms: C_10  and  S_11 
REMARK    6  A    between atoms: S_11  and  C_12 
ROOT
HETATM    1  C   UNL     1      42.841 -12.337   6.389  1.00  0.00     0.198 A 
HETATM    2  N   UNL     1      42.347 -12.920   5.231  1.00  0.00    -0.257 N 
HETATM    3  C   UNL     1      42.951 -14.178   5.250  1.00  0.00     0.173 A 
HETATM    4  C   UNL     1      42.685 -15.155   4.166  1.00  0.00     0.053 A 
HETATM    5  C   UNL     1      41.835 -14.719   3.173  1.00  0.00     0.090 A 
HETATM    6  S   UNL     1      41.614 -15.908   1.977  1.00  0.00    -0.075 SA
HETATM    7  C   UNL     1      42.652 -16.993   2.792  1.00  0.00    -0.008 A 
HETATM    8  C   UNL     1      43.159 -16.477   3.974  1.00  0.00    -0.028 A 
HETATM    9  C   UNL     1      44.093 -17.252   4.850  1.00  0.00     0.041 C 
HETATM   10  C   UNL     1      44.086 -18.751   4.502  1.00  0.00     0.005 C 
HETATM   11  C   UNL     1      44.141 -18.983   2.986  1.00  0.00     0.005 C 
HETATM   12  C   UNL     1      42.928 -18.370   2.270  1.00  0.00     0.047 C 
HETATM   13  N   UNL     1      41.256 -13.487   3.166  1.00  0.00    -0.336 N 
HETATM   14  C   UNL     1      41.462 -12.526   4.172  1.00  0.00     0.106 A 
HETATM   15  C   UNL     1      40.837 -11.340   4.076  1.00  0.00     0.064 C 
HETATM   16  N   UNL     1      43.728 -14.325   6.295  1.00  0.00    -0.128 NA
HETATM   17  N   UNL     1      43.660 -13.162   7.011  1.00  0.00    -0.122 NA
HETATM   18  H   UNL     1      40.634 -13.230   2.405  1.00  0.00     0.168 HD
ENDROOT
BRANCH   1  19
HETATM   19  S   UNL     1      42.466 -10.750   6.977  1.00  0.00    -0.080 SA
BRANCH  19  20
HETATM   20  C   UNL     1      44.132 -10.164   7.413  1.00  0.00     0.185 C 
BRANCH  20  21
HETATM   21  C   UNL     1      44.470 -10.531   8.846  1.00  0.00     0.227 C 
HETATM   22  N   UNL     1      43.418 -10.446   9.734  1.00  0.00    -0.356 N 
HETATM   23  H   UNL     1      42.480 -10.490   9.354  1.00  0.00     0.162 HD
HETATM   24  O   UNL     1      45.613 -10.815   9.197  1.00  0.00    -0.273 OA
BRANCH  22  25
HETATM   25  C   UNL     1      43.602 -10.824  11.117  1.00  0.00     0.161 C 
BRANCH  25  26
HETATM   26  C   UNL     1      43.082  -9.780  12.071  1.00  0.00    -0.040 A 
HETATM   27  C   UNL     1      42.113 -10.118  13.024  1.00  0.00     0.011 A 
HETATM   28  C   UNL     1      41.669  -9.170  13.949  1.00  0.00     0.037 A 
HETATM   29  C   UNL     1      42.189  -7.874  13.950  1.00  0.00     0.068 A 
HETATM   30  C   UNL     1      43.152  -7.529  13.003  1.00  0.00     0.037 A 
HETATM   31  C   UNL     1      43.602  -8.478  12.078  1.00  0.00     0.011 A 
BRANCH  29  32
HETATM   32  O   UNL     1      41.678  -7.053  14.916  1.00  0.00    -0.356 OA
HETATM   33  C   UNL     1      41.119  -7.684  16.062  1.00  0.00     0.210 C 
ENDBRANCH  29  32
ENDBRANCH  25  26
ENDBRANCH  22  25
ENDBRANCH  20  21
ENDBRANCH  19  20
ENDBRANCH   1  19
TORSDOF 6
ENDMDL
MODEL 3
REMARK VINA RESULT:      -8.9      3.771      9.452
REMARK  6 active torsions:
REMARK  status: ('A' for Active; 'I' for Inactive)
REMARK    1  A    between atoms: O_2  and  C_3 
REMARK    2  A    between atoms: C_6  and  C_7 
REMARK    3  A    between atoms: C_7  and  N_8 
REMARK       I    between atoms: N_8  and  C_9 
REMARK    4  A    between atoms: C_9  and  C_10 
REMARK    5  A    between atoms: C_10  and  S_11 
REMARK    6  A    between atoms: S_11  and  C_12 
ROOT
HETATM    1  C   UNL     1      40.987 -11.017   4.719  1.00  0.00     0.198 A 
HETATM    2  N   UNL     1      42.289 -11.066   5.194  1.00  0.00    -0.257 N 
HETATM    3  C   UNL     1      42.149 -10.587   6.497  1.00  0.00     0.173 A 
HETATM    4  C   UNL     1      43.331 -10.478   7.387  1.00  0.00     0.053 A 
HETATM    5  C   UNL     1      44.530 -10.860   6.827  1.00  0.00     0.090 A 
HETATM    6  S   UNL     1      45.816 -10.678   7.926  1.00  0.00    -0.075 SA
HETATM    7  C   UNL     1      44.764 -10.091   9.138  1.00  0.00    -0.008 A 
HETATM    8  C   UNL     1      43.440 -10.042   8.731  1.00  0.00    -0.028 A 
HETATM    9  C   UNL     1      42.345  -9.556   9.630  1.00  0.00     0.041 C 
HETATM   10  C   UNL     1      42.793  -9.516  11.101  1.00  0.00     0.005 C 
HETATM   11  C   UNL     1      44.192  -8.903  11.253  1.00  0.00     0.005 C 
HETATM   12  C   UNL     1      45.257  -9.716  10.501  1.00  0.00     0.047 C 
HETATM   13  N   UNL     1      44.652 -11.321   5.553  1.00  0.00    -0.336 N 
HETATM   14  C   UNL     1      43.566 -11.459   4.669  1.00  0.00     0.106 A 
HETATM   15  C   UNL     1      43.790 -11.933   3.431  1.00  0.00     0.064 C 
HETATM   16  N   UNL     1      40.906 -10.275   6.767  1.00  0.00    -0.128 NA
HETATM   17  N   UNL     1      40.173 -10.544   5.643  1.00  0.00    -0.122 NA
HETATM   18  H   UNL     1      45.566 -11.592   5.203  1.00  0.00     0.168 HD
ENDROOT
BRANCH   1  19
HETATM   19  S   UNL     1      40.452 -11.496   3.141  1.00  0.00    -0.080 SA
BRANCH  19  20
HETATM   20  C   UNL     1      39.887 -13.190   3.491  1.00  0.00     0.185 C 
BRANCH  20  21
HETATM   21  C   UNL     1      40.426 -14.157   2.453  1.00  0.00     0.227 C 
HETATM   22  N   UNL     1      41.666 -14.690   2.737  1.00  0.00    -0.356 N 
HETATM   23  H   UNL     1      41.963 -14.689   3.705  1.00  0.00     0.162 HD
HETATM   24  O   UNL     1      39.828 -14.390   1.404  1.00  0.00    -0.273 OA
BRANCH  22  25
HETATM   25  C   UNL     1      42.258 -15.666   1.851  1.00  0.00     0.161 C 
BRANCH  25  26
HETATM   26  C   UNL     1      42.944 -16.778   2.600  1.00  0.00    -0.040 A 
HETATM   27  C   UNL     1      43.348 -16.588   3.928  1.00  0.00     0.011 A 
HETATM   28  C   UNL     1      43.933 -17.633   4.647  1.00  0.00     0.037 A 
HETATM   29  C   UNL     1      44.115 -18.888   4.063  1.00  0.00     0.068 A 
HETATM   30  C   UNL     1      43.717 -19.086   2.742  1.00  0.00     0.037 A 
HETATM   31  C   UNL     1      43.128 -18.041   2.020  1.00  0.00     0.011 A 
BRANCH  29  32
HETATM   32  O   UNL     1      44.683 -19.824   4.882  1.00  0.00    -0.356 OA
HETATM   33  C   UNL     1      43.796 -20.608   5.669  1.00  0.00     0.210 C 
ENDBRANCH  29  32
ENDBRANCH  25  26
ENDBRANCH  22  25
ENDBRANCH  20  21
ENDBRANCH  19  20
ENDBRANCH   1  19
TORSDOF 6
ENDMDL
MODEL 4
REMARK VINA RESULT:      -8.9      5.049      8.825
REMARK  6 active torsions:
REMARK  status: ('A' for Active; 'I' for Inactive)
REMARK    1  A    between atoms: O_2  and  C_3 
REMARK    2  A    between atoms: C_6  and  C_7 
REMARK    3  A    between atoms: C_7  and  N_8 
REMARK       I    between atoms: N_8  and  C_9 
REMARK    4  A    between atoms: C_9  and  C_10 
REMARK    5  A    between atoms: C_10  and  S_11 
REMARK    6  A    between atoms: S_11  and  C_12 
ROOT
HETATM    1  C   UNL     1      40.559 -10.652   0.712  1.00  0.00     0.198 A 
HETATM    2  N   UNL     1      40.222 -11.358   1.857  1.00  0.00    -0.257 N 
HETATM    3  C   UNL     1      41.420 -11.353   2.574  1.00  0.00     0.173 A 
HETATM    4  C   UNL     1      41.505 -12.014   3.899  1.00  0.00     0.053 A 
HETATM    5  C   UNL     1      40.346 -12.620   4.332  1.00  0.00     0.090 A 
HETATM    6  S   UNL     1      40.560 -13.358   5.850  1.00  0.00    -0.075 SA
HETATM    7  C   UNL     1      42.194 -12.863   5.917  1.00  0.00    -0.008 A 
HETATM    8  C   UNL     1      42.585 -12.129   4.809  1.00  0.00    -0.028 A 
HETATM    9  C   UNL     1      43.976 -11.596   4.653  1.00  0.00     0.041 C 
HETATM   10  C   UNL     1      44.743 -11.613   5.986  1.00  0.00     0.005 C 
HETATM   11  C   UNL     1      44.546 -12.935   6.740  1.00  0.00     0.005 C 
HETATM   12  C   UNL     1      43.070 -13.177   7.091  1.00  0.00     0.047 C 
HETATM   13  N   UNL     1      39.186 -12.621   3.621  1.00  0.00    -0.336 N 
HETATM   14  C   UNL     1      39.044 -12.000   2.366  1.00  0.00     0.106 A 
HETATM   15  C   UNL     1      37.852 -12.050   1.747  1.00  0.00     0.064 C 
HETATM   16  N   UNL     1      42.369 -10.726   1.924  1.00  0.00    -0.128 NA
HETATM   17  N   UNL     1      41.826 -10.286   0.748  1.00  0.00    -0.122 NA
HETATM   18  H   UNL     1      38.365 -13.083   4.001  1.00  0.00     0.168 HD
ENDROOT
BRANCH   1  19
HETATM   19  S   UNL     1      39.502 -10.278  -0.610  1.00  0.00    -0.080 SA
BRANCH  19  20
HETATM   20  C   UNL     1      39.976 -11.585  -1.783  1.00  0.00     0.185 C 
BRANCH  20  21
HETATM   21  C   UNL     1      39.573 -12.949  -1.254  1.00  0.00     0.227 C 
HETATM   22  N   UNL     1      40.544 -13.603  -0.524  1.00  0.00    -0.356 N 
HETATM   23  H   UNL     1      41.276 -13.039  -0.111  1.00  0.00     0.162 HD
HETATM   24  O   UNL     1      38.486 -13.459  -1.519  1.00  0.00    -0.273 OA
BRANCH  22  25
HETATM   25  C   UNL     1      40.259 -14.885   0.079  1.00  0.00     0.161 C 
BRANCH  25  26
HETATM   26  C   UNL     1      41.083 -15.131   1.316  1.00  0.00    -0.040 A 
HETATM   27  C   UNL     1      40.532 -15.824   2.402  1.00  0.00     0.011 A 
HETATM   28  C   UNL     1      41.308 -16.106   3.529  1.00  0.00     0.037 A 
HETATM   29  C   UNL     1      42.647 -15.716   3.591  1.00  0.00     0.068 A 
HETATM   30  C   UNL     1      43.202 -15.025   2.516  1.00  0.00     0.037 A 
HETATM   31  C   UNL     1      42.429 -14.744   1.384  1.00  0.00     0.011 A 
BRANCH  29  32
HETATM   32  O   UNL     1      43.293 -16.068   4.743  1.00  0.00    -0.356 OA
HETATM   33  C   UNL     1      42.549 -16.829   5.686  1.00  0.00     0.210 C 
ENDBRANCH  29  32
ENDBRANCH  25  26
ENDBRANCH  22  25
ENDBRANCH  20  21
ENDBRANCH  19  20
ENDBRANCH   1  19
TORSDOF 6
ENDMDL
MODEL 5
REMARK VINA RESULT:      -8.8      2.610      4.514
REMARK  6 active torsions:
REMARK  status: ('A' for Active; 'I' for Inactive)
REMARK    1  A    between atoms: O_2  and  C_3 
REMARK    2  A    between atoms: C_6  and  C_7 
REMARK    3  A    between atoms: C_7  and  N_8 
REMARK       I    between atoms: N_8  and  C_9 
REMARK    4  A    between atoms: C_9  and  C_10 
REMARK    5  A    between atoms: C_10  and  S_11 
REMARK    6  A    between atoms: S_11  and  C_12 
ROOT
HETATM    1  C   UNL     1      40.146 -14.106   3.096  1.00  0.00     0.198 A 
HETATM    2  N   UNL     1      40.891 -14.722   4.091  1.00  0.00    -0.257 N 
HETATM    3  C   UNL     1      41.376 -15.858   3.440  1.00  0.00     0.173 A 
HETATM    4  C   UNL     1      42.247 -16.819   4.158  1.00  0.00     0.053 A 
HETATM    5  C   UNL     1      42.511 -16.509   5.475  1.00  0.00     0.090 A 
HETATM    6  S   UNL     1      43.502 -17.684   6.204  1.00  0.00    -0.075 SA
HETATM    7  C   UNL     1      43.572 -18.595   4.760  1.00  0.00    -0.008 A 
HETATM    8  C   UNL     1      42.865 -18.017   3.718  1.00  0.00    -0.028 A 
HETATM    9  C   UNL     1      42.785 -18.644   2.360  1.00  0.00     0.041 C 
HETATM   10  C   UNL     1      43.862 -19.726   2.171  1.00  0.00     0.005 C 
HETATM   11  C   UNL     1      43.969 -20.644   3.397  1.00  0.00     0.005 C 
HETATM   12  C   UNL     1      44.362 -19.863   4.661  1.00  0.00     0.047 C 
HETATM   13  N   UNL     1      42.028 -15.400   6.097  1.00  0.00    -0.336 N 
HETATM   14  C   UNL     1      41.209 -14.447   5.463  1.00  0.00     0.106 A 
HETATM   15  C   UNL     1      40.790 -13.380   6.164  1.00  0.00     0.064 C 
HETATM   16  N   UNL     1      40.957 -15.920   2.201  1.00  0.00    -0.128 NA
HETATM   17  N   UNL     1      40.178 -14.817   1.985  1.00  0.00    -0.122 NA
HETATM   18  H   UNL     1      42.265 -15.227   7.070  1.00  0.00     0.168 HD
ENDROOT
BRANCH   1  19
HETATM   19  S   UNL     1      39.275 -12.615   3.242  1.00  0.00    -0.080 SA
BRANCH  19  20
HETATM   20  C   UNL     1      40.347 -11.516   2.266  1.00  0.00     0.185 C 
BRANCH  20  21
HETATM   21  C   UNL     1      41.809 -11.799   2.559  1.00  0.00     0.227 C 
HETATM   22  N   UNL     1      42.278 -11.278   3.747  1.00  0.00    -0.356 N 
HETATM   23  H   UNL     1      41.597 -11.067   4.466  1.00  0.00     0.162 HD
HETATM   24  O   UNL     1      42.535 -12.387   1.759  1.00  0.00    -0.273 OA
BRANCH  22  25
HETATM   25  C   UNL     1      43.640 -11.529   4.162  1.00  0.00     0.161 C 
BRANCH  25  26
HETATM   26  C   UNL     1      43.866 -11.198   5.614  1.00  0.00    -0.040 A 
HETATM   27  C   UNL     1      45.081 -11.523   6.230  1.00  0.00     0.011 A 
HETATM   28  C   UNL     1      45.319 -11.168   7.560  1.00  0.00     0.037 A 
HETATM   29  C   UNL     1      44.358 -10.473   8.296  1.00  0.00     0.068 A 
HETATM   30  C   UNL     1      43.145 -10.147   7.692  1.00  0.00     0.037 A 
HETATM   31  C   UNL     1      42.905 -10.499   6.359  1.00  0.00     0.011 A 
BRANCH  29  32
HETATM   32  O   UNL     1      44.725 -10.175   9.579  1.00  0.00    -0.356 OA
HETATM   33  C   UNL     1      43.798 -10.512  10.604  1.00  0.00     0.210 C 
ENDBRANCH  29  32
ENDBRANCH  25  26
ENDBRANCH  22  25
ENDBRANCH  20  21
ENDBRANCH  19  20
ENDBRANCH   1  19
TORSDOF 6
ENDMDL
MODEL 6
REMARK VINA RESULT:      -8.8      5.888      8.286
REMARK  6 active torsions:
REMARK  status: ('A' for Active; 'I' for Inactive)
REMARK    1  A    between atoms: O_2  and  C_3 
REMARK    2  A    between atoms: C_6  and  C_7 
REMARK    3  A    between atoms: C_7  and  N_8 
REMARK       I    between atoms: N_8  and  C_9 
REMARK    4  A    between atoms: C_9  and  C_10 
REMARK    5  A    between atoms: C_10  and  S_11 
REMARK    6  A    between atoms: S_11  and  C_12 
ROOT
HETATM    1  C   UNL     1      41.814 -11.098   2.746  1.00  0.00     0.198 A 
HETATM    2  N   UNL     1      41.112 -11.955   3.580  1.00  0.00    -0.257 N 
HETATM    3  C   UNL     1      42.108 -12.834   4.010  1.00  0.00     0.173 A 
HETATM    4  C   UNL     1      41.782 -13.936   4.948  1.00  0.00     0.053 A 
HETATM    5  C   UNL     1      40.460 -14.018   5.327  1.00  0.00     0.090 A 
HETATM    6  S   UNL     1      40.198 -15.323   6.386  1.00  0.00    -0.075 SA
HETATM    7  C   UNL     1      41.847 -15.767   6.330  1.00  0.00    -0.008 A 
HETATM    8  C   UNL     1      42.608 -14.931   5.529  1.00  0.00    -0.028 A 
HETATM    9  C   UNL     1      44.078 -15.134   5.330  1.00  0.00     0.041 C 
HETATM   10  C   UNL     1      44.670 -16.078   6.390  1.00  0.00     0.005 C 
HETATM   11  C   UNL     1      43.783 -17.312   6.612  1.00  0.00     0.005 C 
HETATM   12  C   UNL     1      42.383 -16.925   7.114  1.00  0.00     0.047 C 
HETATM   13  N   UNL     1      39.500 -13.156   4.897  1.00  0.00    -0.336 N 
HETATM   14  C   UNL     1      39.752 -12.086   4.019  1.00  0.00     0.106 A 
HETATM   15  C   UNL     1      38.734 -11.285   3.660  1.00  0.00     0.064 C 
HETATM   16  N   UNL     1      43.270 -12.543   3.481  1.00  0.00    -0.128 NA
HETATM   17  N   UNL     1      43.083 -11.449   2.680  1.00  0.00    -0.122 NA
HETATM   18  H   UNL     1      38.543 -13.270   5.220  1.00  0.00     0.168 HD
ENDROOT
BRANCH   1  19
HETATM   19  S   UNL     1      41.160  -9.743   1.884  1.00  0.00    -0.080 SA
BRANCH  19  20
HETATM   20  C   UNL     1      40.996 -10.465   0.222  1.00  0.00     0.185 C 
BRANCH  20  21
HETATM   21  C   UNL     1      40.253 -11.788   0.285  1.00  0.00     0.227 C 
HETATM   22  N   UNL     1      41.057 -12.904   0.383  1.00  0.00    -0.356 N 
HETATM   23  H   UNL     1      41.996 -12.775   0.740  1.00  0.00     0.162 HD
HETATM   24  O   UNL     1      39.030 -11.857   0.185  1.00  0.00    -0.273 OA
BRANCH  22  25
HETATM   25  C   UNL     1      40.465 -14.217   0.507  1.00  0.00     0.161 C 
BRANCH  25  26
HETATM   26  C   UNL     1      41.353 -15.178   1.253  1.00  0.00    -0.040 A 
HETATM   27  C   UNL     1      40.791 -16.193   2.038  1.00  0.00     0.011 A 
HETATM   28  C   UNL     1      41.607 -17.123   2.685  1.00  0.00     0.037 A 
HETATM   29  C   UNL     1      42.996 -17.068   2.554  1.00  0.00     0.068 A 
HETATM   30  C   UNL     1      43.565 -16.060   1.776  1.00  0.00     0.037 A 
HETATM   31  C   UNL     1      42.749 -15.129   1.123  1.00  0.00     0.011 A 
BRANCH  29  32
HETATM   32  O   UNL     1      43.674 -18.045   3.227  1.00  0.00    -0.356 OA
HETATM   33  C   UNL     1      43.634 -19.352   2.667  1.00  0.00     0.210 C 
ENDBRANCH  29  32
ENDBRANCH  25  26
ENDBRANCH  22  25
ENDBRANCH  20  21
ENDBRANCH  19  20
ENDBRANCH   1  19
TORSDOF 6
ENDMDL
MODEL 7
REMARK VINA RESULT:      -8.7      4.715      8.946
REMARK  6 active torsions:
REMARK  status: ('A' for Active; 'I' for Inactive)
REMARK    1  A    between atoms: O_2  and  C_3 
REMARK    2  A    between atoms: C_6  and  C_7 
REMARK    3  A    between atoms: C_7  and  N_8 
REMARK       I    between atoms: N_8  and  C_9 
REMARK    4  A    between atoms: C_9  and  C_10 
REMARK    5  A    between atoms: C_10  and  S_11 
REMARK    6  A    between atoms: S_11  and  C_12 
ROOT
HETATM    1  C   UNL     1      42.741 -13.094   3.118  1.00  0.00     0.198 A 
HETATM    2  N   UNL     1      42.984 -13.949   4.183  1.00  0.00    -0.257 N 
HETATM    3  C   UNL     1      43.097 -15.188   3.550  1.00  0.00     0.173 A 
HETATM    4  C   UNL     1      43.371 -16.412   4.341  1.00  0.00     0.053 A 
HETATM    5  C   UNL     1      43.482 -16.225   5.701  1.00  0.00     0.090 A 
HETATM    6  S   UNL     1      43.777 -17.693   6.508  1.00  0.00    -0.075 SA
HETATM    7  C   UNL     1      43.755 -18.565   5.039  1.00  0.00    -0.008 A 
HETATM    8  C   UNL     1      43.540 -17.759   3.933  1.00  0.00    -0.028 A 
HETATM    9  C   UNL     1      43.478 -18.311   2.542  1.00  0.00     0.041 C 
HETATM   10  C   UNL     1      44.059 -19.733   2.468  1.00  0.00     0.005 C 
HETATM   11  C   UNL     1      43.566 -20.611   3.627  1.00  0.00     0.005 C 
HETATM   12  C   UNL     1      43.987 -20.044   4.992  1.00  0.00     0.047 C 
HETATM   13  N   UNL     1      43.365 -15.012   6.305  1.00  0.00    -0.336 N 
HETATM   14  C   UNL     1      43.119 -13.816   5.605  1.00  0.00     0.106 A 
HETATM   15  C   UNL     1      43.029 -12.666   6.295  1.00  0.00     0.064 C 
HETATM   16  N   UNL     1      42.928 -15.086   2.255  1.00  0.00    -0.128 NA
HETATM   17  N   UNL     1      42.700 -13.764   1.984  1.00  0.00    -0.122 NA
HETATM   18  H   UNL     1      43.463 -14.942   7.314  1.00  0.00     0.168 HD
ENDROOT
BRANCH   1  19
HETATM   19  S   UNL     1      42.514 -11.378   3.214  1.00  0.00    -0.080 SA
BRANCH  19  20
HETATM   20  C   UNL     1      40.767 -11.310   3.717  1.00  0.00     0.185 C 
BRANCH  20  21
HETATM   21  C   UNL     1      39.890 -10.906   2.546  1.00  0.00     0.227 C 
HETATM   22  N   UNL     1      40.570 -10.442   1.439  1.00  0.00    -0.356 N 
HETATM   23  H   UNL     1      41.541 -10.712   1.340  1.00  0.00     0.162 HD
HETATM   24  O   UNL     1      38.662 -10.926   2.610  1.00  0.00    -0.273 OA
BRANCH  22  25
HETATM   25  C   UNL     1      39.846 -10.080   0.241  1.00  0.00     0.161 C 
BRANCH  25  26
HETATM   26  C   UNL     1      39.790 -11.207  -0.757  1.00  0.00    -0.040 A 
HETATM   27  C   UNL     1      38.693 -12.078  -0.775  1.00  0.00     0.011 A 
HETATM   28  C   UNL     1      38.607 -13.090  -1.735  1.00  0.00     0.037 A 
HETATM   29  C   UNL     1      39.603 -13.245  -2.700  1.00  0.00     0.068 A 
HETATM   30  C   UNL     1      40.700 -12.384  -2.688  1.00  0.00     0.037 A 
HETATM   31  C   UNL     1      40.787 -11.368  -1.730  1.00  0.00     0.011 A 
BRANCH  29  32
HETATM   32  O   UNL     1      39.387 -14.263  -3.587  1.00  0.00    -0.356 OA
HETATM   33  C   UNL     1      38.057 -14.757  -3.682  1.00  0.00     0.210 C 
ENDBRANCH  29  32
ENDBRANCH  25  26
ENDBRANCH  22  25
ENDBRANCH  20  21
ENDBRANCH  19  20
ENDBRANCH   1  19
TORSDOF 6
ENDMDL
MODEL 8
REMARK VINA RESULT:      -8.7      2.344      3.564
REMARK  6 active torsions:
REMARK  status: ('A' for Active; 'I' for Inactive)
REMARK    1  A    between atoms: O_2  and  C_3 
REMARK    2  A    between atoms: C_6  and  C_7 
REMARK    3  A    between atoms: C_7  and  N_8 
REMARK       I    between atoms: N_8  and  C_9 
REMARK    4  A    between atoms: C_9  and  C_10 
REMARK    5  A    between atoms: C_10  and  S_11 
REMARK    6  A    between atoms: S_11  and  C_12 
ROOT
HETATM    1  C   UNL     1      43.585 -11.093   7.275  1.00  0.00     0.198 A 
HETATM    2  N   UNL     1      42.695 -11.446   6.271  1.00  0.00    -0.257 N 
HETATM    3  C   UNL     1      43.071 -12.761   5.990  1.00  0.00     0.173 A 
HETATM    4  C   UNL     1      42.354 -13.540   4.951  1.00  0.00     0.053 A 
HETATM    5  C   UNL     1      41.338 -12.870   4.305  1.00  0.00     0.090 A 
HETATM    6  S   UNL     1      40.599 -13.849   3.127  1.00  0.00    -0.075 SA
HETATM    7  C   UNL     1      41.638 -15.156   3.487  1.00  0.00    -0.008 A 
HETATM    8  C   UNL     1      42.536 -14.873   4.503  1.00  0.00    -0.028 A 
HETATM    9  C   UNL     1      43.544 -15.872   4.981  1.00  0.00     0.041 C 
HETATM   10  C   UNL     1      43.199 -17.296   4.514  1.00  0.00     0.005 C 
HETATM   11  C   UNL     1      42.782 -17.325   3.037  1.00  0.00     0.005 C 
HETATM   12  C   UNL     1      41.530 -16.472   2.780  1.00  0.00     0.047 C 
HETATM   13  N   UNL     1      40.986 -11.587   4.587  1.00  0.00    -0.336 N 
HETATM   14  C   UNL     1      41.620 -10.804   5.570  1.00  0.00     0.106 A 
HETATM   15  C   UNL     1      41.192  -9.548   5.777  1.00  0.00     0.064 C 
HETATM   16  N   UNL     1      44.078 -13.146   6.733  1.00  0.00    -0.128 NA
HETATM   17  N   UNL     1      44.404 -12.091   7.542  1.00  0.00    -0.122 NA
HETATM   18  H   UNL     1      40.222 -11.152   4.076  1.00  0.00     0.168 HD
ENDROOT
BRANCH   1  19
HETATM   19  S   UNL     1      43.652  -9.567   8.094  1.00  0.00    -0.080 SA
BRANCH  19  20
HETATM   20  C   UNL     1      44.757  -9.989   9.476  1.00  0.00     0.185 C 
BRANCH  20  21
HETATM   21  C   UNL     1      43.956 -10.473  10.671  1.00  0.00     0.227 C 
HETATM   22  N   UNL     1      42.875  -9.686  11.007  1.00  0.00    -0.356 N 
HETATM   23  H   UNL     1      42.492  -9.085  10.287  1.00  0.00     0.162 HD
HETATM   24  O   UNL     1      44.293 -11.454  11.330  1.00  0.00    -0.273 OA
BRANCH  22  25
HETATM   25  C   UNL     1      42.003 -10.074  12.093  1.00  0.00     0.161 C 
BRANCH  25  26
HETATM   26  C   UNL     1      42.034  -9.089  13.232  1.00  0.00    -0.040 A 
HETATM   27  C   UNL     1      42.993  -8.069  13.256  1.00  0.00     0.011 A 
HETATM   28  C   UNL     1      42.991  -7.117  14.278  1.00  0.00     0.037 A 
HETATM   29  C   UNL     1      42.027  -7.156  15.288  1.00  0.00     0.068 A 
HETATM   30  C   UNL     1      41.070  -8.169  15.273  1.00  0.00     0.037 A 
HETATM   31  C   UNL     1      41.068  -9.122  14.248  1.00  0.00     0.011 A 
BRANCH  29  32
HETATM   32  O   UNL     1      42.131  -6.159  16.217  1.00  0.00    -0.356 OA
HETATM   33  C   UNL     1      41.505  -4.922  15.898  1.00  0.00     0.210 C 
ENDBRANCH  29  32
ENDBRANCH  25  26
ENDBRANCH  22  25
ENDBRANCH  20  21
ENDBRANCH  19  20
ENDBRANCH   1  19
TORSDOF 6
ENDMDL
MODEL 9
REMARK VINA RESULT:      -8.6      5.520      9.420
REMARK  6 active torsions:
REMARK  status: ('A' for Active; 'I' for Inactive)
REMARK    1  A    between atoms: O_2  and  C_3 
REMARK    2  A    between atoms: C_6  and  C_7 
REMARK    3  A    between atoms: C_7  and  N_8 
REMARK       I    between atoms: N_8  and  C_9 
REMARK    4  A    between atoms: C_9  and  C_10 
REMARK    5  A    between atoms: C_10  and  S_11 
REMARK    6  A    between atoms: S_11  and  C_12 
ROOT
HETATM    1  C   UNL     1      41.888 -13.698   2.287  1.00  0.00     0.198 A 
HETATM    2  N   UNL     1      42.418 -14.354   3.388  1.00  0.00    -0.257 N 
HETATM    3  C   UNL     1      42.581 -15.655   2.909  1.00  0.00     0.173 A 
HETATM    4  C   UNL     1      43.141 -16.712   3.785  1.00  0.00     0.053 A 
HETATM    5  C   UNL     1      43.459 -16.313   5.065  1.00  0.00     0.090 A 
HETATM    6  S   UNL     1      44.075 -17.604   5.985  1.00  0.00    -0.075 SA
HETATM    7  C   UNL     1      43.914 -18.684   4.671  1.00  0.00    -0.008 A 
HETATM    8  C   UNL     1      43.411 -18.080   3.530  1.00  0.00    -0.028 A 
HETATM    9  C   UNL     1      43.184 -18.837   2.257  1.00  0.00     0.041 C 
HETATM   10  C   UNL     1      43.923 -20.186   2.260  1.00  0.00     0.005 C 
HETATM   11  C   UNL     1      43.753 -20.927   3.594  1.00  0.00     0.005 C 
HETATM   12  C   UNL     1      44.325 -20.121   4.771  1.00  0.00     0.047 C 
HETATM   13  N   UNL     1      43.290 -15.041   5.519  1.00  0.00    -0.336 N 
HETATM   14  C   UNL     1      42.776 -13.995   4.731  1.00  0.00     0.106 A 
HETATM   15  C   UNL     1      42.657 -12.771   5.272  1.00  0.00     0.064 C 
HETATM   16  N   UNL     1      42.181 -15.766   1.667  1.00  0.00    -0.128 NA
HETATM   17  N   UNL     1      41.741 -14.531   1.276  1.00  0.00    -0.122 NA
HETATM   18  H   UNL     1      43.550 -14.811   6.475  1.00  0.00     0.168 HD
ENDROOT
BRANCH   1  19
HETATM   19  S   UNL     1      41.460 -12.020   2.202  1.00  0.00    -0.080 SA
BRANCH  19  20
HETATM   20  C   UNL     1      39.701 -12.156   1.758  1.00  0.00     0.185 C 
BRANCH  20  21
HETATM   21  C   UNL     1      39.511 -11.958   0.265  1.00  0.00     0.227 C 
HETATM   22  N   UNL     1      40.672 -11.972  -0.479  1.00  0.00    -0.356 N 
HETATM   23  H   UNL     1      41.479 -12.433  -0.077  1.00  0.00     0.162 HD
HETATM   24  O   UNL     1      38.408 -11.731  -0.229  1.00  0.00    -0.273 OA
BRANCH  22  25
HETATM   25  C   UNL     1      40.613 -11.849  -1.918  1.00  0.00     0.161 C 
BRANCH  25  26
HETATM   26  C   UNL     1      41.013 -10.476  -2.392  1.00  0.00    -0.040 A 
HETATM   27  C   UNL     1      41.810  -9.655  -1.583  1.00  0.00     0.011 A 
HETATM   28  C   UNL     1      42.232  -8.404  -2.040  1.00  0.00     0.037 A 
HETATM   29  C   UNL     1      41.879  -7.953  -3.313  1.00  0.00     0.068 A 
HETATM   30  C   UNL     1      41.084  -8.762  -4.124  1.00  0.00     0.037 A 
HETATM   31  C   UNL     1      40.663 -10.017  -3.670  1.00  0.00     0.011 A 
BRANCH  29  32
HETATM   32  O   UNL     1      42.370  -6.720  -3.640  1.00  0.00    -0.356 OA
HETATM   33  C   UNL     1      43.017  -6.603  -4.901  1.00  0.00     0.210 C 
ENDBRANCH  29  32
ENDBRANCH  25  26
ENDBRANCH  22  25
ENDBRANCH  20  21
ENDBRANCH  19  20
ENDBRANCH   1  19
TORSDOF 6
ENDMDL
MODEL 10
REMARK VINA RESULT:      -8.4      3.270     10.502
REMARK  6 active torsions:
REMARK  status: ('A' for Active; 'I' for Inactive)
REMARK    1  A    between atoms: O_2  and  C_3 
REMARK    2  A    between atoms: C_6  and  C_7 
REMARK    3  A    between atoms: C_7  and  N_8 
REMARK       I    between atoms: N_8  and  C_9 
REMARK    4  A    between atoms: C_9  and  C_10 
REMARK    5  A    between atoms: C_10  and  S_11 
REMARK    6  A    between atoms: S_11  and  C_12 
ROOT
HETATM    1  C   UNL     1      42.613  -9.914   7.244  1.00  0.00     0.198 A 
HETATM    2  N   UNL     1      41.564  -9.577   8.086  1.00  0.00    -0.257 N 
HETATM    3  C   UNL     1      42.228  -9.240   9.267  1.00  0.00     0.173 A 
HETATM    4  C   UNL     1      41.462  -8.802  10.459  1.00  0.00     0.053 A 
HETATM    5  C   UNL     1      40.093  -8.775  10.306  1.00  0.00     0.090 A 
HETATM    6  S   UNL     1      39.317  -8.277  11.735  1.00  0.00    -0.075 SA
HETATM    7  C   UNL     1      40.811  -8.101  12.546  1.00  0.00    -0.008 A 
HETATM    8  C   UNL     1      41.902  -8.401  11.746  1.00  0.00    -0.028 A 
HETATM    9  C   UNL     1      43.310  -8.319  12.250  1.00  0.00     0.041 C 
HETATM   10  C   UNL     1      43.399  -7.512  13.556  1.00  0.00     0.005 C 
HETATM   11  C   UNL     1      42.289  -7.901  14.543  1.00  0.00     0.005 C 
HETATM   12  C   UNL     1      40.891  -7.630  13.965  1.00  0.00     0.047 C 
HETATM   13  N   UNL     1      39.460  -9.111   9.150  1.00  0.00    -0.336 N 
HETATM   14  C   UNL     1      40.134  -9.520   7.984  1.00  0.00     0.106 A 
HETATM   15  C   UNL     1      39.415  -9.823   6.890  1.00  0.00     0.064 C 
HETATM   16  N   UNL     1      43.526  -9.373   9.147  1.00  0.00    -0.128 NA
HETATM   17  N   UNL     1      43.767  -9.802   7.871  1.00  0.00    -0.122 NA
HETATM   18  H   UNL     1      38.446  -9.064   9.102  1.00  0.00     0.168 HD
ENDROOT
BRANCH   1  19
HETATM   19  S   UNL     1      42.477 -10.421   5.591  1.00  0.00    -0.080 SA
BRANCH  19  20
HETATM   20  C   UNL     1      43.395 -11.991   5.657  1.00  0.00     0.185 C 
BRANCH  20  21
HETATM   21  C   UNL     1      43.216 -12.768   4.366  1.00  0.00     0.227 C 
HETATM   22  N   UNL     1      42.788 -14.070   4.522  1.00  0.00    -0.356 N 
HETATM   23  H   UNL     1      42.311 -14.305   5.384  1.00  0.00     0.162 HD
HETATM   24  O   UNL     1      43.501 -12.290   3.270  1.00  0.00    -0.273 OA
BRANCH  22  25
HETATM   25  C   UNL     1      42.528 -14.893   3.363  1.00  0.00     0.161 C 
BRANCH  25  26
HETATM   26  C   UNL     1      43.076 -16.288   3.516  1.00  0.00    -0.040 A 
HETATM   27  C   UNL     1      43.538 -16.730   4.762  1.00  0.00     0.011 A 
HETATM   28  C   UNL     1      43.993 -18.041   4.925  1.00  0.00     0.037 A 
HETATM   29  C   UNL     1      43.987 -18.937   3.855  1.00  0.00     0.068 A 
HETATM   30  C   UNL     1      43.530 -18.505   2.611  1.00  0.00     0.037 A 
HETATM   31  C   UNL     1      43.070 -17.194   2.446  1.00  0.00     0.011 A 
BRANCH  29  32
HETATM   32  O   UNL     1      44.444 -20.190   4.155  1.00  0.00    -0.356 OA
HETATM   33  C   UNL     1      43.944 -20.785   5.346  1.00  0.00     0.210 C 
ENDBRANCH  29  32
ENDBRANCH  25  26
ENDBRANCH  22  25
ENDBRANCH  20  21
ENDBRANCH  19  20
ENDBRANCH   1  19
TORSDOF 6
ENDMDL
