MODEL 1
REMARK VINA RESULT:      -8.8      0.000      0.000
REMARK  14 active torsions:
REMARK  status: ('A' for Active; 'I' for Inactive)
REMARK    1  A    between atoms: C_2  and  N_3 
REMARK    2  A    between atoms: N_3  and  C_5 
REMARK    3  A    between atoms: N_3  and  C_39 
REMARK    4  A    between atoms: C_5  and  C_6 
REMARK    5  A    between atoms: C_6  and  C_7 
REMARK    6  A    between atoms: C_7  and  N_8 
REMARK    7  A    between atoms: C_11  and  O_12 
REMARK    8  A    between atoms: C_13  and  C_14 
REMARK    9  A    between atoms: C_14  and  C_15 
REMARK   10  A    between atoms: C_18  and  O_19 
REMARK   11  A    between atoms: O_19  and  C_20 
REMARK   12  A    between atoms: C_20  and  C_21 
REMARK   13  A    between atoms: C_31  and  C_32 
REMARK   14  A    between atoms: C_35  and  O_36 
ROOT
HETATM    1  N   UNL     1      41.674 -15.303   3.004  1.00  0.00    -0.333 N 
HETATM    2  C   UNL     1      40.594 -14.518   2.668  1.00  0.00     0.278 A 
HETATM    3  O   UNL     1      39.562 -14.840   2.104  1.00  0.00    -0.265 OA
HETATM    4  C   UNL     1      40.943 -13.117   2.988  1.00  0.00     0.146 A 
HETATM    5  C   UNL     1      42.154 -13.131   3.554  1.00  0.00     0.059 A 
HETATM    6  C   UNL     1      42.705 -14.519   3.681  1.00  0.00     0.161 A 
ENDROOT
BRANCH   5   7
HETATM    7  C   UNL     1      43.039 -11.995   3.881  1.00  0.00     0.193 C 
HETATM    8  O   UNL     1      43.391 -11.246   2.971  1.00  0.00    -0.287 OA
BRANCH   7   9
HETATM    9  C   UNL     1      43.462 -11.715   5.275  1.00  0.00     0.015 A 
HETATM   10  C   UNL     1      42.566 -11.308   6.269  1.00  0.00     0.018 A 
HETATM   11  C   UNL     1      43.025 -11.027   7.562  1.00  0.00     0.038 A 
HETATM   12  C   UNL     1      44.377 -11.176   7.876  1.00  0.00     0.069 A 
HETATM   13  C   UNL     1      45.258 -11.641   6.898  1.00  0.00     0.038 A 
HETATM   14  C   UNL     1      44.807 -11.909   5.604  1.00  0.00     0.018 A 
BRANCH  12  15
HETATM   15  O   UNL     1      44.949 -10.934   9.092  1.00  0.00    -0.347 OA
BRANCH  15  16
HETATM   16  C   UNL     1      44.976  -9.577   9.535  1.00  0.00     0.214 C 
BRANCH  16  17
HETATM   17  C   UNL     1      44.084  -9.442  10.746  1.00  0.00    -0.034 A 
HETATM   18  C   UNL     1      43.672 -10.569  11.469  1.00  0.00     0.010 A 
HETATM   19  C   UNL     1      42.877 -10.430  12.610  1.00  0.00     0.007 A 
HETATM   20  C   UNL     1      42.478  -9.162  13.047  1.00  0.00    -0.062 A 
HETATM   21  C   UNL     1      41.640  -8.997  14.281  1.00  0.00     0.048 C 
HETATM   22  C   UNL     1      42.890  -8.034  12.329  1.00  0.00     0.007 A 
HETATM   23  C   UNL     1      43.685  -8.173  11.190  1.00  0.00     0.010 A 
ENDBRANCH  16  17
ENDBRANCH  15  16
ENDBRANCH  12  15
ENDBRANCH   7   9
ENDBRANCH   5   7
BRANCH   4  24
HETATM   24  O   UNL     1      40.170 -12.059   2.613  1.00  0.00    -0.355 OA
HETATM   25  H   UNL     1      40.485 -11.779   1.732  1.00  0.00     0.218 HD
ENDBRANCH   4  24
BRANCH   6  26
HETATM   26  C   UNL     1      42.947 -14.969   5.110  1.00  0.00    -0.030 A 
HETATM   27  C   UNL     1      44.180 -15.498   5.536  1.00  0.00     0.012 A 
HETATM   28  C   UNL     1      44.365 -15.897   6.863  1.00  0.00     0.037 A 
HETATM   29  C   UNL     1      43.320 -15.767   7.771  1.00  0.00     0.065 A 
HETATM   30  C   UNL     1      42.096 -15.250   7.373  1.00  0.00     0.037 A 
HETATM   31  C   UNL     1      41.906 -14.857   6.048  1.00  0.00     0.012 A 
BRANCH  29  32
HETATM   32  O   UNL     1      43.455 -16.140   9.073  1.00  0.00    -0.361 OA
HETATM   33  H   UNL     1      43.261 -15.381   9.646  1.00  0.00     0.217 HD
ENDBRANCH  29  32
ENDBRANCH   6  26
BRANCH   1  34
HETATM   34  C   UNL     1      41.748 -16.759   2.929  1.00  0.00     0.129 C 
BRANCH  34  35
HETATM   35  C   UNL     1      42.861 -17.312   2.032  1.00  0.00     0.048 C 
BRANCH  35  36
HETATM   36  C   UNL     1      43.969 -17.983   2.840  1.00  0.00     0.236 C 
BRANCH  36  37
HETATM   37  N   UNL     1      43.444 -19.203   3.595  1.00  0.00    -0.072 N 
HETATM   38  H   UNL     1      42.416 -19.168   3.573  1.00  0.00     0.279 HD
BRANCH  37  39
HETATM   39  C   UNL     1      43.881 -19.188   5.051  1.00  0.00     0.230 C 
HETATM   40  C   UNL     1      44.130 -20.597   5.559  1.00  0.00     0.034 C 
ENDBRANCH  37  39
BRANCH  37  41
HETATM   41  C   UNL     1      43.867 -20.494   2.893  1.00  0.00     0.230 C 
HETATM   42  C   UNL     1      43.354 -20.530   1.463  1.00  0.00     0.034 C 
ENDBRANCH  37  41
ENDBRANCH  36  37
ENDBRANCH  35  36
ENDBRANCH  34  35
ENDBRANCH   1  34
TORSDOF 14
ENDMDL
MODEL 2
REMARK VINA RESULT:      -8.5      2.100      3.945
REMARK  14 active torsions:
REMARK  status: ('A' for Active; 'I' for Inactive)
REMARK    1  A    between atoms: C_2  and  N_3 
REMARK    2  A    between atoms: N_3  and  C_5 
REMARK    3  A    between atoms: N_3  and  C_39 
REMARK    4  A    between atoms: C_5  and  C_6 
REMARK    5  A    between atoms: C_6  and  C_7 
REMARK    6  A    between atoms: C_7  and  N_8 
REMARK    7  A    between atoms: C_11  and  O_12 
REMARK    8  A    between atoms: C_13  and  C_14 
REMARK    9  A    between atoms: C_14  and  C_15 
REMARK   10  A    between atoms: C_18  and  O_19 
REMARK   11  A    between atoms: O_19  and  C_20 
REMARK   12  A    between atoms: C_20  and  C_21 
REMARK   13  A    between atoms: C_31  and  C_32 
REMARK   14  A    between atoms: C_35  and  O_36 
ROOT
HETATM    1  N   UNL     1      40.731 -14.139   3.170  1.00  0.00    -0.333 N 
HETATM    2  C   UNL     1      39.887 -13.063   3.322  1.00  0.00     0.278 A 
HETATM    3  O   UNL     1      38.709 -12.967   3.020  1.00  0.00    -0.265 OA
HETATM    4  C   UNL     1      40.696 -11.926   3.812  1.00  0.00     0.146 A 
HETATM    5  C   UNL     1      41.940 -12.377   3.996  1.00  0.00     0.059 A 
HETATM    6  C   UNL     1      42.069 -13.835   3.674  1.00  0.00     0.161 A 
ENDROOT
BRANCH   5   7
HETATM    7  C   UNL     1      43.171 -11.614   4.286  1.00  0.00     0.193 C 
HETATM    8  O   UNL     1      43.876 -11.259   3.343  1.00  0.00    -0.287 OA
BRANCH   7   9
HETATM    9  C   UNL     1      43.540 -11.229   5.670  1.00  0.00     0.015 A 
HETATM   10  C   UNL     1      44.732 -11.641   6.276  1.00  0.00     0.018 A 
HETATM   11  C   UNL     1      45.017 -11.273   7.598  1.00  0.00     0.038 A 
HETATM   12  C   UNL     1      44.125 -10.470   8.311  1.00  0.00     0.069 A 
HETATM   13  C   UNL     1      42.966 -10.011   7.683  1.00  0.00     0.038 A 
HETATM   14  C   UNL     1      42.672 -10.387   6.371  1.00  0.00     0.018 A 
BRANCH  12  15
HETATM   15  O   UNL     1      44.284 -10.046   9.600  1.00  0.00    -0.347 OA
BRANCH  15  16
HETATM   16  C   UNL     1      43.591 -10.777  10.611  1.00  0.00     0.214 C 
BRANCH  16  17
HETATM   17  C   UNL     1      43.234  -9.836  11.737  1.00  0.00    -0.034 A 
HETATM   18  C   UNL     1      42.375 -10.238  12.767  1.00  0.00     0.010 A 
HETATM   19  C   UNL     1      42.079  -9.372  13.824  1.00  0.00     0.007 A 
HETATM   20  C   UNL     1      42.636  -8.089  13.868  1.00  0.00    -0.062 A 
HETATM   21  C   UNL     1      42.342  -7.156  15.006  1.00  0.00     0.048 C 
HETATM   22  C   UNL     1      43.498  -7.686  12.841  1.00  0.00     0.007 A 
HETATM   23  C   UNL     1      43.793  -8.552  11.786  1.00  0.00     0.010 A 
ENDBRANCH  16  17
ENDBRANCH  15  16
ENDBRANCH  12  15
ENDBRANCH   7   9
ENDBRANCH   5   7
BRANCH   4  24
HETATM   24  O   UNL     1      40.209 -10.656   3.898  1.00  0.00    -0.355 OA
HETATM   25  H   UNL     1      40.965 -10.080   4.126  1.00  0.00     0.218 HD
ENDBRANCH   4  24
BRANCH   6  26
HETATM   26  C   UNL     1      42.470 -14.705   4.851  1.00  0.00    -0.030 A 
HETATM   27  C   UNL     1      41.916 -14.540   6.134  1.00  0.00     0.012 A 
HETATM   28  C   UNL     1      42.309 -15.364   7.193  1.00  0.00     0.037 A 
HETATM   29  C   UNL     1      43.255 -16.359   6.973  1.00  0.00     0.065 A 
HETATM   30  C   UNL     1      43.817 -16.538   5.717  1.00  0.00     0.037 A 
HETATM   31  C   UNL     1      43.431 -15.712   4.661  1.00  0.00     0.012 A 
BRANCH  29  32
HETATM   32  O   UNL     1      43.666 -17.187   7.972  1.00  0.00    -0.361 OA
HETATM   33  H   UNL     1      43.120 -17.034   8.760  1.00  0.00     0.217 HD
ENDBRANCH  29  32
ENDBRANCH   6  26
BRANCH   1  34
HETATM   34  C   UNL     1      40.353 -15.494   2.779  1.00  0.00     0.129 C 
BRANCH  34  35
HETATM   35  C   UNL     1      39.853 -15.643   1.337  1.00  0.00     0.048 C 
BRANCH  35  36
HETATM   36  C   UNL     1      40.490 -14.618   0.401  1.00  0.00     0.236 C 
BRANCH  36  37
HETATM   37  N   UNL     1      39.435 -13.914  -0.450  1.00  0.00    -0.072 N 
HETATM   38  H   UNL     1      38.561 -13.885   0.092  1.00  0.00     0.279 HD
BRANCH  37  39
HETATM   39  C   UNL     1      39.160 -14.674  -1.738  1.00  0.00     0.230 C 
HETATM   40  C   UNL     1      38.108 -13.966  -2.574  1.00  0.00     0.034 C 
ENDBRANCH  37  39
BRANCH  37  41
HETATM   41  C   UNL     1      39.844 -12.467  -0.727  1.00  0.00     0.230 C 
HETATM   42  C   UNL     1      41.044 -12.069   0.116  1.00  0.00     0.034 C 
ENDBRANCH  37  41
ENDBRANCH  36  37
ENDBRANCH  35  36
ENDBRANCH  34  35
ENDBRANCH   1  34
TORSDOF 14
ENDMDL
MODEL 3
REMARK VINA RESULT:      -8.3      2.618      5.358
REMARK  14 active torsions:
REMARK  status: ('A' for Active; 'I' for Inactive)
REMARK    1  A    between atoms: C_2  and  N_3 
REMARK    2  A    between atoms: N_3  and  C_5 
REMARK    3  A    between atoms: N_3  and  C_39 
REMARK    4  A    between atoms: C_5  and  C_6 
REMARK    5  A    between atoms: C_6  and  C_7 
REMARK    6  A    between atoms: C_7  and  N_8 
REMARK    7  A    between atoms: C_11  and  O_12 
REMARK    8  A    between atoms: C_13  and  C_14 
REMARK    9  A    between atoms: C_14  and  C_15 
REMARK   10  A    between atoms: C_18  and  O_19 
REMARK   11  A    between atoms: O_19  and  C_20 
REMARK   12  A    between atoms: C_20  and  C_21 
REMARK   13  A    between atoms: C_31  and  C_32 
REMARK   14  A    between atoms: C_35  and  O_36 
ROOT
HETATM    1  N   UNL     1      40.698 -15.580   2.842  1.00  0.00    -0.333 N 
HETATM    2  C   UNL     1      41.751 -16.450   3.011  1.00  0.00     0.278 A 
HETATM    3  O   UNL     1      42.056 -17.421   2.337  1.00  0.00    -0.265 OA
HETATM    4  C   UNL     1      42.424 -16.098   4.280  1.00  0.00     0.146 A 
HETATM    5  C   UNL     1      41.807 -15.017   4.766  1.00  0.00     0.059 A 
HETATM    6  C   UNL     1      40.701 -14.543   3.872  1.00  0.00     0.161 A 
ENDROOT
BRANCH   5   7
HETATM    7  C   UNL     1      41.957 -14.379   6.090  1.00  0.00     0.193 C 
HETATM    8  O   UNL     1      41.409 -14.905   7.058  1.00  0.00    -0.287 OA
BRANCH   7   9
HETATM    9  C   UNL     1      42.785 -13.164   6.280  1.00  0.00     0.015 A 
HETATM   10  C   UNL     1      42.250 -11.872   6.244  1.00  0.00     0.018 A 
HETATM   11  C   UNL     1      43.085 -10.757   6.399  1.00  0.00     0.038 A 
HETATM   12  C   UNL     1      44.452 -10.928   6.618  1.00  0.00     0.069 A 
HETATM   13  C   UNL     1      44.973 -12.220   6.714  1.00  0.00     0.038 A 
HETATM   14  C   UNL     1      44.148 -13.333   6.546  1.00  0.00     0.018 A 
BRANCH  12  15
HETATM   15  O   UNL     1      45.369  -9.929   6.782  1.00  0.00    -0.347 OA
BRANCH  15  16
HETATM   16  C   UNL     1      46.040  -9.867   8.041  1.00  0.00     0.214 C 
BRANCH  16  17
HETATM   17  C   UNL     1      45.119  -9.229   9.054  1.00  0.00    -0.034 A 
HETATM   18  C   UNL     1      44.374  -8.087   8.733  1.00  0.00     0.010 A 
HETATM   19  C   UNL     1      43.497  -7.526   9.665  1.00  0.00     0.007 A 
HETATM   20  C   UNL     1      43.351  -8.095  10.935  1.00  0.00    -0.062 A 
HETATM   21  C   UNL     1      42.400  -7.513  11.939  1.00  0.00     0.048 C 
HETATM   22  C   UNL     1      44.092  -9.237  11.257  1.00  0.00     0.007 A 
HETATM   23  C   UNL     1      44.967  -9.799  10.326  1.00  0.00     0.010 A 
ENDBRANCH  16  17
ENDBRANCH  15  16
ENDBRANCH  12  15
ENDBRANCH   7   9
ENDBRANCH   5   7
BRANCH   4  24
HETATM   24  O   UNL     1      43.395 -16.871   4.840  1.00  0.00    -0.355 OA
HETATM   25  H   UNL     1      44.059 -17.039   4.144  1.00  0.00     0.218 HD
ENDBRANCH   4  24
BRANCH   6  26
HETATM   26  C   UNL     1      40.904 -13.149   3.308  1.00  0.00    -0.030 A 
HETATM   27  C   UNL     1      42.121 -12.738   2.731  1.00  0.00     0.012 A 
HETATM   28  C   UNL     1      42.267 -11.446   2.219  1.00  0.00     0.037 A 
HETATM   29  C   UNL     1      41.197 -10.559   2.277  1.00  0.00     0.065 A 
HETATM   30  C   UNL     1      39.990 -10.941   2.844  1.00  0.00     0.037 A 
HETATM   31  C   UNL     1      39.844 -12.228   3.362  1.00  0.00     0.012 A 
BRANCH  29  32
HETATM   32  O   UNL     1      41.293  -9.292   1.788  1.00  0.00    -0.361 OA
HETATM   33  H   UNL     1      41.532  -9.328   0.848  1.00  0.00     0.217 HD
ENDBRANCH  29  32
ENDBRANCH   6  26
BRANCH   1  34
HETATM   34  C   UNL     1      39.803 -15.510   1.691  1.00  0.00     0.129 C 
BRANCH  34  35
HETATM   35  C   UNL     1      40.441 -14.990   0.397  1.00  0.00     0.048 C 
BRANCH  35  36
HETATM   36  C   UNL     1      39.807 -13.681  -0.069  1.00  0.00     0.236 C 
BRANCH  36  37
HETATM   37  N   UNL     1      38.672 -13.936  -1.059  1.00  0.00    -0.072 N 
HETATM   38  H   UNL     1      37.933 -14.454  -0.564  1.00  0.00     0.279 HD
BRANCH  37  39
HETATM   39  C   UNL     1      39.136 -14.789  -2.230  1.00  0.00     0.230 C 
HETATM   40  C   UNL     1      38.266 -14.553  -3.452  1.00  0.00     0.034 C 
ENDBRANCH  37  39
BRANCH  37  41
HETATM   41  C   UNL     1      38.061 -12.616  -1.530  1.00  0.00     0.230 C 
HETATM   42  C   UNL     1      38.519 -11.461  -0.657  1.00  0.00     0.034 C 
ENDBRANCH  37  41
ENDBRANCH  36  37
ENDBRANCH  35  36
ENDBRANCH  34  35
ENDBRANCH   1  34
TORSDOF 14
ENDMDL
MODEL 4
REMARK VINA RESULT:      -8.1      6.031     10.018
REMARK  14 active torsions:
REMARK  status: ('A' for Active; 'I' for Inactive)
REMARK    1  A    between atoms: C_2  and  N_3 
REMARK    2  A    between atoms: N_3  and  C_5 
REMARK    3  A    between atoms: N_3  and  C_39 
REMARK    4  A    between atoms: C_5  and  C_6 
REMARK    5  A    between atoms: C_6  and  C_7 
REMARK    6  A    between atoms: C_7  and  N_8 
REMARK    7  A    between atoms: C_11  and  O_12 
REMARK    8  A    between atoms: C_13  and  C_14 
REMARK    9  A    between atoms: C_14  and  C_15 
REMARK   10  A    between atoms: C_18  and  O_19 
REMARK   11  A    between atoms: O_19  and  C_20 
REMARK   12  A    between atoms: C_20  and  C_21 
REMARK   13  A    between atoms: C_31  and  C_32 
REMARK   14  A    between atoms: C_35  and  O_36 
ROOT
HETATM    1  N   UNL     1      41.337  -8.344   8.794  1.00  0.00    -0.333 N 
HETATM    2  C   UNL     1      40.234  -9.091   9.140  1.00  0.00     0.278 A 
HETATM    3  O   UNL     1      39.136  -9.123   8.610  1.00  0.00    -0.265 OA
HETATM    4  C   UNL     1      40.547  -9.793  10.404  1.00  0.00     0.146 A 
HETATM    5  C   UNL     1      41.815  -9.502  10.713  1.00  0.00     0.059 A 
HETATM    6  C   UNL     1      42.459  -8.614   9.692  1.00  0.00     0.161 A 
ENDROOT
BRANCH   5   7
HETATM    7  C   UNL     1      42.554  -9.784  11.959  1.00  0.00     0.193 C 
HETATM    8  O   UNL     1      43.269 -10.785  12.002  1.00  0.00    -0.287 OA
BRANCH   7   9
HETATM    9  C   UNL     1      42.494  -8.868  13.125  1.00  0.00     0.015 A 
HETATM   10  C   UNL     1      43.333  -7.756  13.255  1.00  0.00     0.018 A 
HETATM   11  C   UNL     1      43.254  -6.942  14.392  1.00  0.00     0.038 A 
HETATM   12  C   UNL     1      42.320  -7.219  15.392  1.00  0.00     0.069 A 
HETATM   13  C   UNL     1      41.444  -8.293  15.230  1.00  0.00     0.038 A 
HETATM   14  C   UNL     1      41.528  -9.116  14.105  1.00  0.00     0.018 A 
BRANCH  12  15
HETATM   15  O   UNL     1      42.144  -6.507  16.545  1.00  0.00    -0.347 OA
BRANCH  15  16
HETATM   16  C   UNL     1      40.838  -6.522  17.121  1.00  0.00     0.214 C 
BRANCH  16  17
HETATM   17  C   UNL     1      40.836  -7.465  18.301  1.00  0.00    -0.034 A 
HETATM   18  C   UNL     1      42.022  -7.773  18.980  1.00  0.00     0.010 A 
HETATM   19  C   UNL     1      42.005  -8.617  20.094  1.00  0.00     0.007 A 
HETATM   20  C   UNL     1      40.802  -9.169  20.548  1.00  0.00    -0.062 A 
HETATM   21  C   UNL     1      40.766 -10.061  21.753  1.00  0.00     0.048 C 
HETATM   22  C   UNL     1      39.615  -8.860  19.874  1.00  0.00     0.007 A 
HETATM   23  C   UNL     1      39.633  -8.016  18.761  1.00  0.00     0.010 A 
ENDBRANCH  16  17
ENDBRANCH  15  16
ENDBRANCH  12  15
ENDBRANCH   7   9
ENDBRANCH   5   7
BRANCH   4  24
HETATM   24  O   UNL     1      39.612 -10.476  11.121  1.00  0.00    -0.355 OA
HETATM   25  H   UNL     1      38.983  -9.813  11.466  1.00  0.00     0.218 HD
ENDBRANCH   4  24
BRANCH   6  26
HETATM   26  C   UNL     1      43.649  -9.233   8.983  1.00  0.00    -0.030 A 
HETATM   27  C   UNL     1      43.605 -10.524   8.423  1.00  0.00     0.012 A 
HETATM   28  C   UNL     1      44.721 -11.059   7.774  1.00  0.00     0.037 A 
HETATM   29  C   UNL     1      45.886 -10.305   7.679  1.00  0.00     0.065 A 
HETATM   30  C   UNL     1      45.953  -9.032   8.225  1.00  0.00     0.037 A 
HETATM   31  C   UNL     1      44.842  -8.498   8.880  1.00  0.00     0.012 A 
BRANCH  29  32
HETATM   32  O   UNL     1      46.997 -10.783   7.053  1.00  0.00    -0.361 OA
HETATM   33  H   UNL     1      47.762 -10.689   7.643  1.00  0.00     0.217 HD
ENDBRANCH  29  32
ENDBRANCH   6  26
BRANCH   1  34
HETATM   34  C   UNL     1      41.504  -7.549   7.581  1.00  0.00     0.129 C 
BRANCH  34  35
HETATM   35  C   UNL     1      41.940  -6.096   7.807  1.00  0.00     0.048 C 
BRANCH  35  36
HETATM   36  C   UNL     1      40.765  -5.199   8.190  1.00  0.00     0.236 C 
BRANCH  36  37
HETATM   37  N   UNL     1      40.806  -4.835   9.672  1.00  0.00    -0.072 N 
HETATM   38  H   UNL     1      40.603  -3.830   9.756  1.00  0.00     0.279 HD
BRANCH  37  39
HETATM   39  C   UNL     1      42.182  -5.085  10.270  1.00  0.00     0.230 C 
HETATM   40  C   UNL     1      42.844  -3.780  10.676  1.00  0.00     0.034 C 
ENDBRANCH  37  39
BRANCH  37  41
HETATM   41  C   UNL     1      39.715  -5.582  10.441  1.00  0.00     0.230 C 
HETATM   42  C   UNL     1      40.279  -6.238  11.689  1.00  0.00     0.034 C 
ENDBRANCH  37  41
ENDBRANCH  36  37
ENDBRANCH  35  36
ENDBRANCH  34  35
ENDBRANCH   1  34
TORSDOF 14
ENDMDL
MODEL 5
REMARK VINA RESULT:      -8.0      4.032      8.139
REMARK  14 active torsions:
REMARK  status: ('A' for Active; 'I' for Inactive)
REMARK    1  A    between atoms: C_2  and  N_3 
REMARK    2  A    between atoms: N_3  and  C_5 
REMARK    3  A    between atoms: N_3  and  C_39 
REMARK    4  A    between atoms: C_5  and  C_6 
REMARK    5  A    between atoms: C_6  and  C_7 
REMARK    6  A    between atoms: C_7  and  N_8 
REMARK    7  A    between atoms: C_11  and  O_12 
REMARK    8  A    between atoms: C_13  and  C_14 
REMARK    9  A    between atoms: C_14  and  C_15 
REMARK   10  A    between atoms: C_18  and  O_19 
REMARK   11  A    between atoms: O_19  and  C_20 
REMARK   12  A    between atoms: C_20  and  C_21 
REMARK   13  A    between atoms: C_31  and  C_32 
REMARK   14  A    between atoms: C_35  and  O_36 
ROOT
HETATM    1  N   UNL     1      39.691 -10.323   2.519  1.00  0.00    -0.333 N 
HETATM    2  C   UNL     1      38.611  -9.899   3.260  1.00  0.00     0.278 A 
HETATM    3  O   UNL     1      37.640  -9.256   2.896  1.00  0.00    -0.265 OA
HETATM    4  C   UNL     1      38.877 -10.240   4.674  1.00  0.00     0.146 A 
HETATM    5  C   UNL     1      40.039 -10.900   4.709  1.00  0.00     0.059 A 
HETATM    6  C   UNL     1      40.633 -11.077   3.344  1.00  0.00     0.161 A 
ENDROOT
BRANCH   5   7
HETATM    7  C   UNL     1      40.849 -11.293   5.880  1.00  0.00     0.193 C 
HETATM    8  O   UNL     1      41.130 -10.432   6.712  1.00  0.00    -0.287 OA
BRANCH   7   9
HETATM    9  C   UNL     1      41.278 -12.696   6.094  1.00  0.00     0.015 A 
HETATM   10  C   UNL     1      42.623 -13.066   6.204  1.00  0.00     0.018 A 
HETATM   11  C   UNL     1      42.974 -14.411   6.375  1.00  0.00     0.038 A 
HETATM   12  C   UNL     1      41.984 -15.390   6.465  1.00  0.00     0.069 A 
HETATM   13  C   UNL     1      40.641 -15.011   6.416  1.00  0.00     0.038 A 
HETATM   14  C   UNL     1      40.287 -13.673   6.231  1.00  0.00     0.018 A 
BRANCH  12  15
HETATM   15  O   UNL     1      42.193 -16.730   6.629  1.00  0.00    -0.347 OA
BRANCH  15  16
HETATM   16  C   UNL     1      43.539 -17.192   6.517  1.00  0.00     0.214 C 
BRANCH  16  17
HETATM   17  C   UNL     1      43.656 -18.062   5.288  1.00  0.00    -0.034 A 
HETATM   18  C   UNL     1      43.858 -19.444   5.399  1.00  0.00     0.010 A 
HETATM   19  C   UNL     1      43.928 -20.246   4.257  1.00  0.00     0.007 A 
HETATM   20  C   UNL     1      43.800 -19.680   2.983  1.00  0.00    -0.062 A 
HETATM   21  C   UNL     1      43.856 -20.532   1.749  1.00  0.00     0.048 C 
HETATM   22  C   UNL     1      43.595 -18.301   2.870  1.00  0.00     0.007 A 
HETATM   23  C   UNL     1      43.524 -17.500   4.011  1.00  0.00     0.010 A 
ENDBRANCH  16  17
ENDBRANCH  15  16
ENDBRANCH  12  15
ENDBRANCH   7   9
ENDBRANCH   5   7
BRANCH   4  24
HETATM   24  O   UNL     1      38.095  -9.802   5.700  1.00  0.00    -0.355 OA
HETATM   25  H   UNL     1      38.592  -9.968   6.524  1.00  0.00     0.218 HD
ENDBRANCH   4  24
BRANCH   6  26
HETATM   26  C   UNL     1      40.779 -12.522   2.906  1.00  0.00    -0.030 A 
HETATM   27  C   UNL     1      42.027 -13.095   2.600  1.00  0.00     0.012 A 
HETATM   28  C   UNL     1      42.120 -14.432   2.203  1.00  0.00     0.037 A 
HETATM   29  C   UNL     1      40.967 -15.204   2.113  1.00  0.00     0.065 A 
HETATM   30  C   UNL     1      39.725 -14.659   2.407  1.00  0.00     0.037 A 
HETATM   31  C   UNL     1      39.629 -13.323   2.797  1.00  0.00     0.012 A 
BRANCH  29  32
HETATM   32  O   UNL     1      41.009 -16.511   1.734  1.00  0.00    -0.361 OA
HETATM   33  H   UNL     1      40.140 -16.773   1.390  1.00  0.00     0.217 HD
ENDBRANCH  29  32
ENDBRANCH   6  26
BRANCH   1  34
HETATM   34  C   UNL     1      39.829 -10.260   1.067  1.00  0.00     0.129 C 
BRANCH  34  35
HETATM   35  C   UNL     1      38.570 -10.628   0.274  1.00  0.00     0.048 C 
BRANCH  35  36
HETATM   36  C   UNL     1      38.900 -11.076  -1.149  1.00  0.00     0.236 C 
BRANCH  36  37
HETATM   37  N   UNL     1      39.988 -12.148  -1.154  1.00  0.00    -0.072 N 
HETATM   38  H   UNL     1      40.480 -12.102  -0.252  1.00  0.00     0.279 HD
BRANCH  37  39
HETATM   39  C   UNL     1      41.008 -11.901  -2.255  1.00  0.00     0.230 C 
HETATM   40  C   UNL     1      40.887 -10.490  -2.803  1.00  0.00     0.034 C 
ENDBRANCH  37  39
BRANCH  37  41
HETATM   41  C   UNL     1      39.370 -13.542  -1.262  1.00  0.00     0.230 C 
HETATM   42  C   UNL     1      39.728 -14.196  -2.586  1.00  0.00     0.034 C 
ENDBRANCH  37  41
ENDBRANCH  36  37
ENDBRANCH  35  36
ENDBRANCH  34  35
ENDBRANCH   1  34
TORSDOF 14
ENDMDL
MODEL 6
REMARK VINA RESULT:      -7.9      2.320      4.008
REMARK  14 active torsions:
REMARK  status: ('A' for Active; 'I' for Inactive)
REMARK    1  A    between atoms: C_2  and  N_3 
REMARK    2  A    between atoms: N_3  and  C_5 
REMARK    3  A    between atoms: N_3  and  C_39 
REMARK    4  A    between atoms: C_5  and  C_6 
REMARK    5  A    between atoms: C_6  and  C_7 
REMARK    6  A    between atoms: C_7  and  N_8 
REMARK    7  A    between atoms: C_11  and  O_12 
REMARK    8  A    between atoms: C_13  and  C_14 
REMARK    9  A    between atoms: C_14  and  C_15 
REMARK   10  A    between atoms: C_18  and  O_19 
REMARK   11  A    between atoms: O_19  and  C_20 
REMARK   12  A    between atoms: C_20  and  C_21 
REMARK   13  A    between atoms: C_31  and  C_32 
REMARK   14  A    between atoms: C_35  and  O_36 
ROOT
HETATM    1  N   UNL     1      42.967 -15.001   6.267  1.00  0.00    -0.333 N 
HETATM    2  C   UNL     1      41.706 -15.313   6.724  1.00  0.00     0.278 A 
HETATM    3  O   UNL     1      41.341 -16.296   7.348  1.00  0.00    -0.265 OA
HETATM    4  C   UNL     1      40.775 -14.288   6.203  1.00  0.00     0.146 A 
HETATM    5  C   UNL     1      41.509 -13.391   5.536  1.00  0.00     0.059 A 
HETATM    6  C   UNL     1      42.971 -13.717   5.569  1.00  0.00     0.161 A 
ENDROOT
BRANCH   5   7
HETATM    7  C   UNL     1      41.058 -12.285   4.669  1.00  0.00     0.193 C 
HETATM    8  O   UNL     1      40.678 -12.551   3.530  1.00  0.00    -0.287 OA
BRANCH   7   9
HETATM    9  C   UNL     1      41.008 -10.885   5.156  1.00  0.00     0.015 A 
HETATM   10  C   UNL     1      41.763  -9.857   4.581  1.00  0.00     0.018 A 
HETATM   11  C   UNL     1      41.700  -8.558   5.102  1.00  0.00     0.038 A 
HETATM   12  C   UNL     1      40.861  -8.273   6.180  1.00  0.00     0.069 A 
HETATM   13  C   UNL     1      40.063  -9.287   6.713  1.00  0.00     0.038 A 
HETATM   14  C   UNL     1      40.133 -10.586   6.207  1.00  0.00     0.018 A 
BRANCH  12  15
HETATM   15  O   UNL     1      40.711  -7.054   6.779  1.00  0.00    -0.347 OA
BRANCH  15  16
HETATM   16  C   UNL     1      41.903  -6.374   7.170  1.00  0.00     0.214 C 
BRANCH  16  17
HETATM   17  C   UNL     1      42.306  -6.848   8.547  1.00  0.00    -0.034 A 
HETATM   18  C   UNL     1      41.517  -6.558   9.668  1.00  0.00     0.010 A 
HETATM   19  C   UNL     1      41.878  -7.032  10.932  1.00  0.00     0.007 A 
HETATM   20  C   UNL     1      43.035  -7.802  11.098  1.00  0.00    -0.062 A 
HETATM   21  C   UNL     1      43.424  -8.332  12.447  1.00  0.00     0.048 C 
HETATM   22  C   UNL     1      43.822  -8.095   9.980  1.00  0.00     0.007 A 
HETATM   23  C   UNL     1      43.461  -7.623   8.717  1.00  0.00     0.010 A 
ENDBRANCH  16  17
ENDBRANCH  15  16
ENDBRANCH  12  15
ENDBRANCH   7   9
ENDBRANCH   5   7
BRANCH   4  24
HETATM   24  O   UNL     1      39.422 -14.394   6.315  1.00  0.00    -0.355 OA
HETATM   25  H   UNL     1      39.246 -15.179   6.871  1.00  0.00     0.218 HD
ENDBRANCH   4  24
BRANCH   6  26
HETATM   26  C   UNL     1      43.831 -12.672   6.257  1.00  0.00    -0.030 A 
HETATM   27  C   UNL     1      43.583 -12.238   7.572  1.00  0.00     0.012 A 
HETATM   28  C   UNL     1      44.400 -11.276   8.173  1.00  0.00     0.037 A 
HETATM   29  C   UNL     1      45.472 -10.747   7.463  1.00  0.00     0.065 A 
HETATM   30  C   UNL     1      45.734 -11.158   6.164  1.00  0.00     0.037 A 
HETATM   31  C   UNL     1      44.916 -12.113   5.560  1.00  0.00     0.012 A 
BRANCH  29  32
HETATM   32  O   UNL     1      46.297  -9.810   8.007  1.00  0.00    -0.361 OA
HETATM   33  H   UNL     1      45.810  -9.304   8.677  1.00  0.00     0.217 HD
ENDBRANCH  29  32
ENDBRANCH   6  26
BRANCH   1  34
HETATM   34  C   UNL     1      44.208 -15.696   6.594  1.00  0.00     0.129 C 
BRANCH  34  35
HETATM   35  C   UNL     1      44.749 -16.620   5.497  1.00  0.00     0.048 C 
BRANCH  35  36
HETATM   36  C   UNL     1      43.753 -17.719   5.130  1.00  0.00     0.236 C 
BRANCH  36  37
HETATM   37  N   UNL     1      44.366 -18.719   4.152  1.00  0.00    -0.072 N 
HETATM   38  H   UNL     1      45.365 -18.494   4.056  1.00  0.00     0.279 HD
BRANCH  37  39
HETATM   39  C   UNL     1      43.729 -18.612   2.775  1.00  0.00     0.230 C 
HETATM   40  C   UNL     1      43.356 -19.984   2.240  1.00  0.00     0.034 C 
ENDBRANCH  37  39
BRANCH  37  41
HETATM   41  C   UNL     1      44.274 -20.141   4.706  1.00  0.00     0.230 C 
HETATM   42  C   UNL     1      43.557 -20.158   6.046  1.00  0.00     0.034 C 
ENDBRANCH  37  41
ENDBRANCH  36  37
ENDBRANCH  35  36
ENDBRANCH  34  35
ENDBRANCH   1  34
TORSDOF 14
ENDMDL
MODEL 7
REMARK VINA RESULT:      -7.9      3.430     10.335
REMARK  14 active torsions:
REMARK  status: ('A' for Active; 'I' for Inactive)
REMARK    1  A    between atoms: C_2  and  N_3 
REMARK    2  A    between atoms: N_3  and  C_5 
REMARK    3  A    between atoms: N_3  and  C_39 
REMARK    4  A    between atoms: C_5  and  C_6 
REMARK    5  A    between atoms: C_6  and  C_7 
REMARK    6  A    between atoms: C_7  and  N_8 
REMARK    7  A    between atoms: C_11  and  O_12 
REMARK    8  A    between atoms: C_13  and  C_14 
REMARK    9  A    between atoms: C_14  and  C_15 
REMARK   10  A    between atoms: C_18  and  O_19 
REMARK   11  A    between atoms: O_19  and  C_20 
REMARK   12  A    between atoms: C_20  and  C_21 
REMARK   13  A    between atoms: C_31  and  C_32 
REMARK   14  A    between atoms: C_35  and  O_36 
ROOT
HETATM    1  N   UNL     1      43.145  -7.937   9.693  1.00  0.00    -0.333 N 
HETATM    2  C   UNL     1      43.582  -8.806  10.667  1.00  0.00     0.278 A 
HETATM    3  O   UNL     1      43.503  -8.695  11.880  1.00  0.00    -0.265 OA
HETATM    4  C   UNL     1      44.323  -9.896   9.997  1.00  0.00     0.146 A 
HETATM    5  C   UNL     1      44.239  -9.679   8.681  1.00  0.00     0.059 A 
HETATM    6  C   UNL     1      43.430  -8.459   8.357  1.00  0.00     0.161 A 
ENDROOT
BRANCH   5   7
HETATM    7  C   UNL     1      44.957 -10.352   7.581  1.00  0.00     0.193 C 
HETATM    8  O   UNL     1      46.131 -10.049   7.376  1.00  0.00    -0.287 OA
BRANCH   7   9
HETATM    9  C   UNL     1      44.314 -11.410   6.764  1.00  0.00     0.015 A 
HETATM   10  C   UNL     1      44.029 -11.245   5.404  1.00  0.00     0.018 A 
HETATM   11  C   UNL     1      43.392 -12.267   4.687  1.00  0.00     0.038 A 
HETATM   12  C   UNL     1      43.062 -13.468   5.317  1.00  0.00     0.069 A 
HETATM   13  C   UNL     1      43.404 -13.652   6.658  1.00  0.00     0.038 A 
HETATM   14  C   UNL     1      44.025 -12.632   7.381  1.00  0.00     0.018 A 
BRANCH  12  15
HETATM   15  O   UNL     1      42.441 -14.536   4.734  1.00  0.00    -0.347 OA
BRANCH  15  16
HETATM   16  C   UNL     1      42.452 -15.765   5.460  1.00  0.00     0.214 C 
BRANCH  16  17
HETATM   17  C   UNL     1      42.851 -16.881   4.524  1.00  0.00    -0.034 A 
HETATM   18  C   UNL     1      43.680 -17.923   4.957  1.00  0.00     0.010 A 
HETATM   19  C   UNL     1      44.014 -18.971   4.094  1.00  0.00     0.007 A 
HETATM   20  C   UNL     1      43.525 -18.994   2.783  1.00  0.00    -0.062 A 
HETATM   21  C   UNL     1      43.861 -20.122   1.852  1.00  0.00     0.048 C 
HETATM   22  C   UNL     1      42.694 -17.956   2.349  1.00  0.00     0.007 A 
HETATM   23  C   UNL     1      42.360 -16.910   3.211  1.00  0.00     0.010 A 
ENDBRANCH  16  17
ENDBRANCH  15  16
ENDBRANCH  12  15
ENDBRANCH   7   9
ENDBRANCH   5   7
BRANCH   4  24
HETATM   24  O   UNL     1      45.042 -10.829  10.680  1.00  0.00    -0.355 OA
HETATM   25  H   UNL     1      44.970 -11.664  10.177  1.00  0.00     0.218 HD
ENDBRANCH   4  24
BRANCH   6  26
HETATM   26  C   UNL     1      42.174  -8.734   7.550  1.00  0.00    -0.030 A 
HETATM   27  C   UNL     1      41.254  -9.737   7.906  1.00  0.00     0.012 A 
HETATM   28  C   UNL     1      40.107  -9.958   7.138  1.00  0.00     0.037 A 
HETATM   29  C   UNL     1      39.873  -9.175   6.013  1.00  0.00     0.065 A 
HETATM   30  C   UNL     1      40.768  -8.183   5.641  1.00  0.00     0.037 A 
HETATM   31  C   UNL     1      41.917  -7.965   6.402  1.00  0.00     0.012 A 
BRANCH  29  32
HETATM   32  O   UNL     1      38.768  -9.352   5.237  1.00  0.00    -0.361 OA
HETATM   33  H   UNL     1      39.009  -9.862   4.447  1.00  0.00     0.217 HD
ENDBRANCH  29  32
ENDBRANCH   6  26
BRANCH   1  34
HETATM   34  C   UNL     1      42.309  -6.757   9.889  1.00  0.00     0.129 C 
BRANCH  34  35
HETATM   35  C   UNL     1      40.924  -7.029  10.489  1.00  0.00     0.048 C 
BRANCH  35  36
HETATM   36  C   UNL     1      40.804  -6.498  11.916  1.00  0.00     0.236 C 
BRANCH  36  37
HETATM   37  N   UNL     1      40.440  -7.614  12.893  1.00  0.00    -0.072 N 
HETATM   38  H   UNL     1      41.283  -7.845  13.436  1.00  0.00     0.279 HD
BRANCH  37  39
HETATM   39  C   UNL     1      39.996  -8.872  12.162  1.00  0.00     0.230 C 
HETATM   40  C   UNL     1      40.301 -10.114  12.981  1.00  0.00     0.034 C 
ENDBRANCH  37  39
BRANCH  37  41
HETATM   41  C   UNL     1      39.380  -7.136  13.887  1.00  0.00     0.230 C 
HETATM   42  C   UNL     1      38.011  -7.072  13.233  1.00  0.00     0.034 C 
ENDBRANCH  37  41
ENDBRANCH  36  37
ENDBRANCH  35  36
ENDBRANCH  34  35
ENDBRANCH   1  34
TORSDOF 14
ENDMDL
MODEL 8
REMARK VINA RESULT:      -7.9      1.827      2.536
REMARK  14 active torsions:
REMARK  status: ('A' for Active; 'I' for Inactive)
REMARK    1  A    between atoms: C_2  and  N_3 
REMARK    2  A    between atoms: N_3  and  C_5 
REMARK    3  A    between atoms: N_3  and  C_39 
REMARK    4  A    between atoms: C_5  and  C_6 
REMARK    5  A    between atoms: C_6  and  C_7 
REMARK    6  A    between atoms: C_7  and  N_8 
REMARK    7  A    between atoms: C_11  and  O_12 
REMARK    8  A    between atoms: C_13  and  C_14 
REMARK    9  A    between atoms: C_14  and  C_15 
REMARK   10  A    between atoms: C_18  and  O_19 
REMARK   11  A    between atoms: O_19  and  C_20 
REMARK   12  A    between atoms: C_20  and  C_21 
REMARK   13  A    between atoms: C_31  and  C_32 
REMARK   14  A    between atoms: C_35  and  O_36 
ROOT
HETATM    1  N   UNL     1      42.006 -13.973   1.823  1.00  0.00    -0.333 N 
HETATM    2  C   UNL     1      40.896 -14.085   1.017  1.00  0.00     0.278 A 
HETATM    3  O   UNL     1      40.772 -14.696  -0.032  1.00  0.00    -0.265 OA
HETATM    4  C   UNL     1      39.851 -13.195   1.568  1.00  0.00     0.146 A 
HETATM    5  C   UNL     1      40.340 -12.659   2.691  1.00  0.00     0.059 A 
HETATM    6  C   UNL     1      41.723 -13.150   2.998  1.00  0.00     0.161 A 
ENDROOT
BRANCH   5   7
HETATM    7  C   UNL     1      39.787 -11.568   3.516  1.00  0.00     0.193 C 
HETATM    8  O   UNL     1      38.602 -11.269   3.375  1.00  0.00    -0.287 OA
BRANCH   7   9
HETATM    9  C   UNL     1      40.608 -10.870   4.536  1.00  0.00     0.015 A 
HETATM   10  C   UNL     1      41.684 -10.041   4.200  1.00  0.00     0.018 A 
HETATM   11  C   UNL     1      42.445  -9.430   5.206  1.00  0.00     0.038 A 
HETATM   12  C   UNL     1      42.119  -9.622   6.549  1.00  0.00     0.069 A 
HETATM   13  C   UNL     1      41.008 -10.400   6.878  1.00  0.00     0.038 A 
HETATM   14  C   UNL     1      40.255 -11.023   5.880  1.00  0.00     0.018 A 
BRANCH  12  15
HETATM   15  O   UNL     1      42.779  -9.088   7.619  1.00  0.00    -0.347 OA
BRANCH  15  16
HETATM   16  C   UNL     1      43.282 -10.004   8.591  1.00  0.00     0.214 C 
BRANCH  16  17
HETATM   17  C   UNL     1      43.166  -9.376   9.960  1.00  0.00    -0.034 A 
HETATM   18  C   UNL     1      43.253 -10.155  11.121  1.00  0.00     0.010 A 
HETATM   19  C   UNL     1      43.181  -9.560  12.383  1.00  0.00     0.007 A 
HETATM   20  C   UNL     1      43.019  -8.176  12.507  1.00  0.00    -0.062 A 
HETATM   21  C   UNL     1      42.958  -7.521  13.856  1.00  0.00     0.048 C 
HETATM   22  C   UNL     1      42.934  -7.394  11.349  1.00  0.00     0.007 A 
HETATM   23  C   UNL     1      43.007  -7.989  10.088  1.00  0.00     0.010 A 
ENDBRANCH  16  17
ENDBRANCH  15  16
ENDBRANCH  12  15
ENDBRANCH   7   9
ENDBRANCH   5   7
BRANCH   4  24
HETATM   24  O   UNL     1      38.688 -12.927   0.912  1.00  0.00    -0.355 OA
HETATM   25  H   UNL     1      38.127 -13.723   0.997  1.00  0.00     0.218 HD
ENDBRANCH   4  24
BRANCH   6  26
HETATM   26  C   UNL     1      41.840 -13.919   4.301  1.00  0.00    -0.030 A 
HETATM   27  C   UNL     1      42.873 -13.681   5.227  1.00  0.00     0.012 A 
HETATM   28  C   UNL     1      42.945 -14.407   6.419  1.00  0.00     0.037 A 
HETATM   29  C   UNL     1      41.983 -15.373   6.692  1.00  0.00     0.065 A 
HETATM   30  C   UNL     1      40.958 -15.628   5.793  1.00  0.00     0.037 A 
HETATM   31  C   UNL     1      40.888 -14.908   4.599  1.00  0.00     0.012 A 
BRANCH  29  32
HETATM   32  O   UNL     1      42.010 -16.104   7.841  1.00  0.00    -0.361 OA
HETATM   33  H   UNL     1      41.326 -15.775   8.447  1.00  0.00     0.217 HD
ENDBRANCH  29  32
ENDBRANCH   6  26
BRANCH   1  34
HETATM   34  C   UNL     1      43.250 -14.726   1.701  1.00  0.00     0.129 C 
BRANCH  34  35
HETATM   35  C   UNL     1      43.099 -16.251   1.752  1.00  0.00     0.048 C 
BRANCH  35  36
HETATM   36  C   UNL     1      43.606 -16.834   3.070  1.00  0.00     0.236 C 
BRANCH  36  37
HETATM   37  N   UNL     1      44.096 -18.269   2.890  1.00  0.00    -0.072 N 
HETATM   38  H   UNL     1      44.922 -18.245   2.277  1.00  0.00     0.279 HD
BRANCH  37  39
HETATM   39  C   UNL     1      43.043 -19.137   2.219  1.00  0.00     0.230 C 
HETATM   40  C   UNL     1      43.623 -20.480   1.811  1.00  0.00     0.034 C 
ENDBRANCH  37  39
BRANCH  37  41
HETATM   41  C   UNL     1      44.542 -18.858   4.228  1.00  0.00     0.230 C 
HETATM   42  C   UNL     1      43.717 -18.296   5.373  1.00  0.00     0.034 C 
ENDBRANCH  37  41
ENDBRANCH  36  37
ENDBRANCH  35  36
ENDBRANCH  34  35
ENDBRANCH   1  34
TORSDOF 14
ENDMDL
MODEL 9
REMARK VINA RESULT:      -7.9      2.883      5.446
REMARK  14 active torsions:
REMARK  status: ('A' for Active; 'I' for Inactive)
REMARK    1  A    between atoms: C_2  and  N_3 
REMARK    2  A    between atoms: N_3  and  C_5 
REMARK    3  A    between atoms: N_3  and  C_39 
REMARK    4  A    between atoms: C_5  and  C_6 
REMARK    5  A    between atoms: C_6  and  C_7 
REMARK    6  A    between atoms: C_7  and  N_8 
REMARK    7  A    between atoms: C_11  and  O_12 
REMARK    8  A    between atoms: C_13  and  C_14 
REMARK    9  A    between atoms: C_14  and  C_15 
REMARK   10  A    between atoms: C_18  and  O_19 
REMARK   11  A    between atoms: O_19  and  C_20 
REMARK   12  A    between atoms: C_20  and  C_21 
REMARK   13  A    between atoms: C_31  and  C_32 
REMARK   14  A    between atoms: C_35  and  O_36 
ROOT
HETATM    1  N   UNL     1      40.449 -15.158   2.381  1.00  0.00    -0.333 N 
HETATM    2  C   UNL     1      41.444 -16.008   2.808  1.00  0.00     0.278 A 
HETATM    3  O   UNL     1      41.905 -16.988   2.246  1.00  0.00    -0.265 OA
HETATM    4  C   UNL     1      41.803 -15.619   4.189  1.00  0.00     0.146 A 
HETATM    5  C   UNL     1      41.080 -14.537   4.494  1.00  0.00     0.059 A 
HETATM    6  C   UNL     1      40.205 -14.099   3.359  1.00  0.00     0.161 A 
ENDROOT
BRANCH   5   7
HETATM    7  C   UNL     1      40.915 -13.870   5.801  1.00  0.00     0.193 C 
HETATM    8  O   UNL     1      39.957 -14.189   6.505  1.00  0.00    -0.287 OA
BRANCH   7   9
HETATM    9  C   UNL     1      41.896 -12.874   6.297  1.00  0.00     0.015 A 
HETATM   10  C   UNL     1      43.176 -13.229   6.735  1.00  0.00     0.018 A 
HETATM   11  C   UNL     1      44.052 -12.250   7.223  1.00  0.00     0.038 A 
HETATM   12  C   UNL     1      43.664 -10.909   7.249  1.00  0.00     0.069 A 
HETATM   13  C   UNL     1      42.409 -10.551   6.753  1.00  0.00     0.038 A 
HETATM   14  C   UNL     1      41.527 -11.525   6.280  1.00  0.00     0.018 A 
BRANCH  12  15
HETATM   15  O   UNL     1      44.420  -9.864   7.699  1.00  0.00    -0.347 OA
BRANCH  15  16
HETATM   16  C   UNL     1      45.223 -10.099   8.855  1.00  0.00     0.214 C 
BRANCH  16  17
HETATM   17  C   UNL     1      44.396  -9.825  10.089  1.00  0.00    -0.034 A 
HETATM   18  C   UNL     1      44.030 -10.862  10.957  1.00  0.00     0.010 A 
HETATM   19  C   UNL     1      43.296 -10.592  12.115  1.00  0.00     0.007 A 
HETATM   20  C   UNL     1      42.912  -9.283  12.424  1.00  0.00    -0.062 A 
HETATM   21  C   UNL     1      42.139  -8.977  13.674  1.00  0.00     0.048 C 
HETATM   22  C   UNL     1      43.278  -8.245  11.560  1.00  0.00     0.007 A 
HETATM   23  C   UNL     1      44.013  -8.514  10.404  1.00  0.00     0.010 A 
ENDBRANCH  16  17
ENDBRANCH  15  16
ENDBRANCH  12  15
ENDBRANCH   7   9
ENDBRANCH   5   7
BRANCH   4  24
HETATM   24  O   UNL     1      42.626 -16.365   4.976  1.00  0.00    -0.355 OA
HETATM   25  H   UNL     1      42.228 -17.256   5.035  1.00  0.00     0.218 HD
ENDBRANCH   4  24
BRANCH   6  26
HETATM   26  C   UNL     1      40.518 -12.714   2.823  1.00  0.00    -0.030 A 
HETATM   27  C   UNL     1      39.512 -11.783   2.505  1.00  0.00     0.012 A 
HETATM   28  C   UNL     1      39.841 -10.515   2.017  1.00  0.00     0.037 A 
HETATM   29  C   UNL     1      41.178 -10.171   1.849  1.00  0.00     0.065 A 
HETATM   30  C   UNL     1      42.187 -11.073   2.153  1.00  0.00     0.037 A 
HETATM   31  C   UNL     1      41.860 -12.342   2.633  1.00  0.00     0.012 A 
BRANCH  29  32
HETATM   32  O   UNL     1      41.547  -8.947   1.379  1.00  0.00    -0.361 OA
HETATM   33  H   UNL     1      42.361  -9.035   0.858  1.00  0.00     0.217 HD
ENDBRANCH  29  32
ENDBRANCH   6  26
BRANCH   1  34
HETATM   34  C   UNL     1      39.842 -15.125   1.054  1.00  0.00     0.129 C 
BRANCH  34  35
HETATM   35  C   UNL     1      40.759 -14.634  -0.073  1.00  0.00     0.048 C 
BRANCH  35  36
HETATM   36  C   UNL     1      40.177 -13.422  -0.798  1.00  0.00     0.236 C 
BRANCH  36  37
HETATM   37  N   UNL     1      40.377 -13.531  -2.308  1.00  0.00    -0.072 N 
HETATM   38  H   UNL     1      40.866 -14.415  -2.498  1.00  0.00     0.279 HD
BRANCH  37  39
HETATM   39  C   UNL     1      41.240 -12.396  -2.839  1.00  0.00     0.230 C 
HETATM   40  C   UNL     1      40.422 -11.130  -3.021  1.00  0.00     0.034 C 
ENDBRANCH  37  39
BRANCH  37  41
HETATM   41  C   UNL     1      39.028 -13.596  -3.026  1.00  0.00     0.230 C 
HETATM   42  C   UNL     1      38.512 -15.023  -3.088  1.00  0.00     0.034 C 
ENDBRANCH  37  41
ENDBRANCH  36  37
ENDBRANCH  35  36
ENDBRANCH  34  35
ENDBRANCH   1  34
TORSDOF 14
ENDMDL
MODEL 10
REMARK VINA RESULT:      -7.6      4.097     11.355
REMARK  14 active torsions:
REMARK  status: ('A' for Active; 'I' for Inactive)
REMARK    1  A    between atoms: C_2  and  N_3 
REMARK    2  A    between atoms: N_3  and  C_5 
REMARK    3  A    between atoms: N_3  and  C_39 
REMARK    4  A    between atoms: C_5  and  C_6 
REMARK    5  A    between atoms: C_6  and  C_7 
REMARK    6  A    between atoms: C_7  and  N_8 
REMARK    7  A    between atoms: C_11  and  O_12 
REMARK    8  A    between atoms: C_13  and  C_14 
REMARK    9  A    between atoms: C_14  and  C_15 
REMARK   10  A    between atoms: C_18  and  O_19 
REMARK   11  A    between atoms: O_19  and  C_20 
REMARK   12  A    between atoms: C_20  and  C_21 
REMARK   13  A    between atoms: C_31  and  C_32 
REMARK   14  A    between atoms: C_35  and  O_36 
ROOT
HETATM    1  N   UNL     1      42.849  -8.125  11.630  1.00  0.00    -0.333 N 
HETATM    2  C   UNL     1      42.815  -9.425  12.081  1.00  0.00     0.278 A 
HETATM    3  O   UNL     1      42.505  -9.843  13.185  1.00  0.00    -0.265 OA
HETATM    4  C   UNL     1      43.369 -10.285  11.013  1.00  0.00     0.146 A 
HETATM    5  C   UNL     1      43.636  -9.494   9.969  1.00  0.00     0.059 A 
HETATM    6  C   UNL     1      43.271  -8.064  10.232  1.00  0.00     0.161 A 
ENDROOT
BRANCH   5   7
HETATM    7  C   UNL     1      44.374  -9.810   8.730  1.00  0.00     0.193 C 
HETATM    8  O   UNL     1      45.535  -9.418   8.624  1.00  0.00    -0.287 OA
BRANCH   7   9
HETATM    9  C   UNL     1      43.767 -10.623   7.648  1.00  0.00     0.015 A 
HETATM   10  C   UNL     1      42.820 -10.107   6.756  1.00  0.00     0.018 A 
HETATM   11  C   UNL     1      42.256 -10.930   5.772  1.00  0.00     0.038 A 
HETATM   12  C   UNL     1      42.654 -12.262   5.656  1.00  0.00     0.069 A 
HETATM   13  C   UNL     1      43.643 -12.757   6.508  1.00  0.00     0.038 A 
HETATM   14  C   UNL     1      44.198 -11.945   7.500  1.00  0.00     0.018 A 
BRANCH  12  15
HETATM   15  O   UNL     1      42.182 -13.164   4.746  1.00  0.00    -0.347 OA
BRANCH  15  16
HETATM   16  C   UNL     1      42.929 -13.315   3.539  1.00  0.00     0.214 C 
BRANCH  16  17
HETATM   17  C   UNL     1      43.037 -14.785   3.212  1.00  0.00    -0.034 A 
HETATM   18  C   UNL     1      42.984 -15.754   4.222  1.00  0.00     0.010 A 
HETATM   19  C   UNL     1      43.048 -17.115   3.906  1.00  0.00     0.007 A 
HETATM   20  C   UNL     1      43.168 -17.529   2.575  1.00  0.00    -0.062 A 
HETATM   21  C   UNL     1      43.219 -18.986   2.220  1.00  0.00     0.048 C 
HETATM   22  C   UNL     1      43.217 -16.563   1.563  1.00  0.00     0.007 A 
HETATM   23  C   UNL     1      43.153 -15.205   1.879  1.00  0.00     0.010 A 
ENDBRANCH  16  17
ENDBRANCH  15  16
ENDBRANCH  12  15
ENDBRANCH   7   9
ENDBRANCH   5   7
BRANCH   4  24
HETATM   24  O   UNL     1      43.648 -11.605  11.198  1.00  0.00    -0.355 OA
HETATM   25  H   UNL     1      43.508 -12.046  10.337  1.00  0.00     0.218 HD
ENDBRANCH   4  24
BRANCH   6  26
HETATM   26  C   UNL     1      42.196  -7.512   9.313  1.00  0.00    -0.030 A 
HETATM   27  C   UNL     1      40.965  -8.165   9.116  1.00  0.00     0.012 A 
HETATM   28  C   UNL     1      39.998  -7.623   8.264  1.00  0.00     0.037 A 
HETATM   29  C   UNL     1      40.257  -6.424   7.608  1.00  0.00     0.065 A 
HETATM   30  C   UNL     1      41.464  -5.765   7.785  1.00  0.00     0.037 A 
HETATM   31  C   UNL     1      42.433  -6.308   8.629  1.00  0.00     0.012 A 
BRANCH  29  32
HETATM   32  O   UNL     1      39.345  -5.857   6.771  1.00  0.00    -0.361 OA
HETATM   33  H   UNL     1      39.653  -4.974   6.511  1.00  0.00     0.217 HD
ENDBRANCH  29  32
ENDBRANCH   6  26
BRANCH   1  34
HETATM   34  C   UNL     1      42.333  -6.949  12.324  1.00  0.00     0.129 C 
BRANCH  34  35
HETATM   35  C   UNL     1      40.824  -6.960  12.596  1.00  0.00     0.048 C 
BRANCH  35  36
HETATM   36  C   UNL     1      40.512  -7.026  14.090  1.00  0.00     0.236 C 
BRANCH  36  37
HETATM   37  N   UNL     1      41.357  -6.026  14.877  1.00  0.00    -0.072 N 
HETATM   38  H   UNL     1      42.077  -5.655  14.244  1.00  0.00     0.279 HD
BRANCH  37  39
HETATM   39  C   UNL     1      42.062  -6.693  16.048  1.00  0.00     0.230 C 
HETATM   40  C   UNL     1      41.188  -7.767  16.671  1.00  0.00     0.034 C 
ENDBRANCH  37  39
BRANCH  37  41
HETATM   41  C   UNL     1      40.504  -4.842  15.334  1.00  0.00     0.230 C 
HETATM   42  C   UNL     1      41.236  -4.011  16.374  1.00  0.00     0.034 C 
ENDBRANCH  37  41
ENDBRANCH  36  37
ENDBRANCH  35  36
ENDBRANCH  34  35
ENDBRANCH   1  34
TORSDOF 14
ENDMDL
