MODEL 1
REMARK VINA RESULT:      -9.1      0.000      0.000
REMARK  8 active torsions:
REMARK  status: ('A' for Active; 'I' for Inactive)
REMARK    1  A    between atoms: C_2  and  O_3 
REMARK    2  A    between atoms: O_3  and  C_4 
REMARK    3  A    between atoms: C_5  and  N_6 
REMARK       I    between atoms: N_6  and  C_7 
REMARK    4  A    between atoms: C_7  and  C_8 
REMARK    5  A    between atoms: C_8  and  C_9 
REMARK    6  A    between atoms: C_9  and  S_10 
REMARK    7  A    between atoms: S_10  and  C_11 
REMARK    8  A    between atoms: N_12  and  C_13 
ROOT
HETATM    1  C   UNL     1      43.537 -12.378   6.804  1.00  0.00     0.177 A 
HETATM    2  N   UNL     1      42.634 -11.394   6.339  1.00  0.00    -0.274 N 
HETATM    3  C   UNL     1      42.744 -10.065   6.894  1.00  0.00     0.124 A 
HETATM    4  N   UNL     1      41.986  -9.055   6.514  1.00  0.00    -0.384 N 
HETATM    5  H   UNL     1      42.099  -8.139   6.924  1.00  0.00     0.157 HD
HETATM    6  H   UNL     1      41.276  -9.181   5.804  1.00  0.00     0.157 HD
HETATM    7  C   UNL     1      43.753  -9.874   7.887  1.00  0.00     0.081 A 
HETATM    8  C   UNL     1      44.569 -10.948   8.220  1.00  0.00     0.187 A 
HETATM    9  N   UNL     1      45.459 -10.643   9.153  1.00  0.00    -0.153 NA
HETATM   10  N   UNL     1      45.201  -9.350   9.419  1.00  0.00    -0.280 N 
HETATM   11  H   UNL     1      45.769  -8.888  10.124  1.00  0.00     0.189 HD
HETATM   12  C   UNL     1      44.160  -8.825   8.679  1.00  0.00     0.042 A 
HETATM   13  C   UNL     1      43.717  -7.426   8.852  1.00  0.00     0.071 C 
HETATM   14  N   UNL     1      44.484 -12.222   7.681  1.00  0.00    -0.202 NA
ENDROOT
BRANCH   1  15
HETATM   15  S   UNL     1      43.422 -14.039   6.142  1.00  0.00    -0.091 SA
BRANCH  15  16
HETATM   16  C   UNL     1      43.065 -14.995   7.661  1.00  0.00     0.091 C 
BRANCH  16  17
HETATM   17  C   UNL     1      43.674 -16.390   7.604  1.00  0.00     0.113 C 
BRANCH  17  18
HETATM   18  C   UNL     1      43.103 -17.215   6.466  1.00  0.00     0.223 C 
HETATM   19  N   UNL     1      44.070 -17.866   5.733  1.00  0.00    -0.325 N 
HETATM   20  H   UNL     1      45.037 -17.748   6.022  1.00  0.00     0.169 HD
HETATM   21  O   UNL     1      41.893 -17.239   6.262  1.00  0.00    -0.273 OA
BRANCH  19  22
HETATM   22  C   UNL     1      43.893 -18.728   4.629  1.00  0.00     0.068 A 
HETATM   23  C   UNL     1      43.583 -18.141   3.391  1.00  0.00     0.095 A 
HETATM   24  C   UNL     1      43.452 -18.911   2.234  1.00  0.00     0.039 A 
HETATM   25  C   UNL     1      43.589 -20.294   2.312  1.00  0.00     0.003 A 
HETATM   26  C   UNL     1      43.866 -20.894   3.540  1.00  0.00     0.002 A 
HETATM   27  C   UNL     1      44.020 -20.116   4.694  1.00  0.00     0.032 A 
BRANCH  23  28
HETATM   28  O   UNL     1      43.423 -16.779   3.282  1.00  0.00    -0.349 OA
BRANCH  28  29
HETATM   29  C   UNL     1      43.297 -16.400   1.903  1.00  0.00     0.171 C 
HETATM   30  C   UNL     1      43.353 -14.887   1.811  1.00  0.00     0.034 C 
ENDBRANCH  28  29
ENDBRANCH  23  28
ENDBRANCH  19  22
ENDBRANCH  17  18
ENDBRANCH  16  17
ENDBRANCH  15  16
ENDBRANCH   1  15
BRANCH   2  31
HETATM   31  C   UNL     1      41.570 -11.718   5.441  1.00  0.00     0.065 A 
HETATM   32  C   UNL     1      41.762 -11.728   4.044  1.00  0.00     0.061 A 
HETATM   33 CL   UNL     1      43.278 -11.288   3.342  1.00  0.00    -0.082 Cl
HETATM   34  C   UNL     1      40.727 -12.110   3.186  1.00  0.00     0.026 A 
HETATM   35  C   UNL     1      39.491 -12.484   3.710  1.00  0.00     0.002 A 
HETATM   36  C   UNL     1      39.286 -12.479   5.089  1.00  0.00     0.002 A 
HETATM   37  C   UNL     1      40.319 -12.103   5.951  1.00  0.00     0.032 A 
ENDBRANCH   2  31
TORSDOF 8
ENDMDL
MODEL 2
REMARK VINA RESULT:      -8.5      3.099      7.520
REMARK  8 active torsions:
REMARK  status: ('A' for Active; 'I' for Inactive)
REMARK    1  A    between atoms: C_2  and  O_3 
REMARK    2  A    between atoms: O_3  and  C_4 
REMARK    3  A    between atoms: C_5  and  N_6 
REMARK       I    between atoms: N_6  and  C_7 
REMARK    4  A    between atoms: C_7  and  C_8 
REMARK    5  A    between atoms: C_8  and  C_9 
REMARK    6  A    between atoms: C_9  and  S_10 
REMARK    7  A    between atoms: S_10  and  C_11 
REMARK    8  A    between atoms: N_12  and  C_13 
ROOT
HETATM    1  C   UNL     1      40.776 -14.387   4.859  1.00  0.00     0.177 A 
HETATM    2  N   UNL     1      41.193 -15.146   3.741  1.00  0.00    -0.274 N 
HETATM    3  C   UNL     1      42.003 -16.316   3.988  1.00  0.00     0.124 A 
HETATM    4  N   UNL     1      42.420 -17.125   3.033  1.00  0.00    -0.384 N 
HETATM    5  H   UNL     1      42.980 -17.937   3.249  1.00  0.00     0.157 HD
HETATM    6  H   UNL     1      42.186 -16.945   2.066  1.00  0.00     0.157 HD
HETATM    7  C   UNL     1      42.326 -16.587   5.353  1.00  0.00     0.081 A 
HETATM    8  C   UNL     1      41.821 -15.744   6.335  1.00  0.00     0.187 A 
HETATM    9  N   UNL     1      42.195 -16.100   7.555  1.00  0.00    -0.153 NA
HETATM   10  N   UNL     1      42.956 -17.189   7.343  1.00  0.00    -0.280 N 
HETATM   11  H   UNL     1      43.367 -17.646   8.152  1.00  0.00     0.189 HD
HETATM   12  C   UNL     1      43.079 -17.532   6.011  1.00  0.00     0.042 A 
HETATM   13  C   UNL     1      43.896 -18.687   5.583  1.00  0.00     0.071 C 
HETATM   14  N   UNL     1      41.029 -14.630   6.111  1.00  0.00    -0.202 NA
ENDROOT
BRANCH   1  15
HETATM   15  S   UNL     1      39.778 -12.924   4.587  1.00  0.00    -0.091 SA
BRANCH  15  16
HETATM   16  C   UNL     1      39.685 -12.246   6.283  1.00  0.00     0.091 C 
BRANCH  16  17
HETATM   17  C   UNL     1      39.831 -10.729   6.292  1.00  0.00     0.113 C 
BRANCH  17  18
HETATM   18  C   UNL     1      41.283 -10.296   6.207  1.00  0.00     0.223 C 
HETATM   19  N   UNL     1      42.129 -11.096   6.942  1.00  0.00    -0.325 N 
HETATM   20  H   UNL     1      41.719 -11.879   7.442  1.00  0.00     0.169 HD
HETATM   21  O   UNL     1      41.599  -9.310   5.547  1.00  0.00    -0.273 OA
BRANCH  19  22
HETATM   22  C   UNL     1      43.531 -10.995   7.069  1.00  0.00     0.068 A 
HETATM   23  C   UNL     1      44.038 -10.451   8.262  1.00  0.00     0.095 A 
HETATM   24  C   UNL     1      45.411 -10.371   8.499  1.00  0.00     0.039 A 
HETATM   25  C   UNL     1      46.302 -10.798   7.518  1.00  0.00     0.003 A 
HETATM   26  C   UNL     1      45.815 -11.310   6.316  1.00  0.00     0.002 A 
HETATM   27  C   UNL     1      44.436 -11.410   6.092  1.00  0.00     0.032 A 
BRANCH  23  28
HETATM   28  O   UNL     1      43.185 -10.004   9.245  1.00  0.00    -0.349 OA
BRANCH  28  29
HETATM   29  C   UNL     1      43.682 -10.372  10.541  1.00  0.00     0.171 C 
HETATM   30  C   UNL     1      43.588  -9.164  11.454  1.00  0.00     0.034 C 
ENDBRANCH  28  29
ENDBRANCH  23  28
ENDBRANCH  19  22
ENDBRANCH  17  18
ENDBRANCH  16  17
ENDBRANCH  15  16
ENDBRANCH   1  15
BRANCH   2  31
HETATM   31  C   UNL     1      40.930 -14.716   2.403  1.00  0.00     0.065 A 
HETATM   32  C   UNL     1      41.678 -13.685   1.799  1.00  0.00     0.061 A 
HETATM   33 CL   UNL     1      42.911 -12.843   2.668  1.00  0.00    -0.082 Cl
HETATM   34  C   UNL     1      41.448 -13.324   0.469  1.00  0.00     0.026 A 
HETATM   35  C   UNL     1      40.470 -13.985  -0.273  1.00  0.00     0.002 A 
HETATM   36  C   UNL     1      39.722 -15.007   0.311  1.00  0.00     0.002 A 
HETATM   37  C   UNL     1      39.952 -15.375   1.639  1.00  0.00     0.032 A 
ENDBRANCH   2  31
TORSDOF 8
ENDMDL
MODEL 3
REMARK VINA RESULT:      -8.5      1.753      2.730
REMARK  8 active torsions:
REMARK  status: ('A' for Active; 'I' for Inactive)
REMARK    1  A    between atoms: C_2  and  O_3 
REMARK    2  A    between atoms: O_3  and  C_4 
REMARK    3  A    between atoms: C_5  and  N_6 
REMARK       I    between atoms: N_6  and  C_7 
REMARK    4  A    between atoms: C_7  and  C_8 
REMARK    5  A    between atoms: C_8  and  C_9 
REMARK    6  A    between atoms: C_9  and  S_10 
REMARK    7  A    between atoms: S_10  and  C_11 
REMARK    8  A    between atoms: N_12  and  C_13 
ROOT
HETATM    1  C   UNL     1      43.591 -11.362   5.069  1.00  0.00     0.177 A 
HETATM    2  N   UNL     1      42.448 -10.686   5.554  1.00  0.00    -0.274 N 
HETATM    3  C   UNL     1      42.522 -10.098   6.871  1.00  0.00     0.124 A 
HETATM    4  N   UNL     1      41.538  -9.410   7.416  1.00  0.00    -0.384 N 
HETATM    5  H   UNL     1      41.633  -9.010   8.338  1.00  0.00     0.157 HD
HETATM    6  H   UNL     1      40.668  -9.272   6.918  1.00  0.00     0.157 HD
HETATM    7  C   UNL     1      43.753 -10.275   7.576  1.00  0.00     0.081 A 
HETATM    8  C   UNL     1      44.787 -10.957   6.945  1.00  0.00     0.187 A 
HETATM    9  N   UNL     1      45.869 -11.056   7.704  1.00  0.00    -0.153 NA
HETATM   10  N   UNL     1      45.513 -10.427   8.839  1.00  0.00    -0.280 N 
HETATM   11  H   UNL     1      46.198 -10.378   9.588  1.00  0.00     0.189 HD
HETATM   12  C   UNL     1      44.224  -9.933   8.822  1.00  0.00     0.042 A 
HETATM   13  C   UNL     1      43.650  -9.233   9.990  1.00  0.00     0.071 C 
HETATM   14  N   UNL     1      44.731 -11.509   5.676  1.00  0.00    -0.202 NA
ENDROOT
BRANCH   1  15
HETATM   15  S   UNL     1      43.528 -12.111   3.443  1.00  0.00    -0.091 SA
BRANCH  15  16
HETATM   16  C   UNL     1      43.151 -13.849   3.874  1.00  0.00     0.091 C 
BRANCH  16  17
HETATM   17  C   UNL     1      42.416 -14.562   2.746  1.00  0.00     0.113 C 
BRANCH  17  18
HETATM   18  C   UNL     1      42.218 -16.038   3.038  1.00  0.00     0.223 C 
HETATM   19  N   UNL     1      43.391 -16.759   2.991  1.00  0.00    -0.325 N 
HETATM   20  H   UNL     1      44.247 -16.251   2.789  1.00  0.00     0.169 HD
HETATM   21  O   UNL     1      41.097 -16.482   3.264  1.00  0.00    -0.273 OA
BRANCH  19  22
HETATM   22  C   UNL     1      43.575 -18.138   3.232  1.00  0.00     0.068 A 
HETATM   23  C   UNL     1      44.022 -18.519   4.509  1.00  0.00     0.095 A 
HETATM   24  C   UNL     1      44.172 -19.863   4.855  1.00  0.00     0.039 A 
HETATM   25  C   UNL     1      43.915 -20.848   3.905  1.00  0.00     0.003 A 
HETATM   26  C   UNL     1      43.502 -20.484   2.624  1.00  0.00     0.002 A 
HETATM   27  C   UNL     1      43.330 -19.135   2.288  1.00  0.00     0.032 A 
BRANCH  23  28
HETATM   28  O   UNL     1      44.301 -17.571   5.465  1.00  0.00    -0.349 OA
BRANCH  28  29
HETATM   29  C   UNL     1      43.406 -17.709   6.580  1.00  0.00     0.171 C 
HETATM   30  C   UNL     1      42.596 -16.433   6.710  1.00  0.00     0.034 C 
ENDBRANCH  28  29
ENDBRANCH  23  28
ENDBRANCH  19  22
ENDBRANCH  17  18
ENDBRANCH  16  17
ENDBRANCH  15  16
ENDBRANCH   1  15
BRANCH   2  31
HETATM   31  C   UNL     1      41.217 -10.679   4.827  1.00  0.00     0.065 A 
HETATM   32  C   UNL     1      40.241 -11.679   5.018  1.00  0.00     0.061 A 
HETATM   33 CL   UNL     1      40.511 -13.001   6.098  1.00  0.00    -0.082 Cl
HETATM   34  C   UNL     1      39.019 -11.619   4.346  1.00  0.00     0.026 A 
HETATM   35  C   UNL     1      38.755 -10.564   3.473  1.00  0.00     0.002 A 
HETATM   36  C   UNL     1      39.710  -9.568   3.274  1.00  0.00     0.002 A 
HETATM   37  C   UNL     1      40.932  -9.621   3.948  1.00  0.00     0.032 A 
ENDBRANCH   2  31
TORSDOF 8
ENDMDL
MODEL 4
REMARK VINA RESULT:      -8.3      3.172      5.471
REMARK  8 active torsions:
REMARK  status: ('A' for Active; 'I' for Inactive)
REMARK    1  A    between atoms: C_2  and  O_3 
REMARK    2  A    between atoms: O_3  and  C_4 
REMARK    3  A    between atoms: C_5  and  N_6 
REMARK       I    between atoms: N_6  and  C_7 
REMARK    4  A    between atoms: C_7  and  C_8 
REMARK    5  A    between atoms: C_8  and  C_9 
REMARK    6  A    between atoms: C_9  and  S_10 
REMARK    7  A    between atoms: S_10  and  C_11 
REMARK    8  A    between atoms: N_12  and  C_13 
ROOT
HETATM    1  C   UNL     1      41.420  -9.007   7.674  1.00  0.00     0.177 A 
HETATM    2  N   UNL     1      42.343  -9.563   8.590  1.00  0.00    -0.274 N 
HETATM    3  C   UNL     1      41.908  -9.746   9.955  1.00  0.00     0.124 A 
HETATM    4  N   UNL     1      42.663 -10.289  10.891  1.00  0.00    -0.384 N 
HETATM    5  H   UNL     1      42.318 -10.404  11.833  1.00  0.00     0.157 HD
HETATM    6  H   UNL     1      43.602 -10.600  10.680  1.00  0.00     0.157 HD
HETATM    7  C   UNL     1      40.578  -9.323  10.259  1.00  0.00     0.081 A 
HETATM    8  C   UNL     1      39.794  -8.808   9.233  1.00  0.00     0.187 A 
HETATM    9  N   UNL     1      38.586  -8.450   9.644  1.00  0.00    -0.153 NA
HETATM   10  N   UNL     1      38.605  -8.742  10.958  1.00  0.00    -0.280 N 
HETATM   11  H   UNL     1      37.767  -8.546  11.499  1.00  0.00     0.189 HD
HETATM   12  C   UNL     1      39.802  -9.273  11.394  1.00  0.00     0.042 A 
HETATM   13  C   UNL     1      40.017  -9.634  12.811  1.00  0.00     0.071 C 
HETATM   14  N   UNL     1      40.195  -8.645   7.918  1.00  0.00    -0.202 NA
ENDROOT
BRANCH   1  15
HETATM   15  S   UNL     1      41.931  -8.758   5.975  1.00  0.00    -0.091 SA
BRANCH  15  16
HETATM   16  C   UNL     1      41.579 -10.406   5.262  1.00  0.00     0.091 C 
BRANCH  16  17
HETATM   17  C   UNL     1      42.065 -10.512   3.822  1.00  0.00     0.113 C 
BRANCH  17  18
HETATM   18  C   UNL     1      42.843 -11.791   3.574  1.00  0.00     0.223 C 
HETATM   19  N   UNL     1      42.033 -12.873   3.308  1.00  0.00    -0.325 N 
HETATM   20  H   UNL     1      41.030 -12.714   3.289  1.00  0.00     0.169 HD
HETATM   21  O   UNL     1      44.069 -11.795   3.641  1.00  0.00    -0.273 OA
BRANCH  19  22
HETATM   22  C   UNL     1      42.420 -14.197   3.013  1.00  0.00     0.068 A 
HETATM   23  C   UNL     1      42.061 -15.198   3.932  1.00  0.00     0.095 A 
HETATM   24  C   UNL     1      42.348 -16.543   3.691  1.00  0.00     0.039 A 
HETATM   25  C   UNL     1      43.040 -16.900   2.538  1.00  0.00     0.003 A 
HETATM   26  C   UNL     1      43.430 -15.915   1.631  1.00  0.00     0.002 A 
HETATM   27  C   UNL     1      43.120 -14.569   1.865  1.00  0.00     0.032 A 
BRANCH  23  28
HETATM   28  O   UNL     1      41.392 -14.877   5.090  1.00  0.00    -0.349 OA
BRANCH  28  29
HETATM   29  C   UNL     1      42.098 -15.386   6.232  1.00  0.00     0.171 C 
HETATM   30  C   UNL     1      43.161 -14.380   6.630  1.00  0.00     0.034 C 
ENDBRANCH  28  29
ENDBRANCH  23  28
ENDBRANCH  19  22
ENDBRANCH  17  18
ENDBRANCH  16  17
ENDBRANCH  15  16
ENDBRANCH   1  15
BRANCH   2  31
HETATM   31  C   UNL     1      43.698  -9.829   8.220  1.00  0.00     0.065 A 
HETATM   32  C   UNL     1      44.713  -8.866   8.393  1.00  0.00     0.061 A 
HETATM   33 CL   UNL     1      44.359  -7.289   9.005  1.00  0.00    -0.082 Cl
HETATM   34  C   UNL     1      46.042  -9.168   8.086  1.00  0.00     0.026 A 
HETATM   35  C   UNL     1      46.374 -10.432   7.599  1.00  0.00     0.002 A 
HETATM   36  C   UNL     1      45.381 -11.394   7.422  1.00  0.00     0.002 A 
HETATM   37  C   UNL     1      44.051 -11.099   7.734  1.00  0.00     0.032 A 
ENDBRANCH   2  31
TORSDOF 8
ENDMDL
MODEL 5
REMARK VINA RESULT:      -8.2      3.181      5.259
REMARK  8 active torsions:
REMARK  status: ('A' for Active; 'I' for Inactive)
REMARK    1  A    between atoms: C_2  and  O_3 
REMARK    2  A    between atoms: O_3  and  C_4 
REMARK    3  A    between atoms: C_5  and  N_6 
REMARK       I    between atoms: N_6  and  C_7 
REMARK    4  A    between atoms: C_7  and  C_8 
REMARK    5  A    between atoms: C_8  and  C_9 
REMARK    6  A    between atoms: C_9  and  S_10 
REMARK    7  A    between atoms: S_10  and  C_11 
REMARK    8  A    between atoms: N_12  and  C_13 
ROOT
HETATM    1  C   UNL     1      41.270  -9.127   7.713  1.00  0.00     0.177 A 
HETATM    2  N   UNL     1      42.223  -9.609   8.639  1.00  0.00    -0.274 N 
HETATM    3  C   UNL     1      41.837  -9.675  10.029  1.00  0.00     0.124 A 
HETATM    4  N   UNL     1      42.623 -10.141  10.980  1.00  0.00    -0.384 N 
HETATM    5  H   UNL     1      42.311 -10.175  11.940  1.00  0.00     0.157 HD
HETATM    6  H   UNL     1      43.554 -10.472  10.764  1.00  0.00     0.157 HD
HETATM    7  C   UNL     1      40.518  -9.223  10.342  1.00  0.00     0.081 A 
HETATM    8  C   UNL     1      39.700  -8.792   9.305  1.00  0.00     0.187 A 
HETATM    9  N   UNL     1      38.508  -8.396   9.726  1.00  0.00    -0.153 NA
HETATM   10  N   UNL     1      38.571  -8.577  11.058  1.00  0.00    -0.280 N 
HETATM   11  H   UNL     1      37.754  -8.332  11.610  1.00  0.00     0.189 HD
HETATM   12  C   UNL     1      39.783  -9.074  11.496  1.00  0.00     0.042 A 
HETATM   13  C   UNL     1      40.047  -9.316  12.930  1.00  0.00     0.071 C 
HETATM   14  N   UNL     1      40.055  -8.741   7.967  1.00  0.00    -0.202 NA
ENDROOT
BRANCH   1  15
HETATM   15  S   UNL     1      41.722  -9.025   5.982  1.00  0.00    -0.091 SA
BRANCH  15  16
HETATM   16  C   UNL     1      40.566 -10.239   5.248  1.00  0.00     0.091 C 
BRANCH  16  17
HETATM   17  C   UNL     1      40.525 -11.533   6.052  1.00  0.00     0.113 C 
BRANCH  17  18
HETATM   18  C   UNL     1      41.535 -12.549   5.548  1.00  0.00     0.223 C 
HETATM   19  N   UNL     1      41.637 -13.657   6.360  1.00  0.00    -0.325 N 
HETATM   20  H   UNL     1      41.039 -13.694   7.180  1.00  0.00     0.169 HD
HETATM   21  O   UNL     1      42.176 -12.332   4.524  1.00  0.00    -0.273 OA
BRANCH  19  22
HETATM   22  C   UNL     1      42.453 -14.794   6.182  1.00  0.00     0.068 A 
HETATM   23  C   UNL     1      41.910 -15.876   5.468  1.00  0.00     0.095 A 
HETATM   24  C   UNL     1      42.667 -17.016   5.191  1.00  0.00     0.039 A 
HETATM   25  C   UNL     1      43.973 -17.104   5.665  1.00  0.00     0.003 A 
HETATM   26  C   UNL     1      44.515 -16.052   6.401  1.00  0.00     0.002 A 
HETATM   27  C   UNL     1      43.760 -14.900   6.657  1.00  0.00     0.032 A 
BRANCH  23  28
HETATM   28  O   UNL     1      40.618 -15.829   5.000  1.00  0.00    -0.349 OA
BRANCH  28  29
HETATM   29  C   UNL     1      40.583 -16.140   3.599  1.00  0.00     0.171 C 
HETATM   30  C   UNL     1      40.288 -14.867   2.829  1.00  0.00     0.034 C 
ENDBRANCH  28  29
ENDBRANCH  23  28
ENDBRANCH  19  22
ENDBRANCH  17  18
ENDBRANCH  16  17
ENDBRANCH  15  16
ENDBRANCH   1  15
BRANCH   2  31
HETATM   31  C   UNL     1      43.565  -9.911   8.246  1.00  0.00     0.065 A 
HETATM   32  C   UNL     1      44.601  -8.963   8.371  1.00  0.00     0.061 A 
HETATM   33 CL   UNL     1      44.291  -7.365   8.949  1.00  0.00    -0.082 Cl
HETATM   34  C   UNL     1      45.917  -9.299   8.042  1.00  0.00     0.026 A 
HETATM   35  C   UNL     1      46.213 -10.581   7.582  1.00  0.00     0.002 A 
HETATM   36  C   UNL     1      45.199 -11.529   7.452  1.00  0.00     0.002 A 
HETATM   37  C   UNL     1      43.883 -11.200   7.786  1.00  0.00     0.032 A 
ENDBRANCH   2  31
TORSDOF 8
ENDMDL
MODEL 6
REMARK VINA RESULT:      -8.2      2.864      7.252
REMARK  8 active torsions:
REMARK  status: ('A' for Active; 'I' for Inactive)
REMARK    1  A    between atoms: C_2  and  O_3 
REMARK    2  A    between atoms: O_3  and  C_4 
REMARK    3  A    between atoms: C_5  and  N_6 
REMARK       I    between atoms: N_6  and  C_7 
REMARK    4  A    between atoms: C_7  and  C_8 
REMARK    5  A    between atoms: C_8  and  C_9 
REMARK    6  A    between atoms: C_9  and  S_10 
REMARK    7  A    between atoms: S_10  and  C_11 
REMARK    8  A    between atoms: N_12  and  C_13 
ROOT
HETATM    1  C   UNL     1      40.729 -13.831   5.569  1.00  0.00     0.177 A 
HETATM    2  N   UNL     1      40.881 -13.586   4.185  1.00  0.00    -0.274 N 
HETATM    3  C   UNL     1      40.241 -12.413   3.635  1.00  0.00     0.124 A 
HETATM    4  N   UNL     1      40.341 -12.057   2.369  1.00  0.00    -0.384 N 
HETATM    5  H   UNL     1      39.882 -11.225   2.027  1.00  0.00     0.157 HD
HETATM    6  H   UNL     1      40.880 -12.613   1.718  1.00  0.00     0.157 HD
HETATM    7  C   UNL     1      39.489 -11.614   4.551  1.00  0.00     0.081 A 
HETATM    8  C   UNL     1      39.455 -11.991   5.888  1.00  0.00     0.187 A 
HETATM    9  N   UNL     1      38.723 -11.172   6.630  1.00  0.00    -0.153 NA
HETATM   10  N   UNL     1      38.283 -10.259   5.745  1.00  0.00    -0.280 N 
HETATM   11  H   UNL     1      37.685  -9.514   6.091  1.00  0.00     0.189 HD
HETATM   12  C   UNL     1      38.714 -10.482   4.453  1.00  0.00     0.042 A 
HETATM   13  C   UNL     1      38.312  -9.596   3.340  1.00  0.00     0.071 C 
HETATM   14  N   UNL     1      40.079 -13.103   6.428  1.00  0.00    -0.202 NA
ENDROOT
BRANCH   1  15
HETATM   15  S   UNL     1      41.503 -15.282   6.280  1.00  0.00    -0.091 SA
BRANCH  15  16
HETATM   16  C   UNL     1      42.797 -14.512   7.320  1.00  0.00     0.091 C 
BRANCH  16  17
HETATM   17  C   UNL     1      43.972 -14.021   6.485  1.00  0.00     0.113 C 
BRANCH  17  18
HETATM   18  C   UNL     1      44.163 -12.519   6.598  1.00  0.00     0.223 C 
HETATM   19  N   UNL     1      43.098 -11.883   7.197  1.00  0.00    -0.325 N 
HETATM   20  H   UNL     1      42.322 -12.460   7.508  1.00  0.00     0.169 HD
HETATM   21  O   UNL     1      45.179 -11.988   6.159  1.00  0.00    -0.273 OA
BRANCH  19  22
HETATM   22  C   UNL     1      42.953 -10.508   7.479  1.00  0.00     0.068 A 
HETATM   23  C   UNL     1      43.679  -9.989   8.565  1.00  0.00     0.095 A 
HETATM   24  C   UNL     1      43.645  -8.629   8.879  1.00  0.00     0.039 A 
HETATM   25  C   UNL     1      42.843  -7.773   8.129  1.00  0.00     0.003 A 
HETATM   26  C   UNL     1      42.092  -8.279   7.069  1.00  0.00     0.002 A 
HETATM   27  C   UNL     1      42.148  -9.640   6.743  1.00  0.00     0.032 A 
BRANCH  23  28
HETATM   28  O   UNL     1      44.468 -10.810   9.337  1.00  0.00    -0.349 OA
BRANCH  28  29
HETATM   29  C   UNL     1      44.678 -10.227  10.632  1.00  0.00     0.171 C 
HETATM   30  C   UNL     1      43.676 -10.828  11.600  1.00  0.00     0.034 C 
ENDBRANCH  28  29
ENDBRANCH  23  28
ENDBRANCH  19  22
ENDBRANCH  17  18
ENDBRANCH  16  17
ENDBRANCH  15  16
ENDBRANCH   1  15
BRANCH   2  31
HETATM   31  C   UNL     1      41.541 -14.519   3.326  1.00  0.00     0.065 A 
HETATM   32  C   UNL     1      42.816 -14.251   2.786  1.00  0.00     0.061 A 
HETATM   33 CL   UNL     1      43.619 -12.750   3.083  1.00  0.00    -0.082 Cl
HETATM   34  C   UNL     1      43.472 -15.202   2.002  1.00  0.00     0.026 A 
HETATM   35  C   UNL     1      42.865 -16.431   1.745  1.00  0.00     0.002 A 
HETATM   36  C   UNL     1      41.605 -16.711   2.272  1.00  0.00     0.002 A 
HETATM   37  C   UNL     1      40.947 -15.765   3.062  1.00  0.00     0.032 A 
ENDBRANCH   2  31
TORSDOF 8
ENDMDL
MODEL 7
REMARK VINA RESULT:      -8.1      2.979      8.545
REMARK  8 active torsions:
REMARK  status: ('A' for Active; 'I' for Inactive)
REMARK    1  A    between atoms: C_2  and  O_3 
REMARK    2  A    between atoms: O_3  and  C_4 
REMARK    3  A    between atoms: C_5  and  N_6 
REMARK       I    between atoms: N_6  and  C_7 
REMARK    4  A    between atoms: C_7  and  C_8 
REMARK    5  A    between atoms: C_8  and  C_9 
REMARK    6  A    between atoms: C_9  and  S_10 
REMARK    7  A    between atoms: S_10  and  C_11 
REMARK    8  A    between atoms: N_12  and  C_13 
ROOT
HETATM    1  C   UNL     1      42.513 -15.384   5.304  1.00  0.00     0.177 A 
HETATM    2  N   UNL     1      42.498 -15.282   3.894  1.00  0.00    -0.274 N 
HETATM    3  C   UNL     1      42.909 -16.437   3.131  1.00  0.00     0.124 A 
HETATM    4  N   UNL     1      42.901 -16.477   1.813  1.00  0.00    -0.384 N 
HETATM    5  H   UNL     1      43.191 -17.308   1.318  1.00  0.00     0.157 HD
HETATM    6  H   UNL     1      42.605 -15.674   1.275  1.00  0.00     0.157 HD
HETATM    7  C   UNL     1      43.316 -17.581   3.884  1.00  0.00     0.081 A 
HETATM    8  C   UNL     1      43.257 -17.520   5.271  1.00  0.00     0.187 A 
HETATM    9  N   UNL     1      43.664 -18.640   5.850  1.00  0.00    -0.153 NA
HETATM   10  N   UNL     1      43.990 -19.428   4.809  1.00  0.00    -0.280 N 
HETATM   11  H   UNL     1      44.341 -20.360   5.011  1.00  0.00     0.189 HD
HETATM   12  C   UNL     1      43.806 -18.830   3.578  1.00  0.00     0.042 A 
HETATM   13  C   UNL     1      44.133 -19.534   2.320  1.00  0.00     0.071 C 
HETATM   14  N   UNL     1      42.847 -16.423   6.012  1.00  0.00    -0.202 NA
ENDROOT
BRANCH   1  15
HETATM   15  S   UNL     1      42.017 -13.966   6.280  1.00  0.00    -0.091 SA
BRANCH  15  16
HETATM   16  C   UNL     1      43.600 -13.527   7.086  1.00  0.00     0.091 C 
BRANCH  16  17
HETATM   17  C   UNL     1      44.082 -12.144   6.665  1.00  0.00     0.113 C 
BRANCH  17  18
HETATM   18  C   UNL     1      44.426 -11.273   7.858  1.00  0.00     0.223 C 
HETATM   19  N   UNL     1      43.331 -10.628   8.391  1.00  0.00    -0.325 N 
HETATM   20  H   UNL     1      42.428 -10.803   7.959  1.00  0.00     0.169 HD
HETATM   21  O   UNL     1      45.587 -11.180   8.245  1.00  0.00    -0.273 OA
BRANCH  19  22
HETATM   22  C   UNL     1      43.286  -9.767   9.507  1.00  0.00     0.068 A 
HETATM   23  C   UNL     1      43.312  -8.383   9.260  1.00  0.00     0.095 A 
HETATM   24  C   UNL     1      43.208  -7.457  10.300  1.00  0.00     0.039 A 
HETATM   25  C   UNL     1      43.121  -7.909  11.614  1.00  0.00     0.003 A 
HETATM   26  C   UNL     1      43.126  -9.279  11.877  1.00  0.00     0.002 A 
HETATM   27  C   UNL     1      43.207 -10.204  10.829  1.00  0.00     0.032 A 
BRANCH  23  28
HETATM   28  O   UNL     1      43.414  -7.903   7.975  1.00  0.00    -0.349 OA
BRANCH  28  29
HETATM   29  C   UNL     1      42.228  -7.178   7.618  1.00  0.00     0.171 C 
HETATM   30  C   UNL     1      41.403  -8.035   6.676  1.00  0.00     0.034 C 
ENDBRANCH  28  29
ENDBRANCH  23  28
ENDBRANCH  19  22
ENDBRANCH  17  18
ENDBRANCH  16  17
ENDBRANCH  15  16
ENDBRANCH   1  15
BRANCH   2  31
HETATM   31  C   UNL     1      42.203 -14.047   3.236  1.00  0.00     0.065 A 
HETATM   32  C   UNL     1      40.954 -13.819   2.623  1.00  0.00     0.061 A 
HETATM   33 CL   UNL     1      39.737 -15.044   2.581  1.00  0.00    -0.082 Cl
HETATM   34  C   UNL     1      40.662 -12.583   2.041  1.00  0.00     0.026 A 
HETATM   35  C   UNL     1      41.611 -11.562   2.062  1.00  0.00     0.002 A 
HETATM   36  C   UNL     1      42.850 -11.773   2.665  1.00  0.00     0.002 A 
HETATM   37  C   UNL     1      43.145 -13.006   3.252  1.00  0.00     0.032 A 
ENDBRANCH   2  31
TORSDOF 8
ENDMDL
MODEL 8
REMARK VINA RESULT:      -8.0      4.099      7.801
REMARK  8 active torsions:
REMARK  status: ('A' for Active; 'I' for Inactive)
REMARK    1  A    between atoms: C_2  and  O_3 
REMARK    2  A    between atoms: O_3  and  C_4 
REMARK    3  A    between atoms: C_5  and  N_6 
REMARK       I    between atoms: N_6  and  C_7 
REMARK    4  A    between atoms: C_7  and  C_8 
REMARK    5  A    between atoms: C_8  and  C_9 
REMARK    6  A    between atoms: C_9  and  S_10 
REMARK    7  A    between atoms: S_10  and  C_11 
REMARK    8  A    between atoms: N_12  and  C_13 
ROOT
HETATM    1  C   UNL     1      42.997 -15.450   3.589  1.00  0.00     0.177 A 
HETATM    2  N   UNL     1      42.510 -15.267   4.904  1.00  0.00    -0.274 N 
HETATM    3  C   UNL     1      42.657 -16.363   5.834  1.00  0.00     0.124 A 
HETATM    4  N   UNL     1      42.278 -16.299   7.096  1.00  0.00    -0.384 N 
HETATM    5  H   UNL     1      42.404 -17.087   7.715  1.00  0.00     0.157 HD
HETATM    6  H   UNL     1      41.854 -15.459   7.465  1.00  0.00     0.157 HD
HETATM    7  C   UNL     1      43.269 -17.549   5.325  1.00  0.00     0.081 A 
HETATM    8  C   UNL     1      43.706 -17.557   4.005  1.00  0.00     0.187 A 
HETATM    9  N   UNL     1      44.250 -18.713   3.655  1.00  0.00    -0.153 NA
HETATM   10  N   UNL     1      44.154 -19.455   4.774  1.00  0.00    -0.280 N 
HETATM   11  H   UNL     1      44.511 -20.406   4.745  1.00  0.00     0.189 HD
HETATM   12  C   UNL     1      43.554 -18.797   5.829  1.00  0.00     0.042 A 
HETATM   13  C   UNL     1      43.340 -19.460   7.132  1.00  0.00     0.071 C 
HETATM   14  N   UNL     1      43.586 -16.506   3.111  1.00  0.00    -0.202 NA
ENDROOT
BRANCH   1  15
HETATM   15  S   UNL     1      42.823 -14.114   2.408  1.00  0.00    -0.091 SA
BRANCH  15  16
HETATM   16  C   UNL     1      41.805 -14.919   1.119  1.00  0.00     0.091 C 
BRANCH  16  17
HETATM   17  C   UNL     1      40.340 -14.513   1.224  1.00  0.00     0.113 C 
BRANCH  17  18
HETATM   18  C   UNL     1      40.053 -13.221   0.480  1.00  0.00     0.223 C 
HETATM   19  N   UNL     1      41.013 -12.912  -0.457  1.00  0.00    -0.325 N 
HETATM   20  H   UNL     1      41.786 -13.561  -0.568  1.00  0.00     0.169 HD
HETATM   21  O   UNL     1      39.057 -12.557   0.752  1.00  0.00    -0.273 OA
BRANCH  19  22
HETATM   22  C   UNL     1      41.050 -11.807  -1.334  1.00  0.00     0.068 A 
HETATM   23  C   UNL     1      40.759 -12.044  -2.689  1.00  0.00     0.095 A 
HETATM   24  C   UNL     1      40.710 -11.001  -3.615  1.00  0.00     0.039 A 
HETATM   25  C   UNL     1      40.997  -9.703  -3.201  1.00  0.00     0.003 A 
HETATM   26  C   UNL     1      41.319  -9.457  -1.866  1.00  0.00     0.002 A 
HETATM   27  C   UNL     1      41.343 -10.503  -0.936  1.00  0.00     0.032 A 
BRANCH  23  28
HETATM   28  O   UNL     1      40.487 -13.317  -3.134  1.00  0.00    -0.349 OA
BRANCH  28  29
HETATM   29  C   UNL     1      39.070 -13.546  -3.154  1.00  0.00     0.171 C 
HETATM   30  C   UNL     1      38.806 -14.972  -2.707  1.00  0.00     0.034 C 
ENDBRANCH  28  29
ENDBRANCH  23  28
ENDBRANCH  19  22
ENDBRANCH  17  18
ENDBRANCH  16  17
ENDBRANCH  15  16
ENDBRANCH   1  15
BRANCH   2  31
HETATM   31  C   UNL     1      41.791 -14.090   5.279  1.00  0.00     0.065 A 
HETATM   32  C   UNL     1      42.433 -13.001   5.904  1.00  0.00     0.061 A 
HETATM   33 CL   UNL     1      44.112 -13.060   6.306  1.00  0.00    -0.082 Cl
HETATM   34  C   UNL     1      41.726 -11.835   6.205  1.00  0.00     0.026 A 
HETATM   35  C   UNL     1      40.371 -11.740   5.888  1.00  0.00     0.002 A 
HETATM   36  C   UNL     1      39.723 -12.809   5.270  1.00  0.00     0.002 A 
HETATM   37  C   UNL     1      40.427 -13.976   4.963  1.00  0.00     0.032 A 
ENDBRANCH   2  31
TORSDOF 8
ENDMDL
MODEL 9
REMARK VINA RESULT:      -8.0      2.174      2.500
REMARK  8 active torsions:
REMARK  status: ('A' for Active; 'I' for Inactive)
REMARK    1  A    between atoms: C_2  and  O_3 
REMARK    2  A    between atoms: O_3  and  C_4 
REMARK    3  A    between atoms: C_5  and  N_6 
REMARK       I    between atoms: N_6  and  C_7 
REMARK    4  A    between atoms: C_7  and  C_8 
REMARK    5  A    between atoms: C_8  and  C_9 
REMARK    6  A    between atoms: C_9  and  S_10 
REMARK    7  A    between atoms: S_10  and  C_11 
REMARK    8  A    between atoms: N_12  and  C_13 
ROOT
HETATM    1  C   UNL     1      43.104 -10.614   6.969  1.00  0.00     0.177 A 
HETATM    2  N   UNL     1      42.036  -9.867   7.515  1.00  0.00    -0.274 N 
HETATM    3  C   UNL     1      42.202  -9.330   8.846  1.00  0.00     0.124 A 
HETATM    4  N   UNL     1      41.294  -8.585   9.447  1.00  0.00    -0.384 N 
HETATM    5  H   UNL     1      41.453  -8.225  10.377  1.00  0.00     0.157 HD
HETATM    6  H   UNL     1      40.422  -8.363   8.986  1.00  0.00     0.157 HD
HETATM    7  C   UNL     1      43.437  -9.627   9.499  1.00  0.00     0.081 A 
HETATM    8  C   UNL     1      44.391 -10.366   8.811  1.00  0.00     0.187 A 
HETATM    9  N   UNL     1      45.488 -10.576   9.526  1.00  0.00    -0.153 NA
HETATM   10  N   UNL     1      45.222  -9.959  10.692  1.00  0.00    -0.280 N 
HETATM   11  H   UNL     1      45.934  -9.989  11.416  1.00  0.00     0.189 HD
HETATM   12  C   UNL     1      43.977  -9.365  10.737  1.00  0.00     0.042 A 
HETATM   13  C   UNL     1      43.500  -8.660  11.946  1.00  0.00     0.071 C 
HETATM   14  N   UNL     1      44.249 -10.871   7.529  1.00  0.00    -0.202 NA
ENDROOT
BRANCH   1  15
HETATM   15  S   UNL     1      42.926 -11.302   5.323  1.00  0.00    -0.091 SA
BRANCH  15  16
HETATM   16  C   UNL     1      43.404 -13.043   5.620  1.00  0.00     0.091 C 
BRANCH  16  17
HETATM   17  C   UNL     1      42.307 -13.812   6.346  1.00  0.00     0.113 C 
BRANCH  17  18
HETATM   18  C   UNL     1      42.309 -15.285   5.984  1.00  0.00     0.223 C 
HETATM   19  N   UNL     1      43.133 -15.579   4.921  1.00  0.00    -0.325 N 
HETATM   20  H   UNL     1      43.654 -14.813   4.505  1.00  0.00     0.169 HD
HETATM   21  O   UNL     1      41.606 -16.078   6.604  1.00  0.00    -0.273 OA
BRANCH  19  22
HETATM   22  C   UNL     1      43.389 -16.840   4.340  1.00  0.00     0.068 A 
HETATM   23  C   UNL     1      43.040 -17.015   2.990  1.00  0.00     0.095 A 
HETATM   24  C   UNL     1      43.313 -18.208   2.318  1.00  0.00     0.039 A 
HETATM   25  C   UNL     1      43.906 -19.262   3.006  1.00  0.00     0.003 A 
HETATM   26  C   UNL     1      44.229 -19.114   4.354  1.00  0.00     0.002 A 
HETATM   27  C   UNL     1      43.975 -17.908   5.019  1.00  0.00     0.032 A 
BRANCH  23  28
HETATM   28  O   UNL     1      42.437 -15.999   2.285  1.00  0.00    -0.349 OA
BRANCH  28  29
HETATM   29  C   UNL     1      41.084 -16.352   1.960  1.00  0.00     0.171 C 
HETATM   30  C   UNL     1      40.152 -15.585   2.879  1.00  0.00     0.034 C 
ENDBRANCH  28  29
ENDBRANCH  23  28
ENDBRANCH  19  22
ENDBRANCH  17  18
ENDBRANCH  16  17
ENDBRANCH  15  16
ENDBRANCH   1  15
BRANCH   2  31
HETATM   31  C   UNL     1      40.785  -9.739   6.834  1.00  0.00     0.065 A 
HETATM   32  C   UNL     1      40.498  -8.623   6.022  1.00  0.00     0.061 A 
HETATM   33 CL   UNL     1      41.620  -7.320   5.858  1.00  0.00    -0.082 Cl
HETATM   34  C   UNL     1      39.296  -8.548   5.314  1.00  0.00     0.026 A 
HETATM   35  C   UNL     1      38.366  -9.583   5.409  1.00  0.00     0.002 A 
HETATM   36  C   UNL     1      38.636 -10.692   6.208  1.00  0.00     0.002 A 
HETATM   37  C   UNL     1      39.839 -10.775   6.914  1.00  0.00     0.032 A 
ENDBRANCH   2  31
TORSDOF 8
ENDMDL
MODEL 10
REMARK VINA RESULT:      -7.9      4.225      8.543
REMARK  8 active torsions:
REMARK  status: ('A' for Active; 'I' for Inactive)
REMARK    1  A    between atoms: C_2  and  O_3 
REMARK    2  A    between atoms: O_3  and  C_4 
REMARK    3  A    between atoms: C_5  and  N_6 
REMARK       I    between atoms: N_6  and  C_7 
REMARK    4  A    between atoms: C_7  and  C_8 
REMARK    5  A    between atoms: C_8  and  C_9 
REMARK    6  A    between atoms: C_9  and  S_10 
REMARK    7  A    between atoms: S_10  and  C_11 
REMARK    8  A    between atoms: N_12  and  C_13 
ROOT
HETATM    1  C   UNL     1      42.791 -16.518   2.669  1.00  0.00     0.177 A 
HETATM    2  N   UNL     1      43.007 -16.421   4.063  1.00  0.00    -0.274 N 
HETATM    3  C   UNL     1      43.463 -17.602   4.757  1.00  0.00     0.124 A 
HETATM    4  N   UNL     1      43.736 -17.627   6.048  1.00  0.00    -0.384 N 
HETATM    5  H   UNL     1      44.058 -18.473   6.493  1.00  0.00     0.157 HD
HETATM    6  H   UNL     1      43.625 -16.796   6.614  1.00  0.00     0.157 HD
HETATM    7  C   UNL     1      43.636 -18.777   3.963  1.00  0.00     0.081 A 
HETATM    8  C   UNL     1      43.393 -18.697   2.597  1.00  0.00     0.187 A 
HETATM    9  N   UNL     1      43.585 -19.851   1.976  1.00  0.00    -0.153 NA
HETATM   10  N   UNL     1      43.954 -20.682   2.968  1.00  0.00    -0.280 N 
HETATM   11  H   UNL     1      44.156 -21.648   2.727  1.00  0.00     0.189 HD
HETATM   12  C   UNL     1      43.996 -20.081   4.211  1.00  0.00     0.042 A 
HETATM   13  C   UNL     1      44.359 -20.842   5.424  1.00  0.00     0.071 C 
HETATM   14  N   UNL     1      42.972 -17.564   1.919  1.00  0.00    -0.202 NA
ENDROOT
BRANCH   1  15
HETATM   15  S   UNL     1      42.217 -15.072   1.780  1.00  0.00    -0.091 SA
BRANCH  15  16
HETATM   16  C   UNL     1      40.405 -15.325   1.838  1.00  0.00     0.091 C 
BRANCH  16  17
HETATM   17  C   UNL     1      39.829 -15.589   0.453  1.00  0.00     0.113 C 
BRANCH  17  18
HETATM   18  C   UNL     1      39.700 -14.317  -0.363  1.00  0.00     0.223 C 
HETATM   19  N   UNL     1      39.245 -13.246   0.374  1.00  0.00    -0.325 N 
HETATM   20  H   UNL     1      39.060 -13.400   1.361  1.00  0.00     0.169 HD
HETATM   21  O   UNL     1      39.971 -14.316  -1.560  1.00  0.00    -0.273 OA
BRANCH  19  22
HETATM   22  C   UNL     1      39.033 -11.919  -0.058  1.00  0.00     0.068 A 
HETATM   23  C   UNL     1      40.113 -11.025   0.038  1.00  0.00     0.095 A 
HETATM   24  C   UNL     1      40.012  -9.711  -0.423  1.00  0.00     0.039 A 
HETATM   25  C   UNL     1      38.805  -9.261  -0.950  1.00  0.00     0.003 A 
HETATM   26  C   UNL     1      37.715 -10.127  -1.022  1.00  0.00     0.002 A 
HETATM   27  C   UNL     1      37.827 -11.451  -0.581  1.00  0.00     0.032 A 
BRANCH  23  28
HETATM   28  O   UNL     1      41.315 -11.433   0.569  1.00  0.00    -0.349 OA
BRANCH  28  29
HETATM   29  C   UNL     1      41.617 -10.680   1.754  1.00  0.00     0.171 C 
HETATM   30  C   UNL     1      41.245 -11.516   2.965  1.00  0.00     0.034 C 
ENDBRANCH  28  29
ENDBRANCH  23  28
ENDBRANCH  19  22
ENDBRANCH  17  18
ENDBRANCH  16  17
ENDBRANCH  15  16
ENDBRANCH   1  15
BRANCH   2  31
HETATM   31  C   UNL     1      42.676 -15.236   4.792  1.00  0.00     0.065 A 
HETATM   32  C   UNL     1      41.436 -15.096   5.450  1.00  0.00     0.061 A 
HETATM   33 CL   UNL     1      40.227 -16.327   5.357  1.00  0.00    -0.082 Cl
HETATM   34  C   UNL     1      41.158 -13.957   6.210  1.00  0.00     0.026 A 
HETATM   35  C   UNL     1      42.109 -12.944   6.320  1.00  0.00     0.002 A 
HETATM   36  C   UNL     1      43.339 -13.068   5.675  1.00  0.00     0.002 A 
HETATM   37  C   UNL     1      43.625 -14.207   4.918  1.00  0.00     0.032 A 
ENDBRANCH   2  31
TORSDOF 8
ENDMDL
