MODEL 1
REMARK VINA RESULT:      -9.7      0.000      0.000
REMARK  6 active torsions:
REMARK  status: ('A' for Active; 'I' for Inactive)
REMARK    1  A    between atoms: C_8  and  C_9 
REMARK    2  A    between atoms: N_10  and  N_11 
REMARK    3  A    between atoms: C_22  and  C_23 
REMARK       I    between atoms: C_23  and  N_24 
REMARK    4  A    between atoms: N_24  and  C_25 
REMARK    5  A    between atoms: C_25  and  C_26 
REMARK    6  A    between atoms: C_34  and  N_35 
ROOT
HETATM    1  N   UNL     1      39.767 -12.226   4.139  1.00  0.00    -0.197 N 
HETATM    2  C   UNL     1      40.972 -12.096   4.803  1.00  0.00     0.183 A 
HETATM    3  C   UNL     1      41.717 -13.239   4.539  1.00  0.00     0.125 A 
HETATM    4  N   UNL     1      42.944 -13.417   5.094  1.00  0.00    -0.242 NA
HETATM    5  C   UNL     1      43.357 -12.416   5.885  1.00  0.00     0.086 A 
HETATM    6  C   UNL     1      42.576 -11.255   6.131  1.00  0.00     0.088 A 
HETATM    7  N   UNL     1      41.360 -11.070   5.596  1.00  0.00    -0.225 NA
HETATM    8  C   UNL     1      44.606 -12.525   6.483  1.00  0.00     0.034 A 
HETATM    9  C   UNL     1      45.109 -11.523   7.316  1.00  0.00     0.002 A 
HETATM   10  C   UNL     1      44.346 -10.389   7.556  1.00  0.00     0.002 A 
HETATM   11  C   UNL     1      43.089 -10.267   6.963  1.00  0.00     0.034 A 
HETATM   12  C   UNL     1      40.981 -14.060   3.641  1.00  0.00     0.110 A 
HETATM   13  C   UNL     1      39.807 -13.375   3.355  1.00  0.00     0.143 A 
ENDROOT
BRANCH   1  14
HETATM   14  N   UNL     1      38.713 -11.362   4.140  1.00  0.00    -0.176 NA
HETATM   15  C   UNL     1      38.690 -10.423   3.241  1.00  0.00     0.153 C 
BRANCH  15  16
HETATM   16  C   UNL     1      39.735  -9.942   2.346  1.00  0.00     0.011 A 
HETATM   17  C   UNL     1      39.938 -10.390   0.992  1.00  0.00     0.004 A 
HETATM   18  C   UNL     1      39.303 -11.343   0.166  1.00  0.00     0.014 A 
HETATM   19  C   UNL     1      41.003  -9.664   0.456  1.00  0.00     0.043 A 
HETATM   20  C   UNL     1      39.746 -11.525  -1.150  1.00  0.00     0.001 A 
HETATM   21  C   UNL     1      40.813 -10.785  -1.649  1.00  0.00     0.002 A 
HETATM   22  C   UNL     1      41.468  -9.842  -0.853  1.00  0.00     0.030 A 
HETATM   23  N   UNL     1      41.440  -8.808   1.436  1.00  0.00    -0.364 N 
HETATM   24  H   UNL     1      42.208  -8.159   1.332  1.00  0.00     0.165 HD
HETATM   25  C   UNL     1      40.648  -8.921   2.548  1.00  0.00     0.102 A 
ENDBRANCH  15  16
ENDBRANCH   1  14
BRANCH  13  26
HETATM   26  N   UNL     1      38.746 -13.695   2.556  1.00  0.00    -0.383 N 
HETATM   27  H   UNL     1      37.871 -13.189   2.680  1.00  0.00     0.157 HD
HETATM   28  H   UNL     1      38.962 -13.821   1.563  1.00  0.00     0.157 HD
ENDBRANCH  13  26
BRANCH  12  29
HETATM   29  C   UNL     1      41.365 -15.366   3.137  1.00  0.00     0.258 C 
HETATM   30  N   UNL     1      42.721 -15.529   2.967  1.00  0.00    -0.352 N 
HETATM   31  H   UNL     1      43.319 -14.743   3.194  1.00  0.00     0.163 HD
HETATM   32  O   UNL     1      40.547 -16.231   2.840  1.00  0.00    -0.267 OA
BRANCH  30  33
HETATM   33  C   UNL     1      43.259 -16.648   2.235  1.00  0.00     0.161 C 
BRANCH  33  34
HETATM   34  C   UNL     1      43.525 -17.836   3.123  1.00  0.00    -0.040 A 
HETATM   35  C   UNL     1      43.572 -19.127   2.571  1.00  0.00     0.012 A 
HETATM   36  C   UNL     1      43.840 -20.233   3.377  1.00  0.00     0.043 A 
HETATM   37  C   UNL     1      44.055 -20.054   4.738  1.00  0.00     0.116 A 
HETATM   38  F   UNL     1      44.312 -21.116   5.511  1.00  0.00    -0.206 F 
HETATM   39  C   UNL     1      44.011 -18.787   5.307  1.00  0.00     0.043 A 
HETATM   40  C   UNL     1      43.751 -17.677   4.501  1.00  0.00     0.012 A 
ENDBRANCH  33  34
ENDBRANCH  30  33
ENDBRANCH  12  29
TORSDOF 6
ENDMDL
MODEL 2
REMARK VINA RESULT:      -9.7      3.269      6.385
REMARK  6 active torsions:
REMARK  status: ('A' for Active; 'I' for Inactive)
REMARK    1  A    between atoms: C_8  and  C_9 
REMARK    2  A    between atoms: N_10  and  N_11 
REMARK    3  A    between atoms: C_22  and  C_23 
REMARK       I    between atoms: C_23  and  N_24 
REMARK    4  A    between atoms: N_24  and  C_25 
REMARK    5  A    between atoms: C_25  and  C_26 
REMARK    6  A    between atoms: C_34  and  N_35 
ROOT
HETATM    1  N   UNL     1      40.418  -9.474   6.943  1.00  0.00    -0.197 N 
HETATM    2  C   UNL     1      41.764  -9.767   7.057  1.00  0.00     0.183 A 
HETATM    3  C   UNL     1      41.946 -11.068   6.602  1.00  0.00     0.125 A 
HETATM    4  N   UNL     1      43.172 -11.653   6.631  1.00  0.00    -0.242 NA
HETATM    5  C   UNL     1      44.156 -10.881   7.113  1.00  0.00     0.086 A 
HETATM    6  C   UNL     1      43.941  -9.551   7.565  1.00  0.00     0.088 A 
HETATM    7  N   UNL     1      42.735  -8.963   7.550  1.00  0.00    -0.225 NA
HETATM    8  C   UNL     1      45.439 -11.410   7.167  1.00  0.00     0.034 A 
HETATM    9  C   UNL     1      46.517 -10.667   7.653  1.00  0.00     0.002 A 
HETATM   10  C   UNL     1      46.308  -9.368   8.093  1.00  0.00     0.002 A 
HETATM   11  C   UNL     1      45.023  -8.825   8.046  1.00  0.00     0.034 A 
HETATM   12  C   UNL     1      40.697 -11.563   6.137  1.00  0.00     0.110 A 
HETATM   13  C   UNL     1      39.782 -10.529   6.296  1.00  0.00     0.143 A 
ENDROOT
BRANCH   1  14
HETATM   14  N   UNL     1      39.778  -8.327   7.302  1.00  0.00    -0.176 NA
HETATM   15  C   UNL     1      39.624  -8.084   8.571  1.00  0.00     0.153 C 
BRANCH  15  16
HETATM   16  C   UNL     1      39.793  -8.952   9.730  1.00  0.00     0.011 A 
HETATM   17  C   UNL     1      40.843  -8.832  10.709  1.00  0.00     0.004 A 
HETATM   18  C   UNL     1      41.948  -7.969  10.865  1.00  0.00     0.014 A 
HETATM   19  C   UNL     1      40.636  -9.814  11.680  1.00  0.00     0.043 A 
HETATM   20  C   UNL     1      42.789  -8.111  11.976  1.00  0.00     0.001 A 
HETATM   21  C   UNL     1      42.554  -9.104  12.922  1.00  0.00     0.002 A 
HETATM   22  C   UNL     1      41.474  -9.980  12.790  1.00  0.00     0.030 A 
HETATM   23  N   UNL     1      39.510 -10.510  11.316  1.00  0.00    -0.364 N 
HETATM   24  H   UNL     1      39.121 -11.286  11.833  1.00  0.00     0.165 HD
HETATM   25  C   UNL     1      38.962  -9.962  10.185  1.00  0.00     0.102 A 
ENDBRANCH  15  16
ENDBRANCH   1  14
BRANCH  13  26
HETATM   26  N   UNL     1      38.447 -10.454   6.015  1.00  0.00    -0.383 N 
HETATM   27  H   UNL     1      37.862 -11.266   6.201  1.00  0.00     0.157 HD
HETATM   28  H   UNL     1      37.981  -9.589   6.309  1.00  0.00     0.157 HD
ENDBRANCH  13  26
BRANCH  12  29
HETATM   29  C   UNL     1      40.420 -12.890   5.619  1.00  0.00     0.258 C 
HETATM   30  N   UNL     1      41.279 -13.298   4.625  1.00  0.00    -0.352 N 
HETATM   31  H   UNL     1      42.008 -12.652   4.341  1.00  0.00     0.163 HD
HETATM   32  O   UNL     1      39.471 -13.568   6.000  1.00  0.00    -0.267 OA
BRANCH  30  33
HETATM   33  C   UNL     1      41.002 -14.459   3.818  1.00  0.00     0.161 C 
BRANCH  33  34
HETATM   34  C   UNL     1      42.033 -15.543   4.003  1.00  0.00    -0.040 A 
HETATM   35  C   UNL     1      42.228 -16.504   2.997  1.00  0.00     0.012 A 
HETATM   36  C   UNL     1      43.195 -17.498   3.145  1.00  0.00     0.043 A 
HETATM   37  C   UNL     1      43.966 -17.539   4.300  1.00  0.00     0.116 A 
HETATM   38  F   UNL     1      44.894 -18.493   4.442  1.00  0.00    -0.206 F 
HETATM   39  C   UNL     1      43.789 -16.600   5.310  1.00  0.00     0.043 A 
HETATM   40  C   UNL     1      42.828 -15.599   5.161  1.00  0.00     0.012 A 
ENDBRANCH  33  34
ENDBRANCH  30  33
ENDBRANCH  12  29
TORSDOF 6
ENDMDL
MODEL 3
REMARK VINA RESULT:      -9.5      2.054      5.596
REMARK  6 active torsions:
REMARK  status: ('A' for Active; 'I' for Inactive)
REMARK    1  A    between atoms: C_8  and  C_9 
REMARK    2  A    between atoms: N_10  and  N_11 
REMARK    3  A    between atoms: C_22  and  C_23 
REMARK       I    between atoms: C_23  and  N_24 
REMARK    4  A    between atoms: N_24  and  C_25 
REMARK    5  A    between atoms: C_25  and  C_26 
REMARK    6  A    between atoms: C_34  and  N_35 
ROOT
HETATM    1  N   UNL     1      40.259 -12.290   4.493  1.00  0.00    -0.197 N 
HETATM    2  C   UNL     1      40.076 -12.880   3.256  1.00  0.00     0.183 A 
HETATM    3  C   UNL     1      40.363 -14.233   3.394  1.00  0.00     0.125 A 
HETATM    4  N   UNL     1      40.309 -15.070   2.326  1.00  0.00    -0.242 NA
HETATM    5  C   UNL     1      39.955 -14.491   1.169  1.00  0.00     0.086 A 
HETATM    6  C   UNL     1      39.660 -13.106   1.060  1.00  0.00     0.088 A 
HETATM    7  N   UNL     1      39.717 -12.265   2.105  1.00  0.00    -0.225 NA
HETATM    8  C   UNL     1      39.872 -15.287   0.035  1.00  0.00     0.034 A 
HETATM    9  C   UNL     1      39.506 -14.759  -1.205  1.00  0.00     0.002 A 
HETATM   10  C   UNL     1      39.217 -13.406  -1.312  1.00  0.00     0.002 A 
HETATM   11  C   UNL     1      39.299 -12.594  -0.180  1.00  0.00     0.034 A 
HETATM   12  C   UNL     1      40.666 -14.493   4.758  1.00  0.00     0.110 A 
HETATM   13  C   UNL     1      40.525 -13.284   5.429  1.00  0.00     0.143 A 
ENDROOT
BRANCH   1  14
HETATM   14  N   UNL     1      40.126 -10.974   4.821  1.00  0.00    -0.176 NA
HETATM   15  C   UNL     1      41.207 -10.257   4.921  1.00  0.00     0.153 C 
BRANCH  15  16
HETATM   16  C   UNL     1      42.607 -10.656   4.992  1.00  0.00     0.011 A 
HETATM   17  C   UNL     1      43.413 -10.643   6.186  1.00  0.00     0.004 A 
HETATM   18  C   UNL     1      43.180 -10.265   7.526  1.00  0.00     0.014 A 
HETATM   19  C   UNL     1      44.676 -11.135   5.855  1.00  0.00     0.043 A 
HETATM   20  C   UNL     1      44.202 -10.400   8.474  1.00  0.00     0.001 A 
HETATM   21  C   UNL     1      45.451 -10.893   8.106  1.00  0.00     0.002 A 
HETATM   22  C   UNL     1      45.715 -11.265   6.785  1.00  0.00     0.030 A 
HETATM   23  N   UNL     1      44.652 -11.438   4.516  1.00  0.00    -0.364 N 
HETATM   24  H   UNL     1      45.435 -11.811   3.996  1.00  0.00     0.165 HD
HETATM   25  C   UNL     1      43.400 -11.215   4.005  1.00  0.00     0.102 A 
ENDBRANCH  15  16
ENDBRANCH   1  14
BRANCH  13  26
HETATM   26  N   UNL     1      40.692 -12.957   6.745  1.00  0.00    -0.383 N 
HETATM   27  H   UNL     1      39.866 -12.872   7.336  1.00  0.00     0.157 HD
HETATM   28  H   UNL     1      41.444 -13.453   7.233  1.00  0.00     0.157 HD
ENDBRANCH  13  26
BRANCH  12  29
HETATM   29  C   UNL     1      41.065 -15.762   5.339  1.00  0.00     0.258 C 
HETATM   30  N   UNL     1      42.424 -15.903   5.507  1.00  0.00    -0.352 N 
HETATM   31  H   UNL     1      43.015 -15.133   5.212  1.00  0.00     0.163 HD
HETATM   32  O   UNL     1      40.264 -16.651   5.608  1.00  0.00    -0.267 OA
BRANCH  30  33
HETATM   33  C   UNL     1      43.017 -17.179   5.817  1.00  0.00     0.161 C 
BRANCH  33  34
HETATM   34  C   UNL     1      43.236 -18.020   4.585  1.00  0.00    -0.040 A 
HETATM   35  C   UNL     1      43.773 -19.312   4.705  1.00  0.00     0.012 A 
HETATM   36  C   UNL     1      43.960 -20.110   3.576  1.00  0.00     0.043 A 
HETATM   37  C   UNL     1      43.616 -19.618   2.324  1.00  0.00     0.116 A 
HETATM   38  F   UNL     1      43.795 -20.384   1.241  1.00  0.00    -0.206 F 
HETATM   39  C   UNL     1      43.085 -18.341   2.180  1.00  0.00     0.043 A 
HETATM   40  C   UNL     1      42.889 -17.544   3.309  1.00  0.00     0.012 A 
ENDBRANCH  33  34
ENDBRANCH  30  33
ENDBRANCH  12  29
TORSDOF 6
ENDMDL
MODEL 4
REMARK VINA RESULT:      -9.3      5.010      8.924
REMARK  6 active torsions:
REMARK  status: ('A' for Active; 'I' for Inactive)
REMARK    1  A    between atoms: C_8  and  C_9 
REMARK    2  A    between atoms: N_10  and  N_11 
REMARK    3  A    between atoms: C_22  and  C_23 
REMARK       I    between atoms: C_23  and  N_24 
REMARK    4  A    between atoms: N_24  and  C_25 
REMARK    5  A    between atoms: C_25  and  C_26 
REMARK    6  A    between atoms: C_34  and  N_35 
ROOT
HETATM    1  N   UNL     1      43.210 -10.554   5.791  1.00  0.00    -0.197 N 
HETATM    2  C   UNL     1      42.222  -9.739   6.310  1.00  0.00     0.183 A 
HETATM    3  C   UNL     1      42.407  -9.688   7.687  1.00  0.00     0.125 A 
HETATM    4  N   UNL     1      41.554  -8.988   8.480  1.00  0.00    -0.242 NA
HETATM    5  C   UNL     1      40.559  -8.366   7.831  1.00  0.00     0.086 A 
HETATM    6  C   UNL     1      40.400  -8.431   6.422  1.00  0.00     0.088 A 
HETATM    7  N   UNL     1      41.229  -9.124   5.626  1.00  0.00    -0.225 NA
HETATM    8  C   UNL     1      39.651  -7.626   8.577  1.00  0.00     0.034 A 
HETATM    9  C   UNL     1      38.590  -6.946   7.974  1.00  0.00     0.002 A 
HETATM   10  C   UNL     1      38.435  -7.008   6.597  1.00  0.00     0.002 A 
HETATM   11  C   UNL     1      39.339  -7.751   5.836  1.00  0.00     0.034 A 
HETATM   12  C   UNL     1      43.572 -10.434   8.014  1.00  0.00     0.110 A 
HETATM   13  C   UNL     1      44.089 -10.901   6.813  1.00  0.00     0.143 A 
ENDROOT
BRANCH   1  14
HETATM   14  N   UNL     1      43.398 -10.918   4.492  1.00  0.00    -0.176 NA
HETATM   15  C   UNL     1      42.593 -11.804   3.982  1.00  0.00     0.153 C 
BRANCH  15  16
HETATM   16  C   UNL     1      41.641 -12.701   4.626  1.00  0.00     0.011 A 
HETATM   17  C   UNL     1      41.991 -13.846   5.427  1.00  0.00     0.004 A 
HETATM   18  C   UNL     1      43.212 -14.446   5.803  1.00  0.00     0.014 A 
HETATM   19  C   UNL     1      40.808 -14.416   5.899  1.00  0.00     0.043 A 
HETATM   20  C   UNL     1      43.205 -15.573   6.635  1.00  0.00     0.001 A 
HETATM   21  C   UNL     1      42.005 -16.116   7.084  1.00  0.00     0.002 A 
HETATM   22  C   UNL     1      40.780 -15.551   6.720  1.00  0.00     0.030 A 
HETATM   23  N   UNL     1      39.773 -13.658   5.411  1.00  0.00    -0.364 N 
HETATM   24  H   UNL     1      38.794 -13.839   5.588  1.00  0.00     0.165 HD
HETATM   25  C   UNL     1      40.263 -12.593   4.701  1.00  0.00     0.102 A 
ENDBRANCH  15  16
ENDBRANCH   1  14
BRANCH  13  26
HETATM   26  N   UNL     1      45.189 -11.663   6.539  1.00  0.00    -0.383 N 
HETATM   27  H   UNL     1      45.989 -11.223   6.087  1.00  0.00     0.157 HD
HETATM   28  H   UNL     1      45.490 -12.292   7.290  1.00  0.00     0.157 HD
ENDBRANCH  13  26
BRANCH  12  29
HETATM   29  C   UNL     1      44.108 -10.681   9.341  1.00  0.00     0.258 C 
HETATM   30  N   UNL     1      43.159 -10.707  10.337  1.00  0.00    -0.352 N 
HETATM   31  H   UNL     1      42.193 -10.548  10.069  1.00  0.00     0.163 HD
HETATM   32  O   UNL     1      45.308 -10.804   9.560  1.00  0.00    -0.267 OA
BRANCH  30  33
HETATM   33  C   UNL     1      43.527 -10.674  11.730  1.00  0.00     0.161 C 
BRANCH  33  34
HETATM   34  C   UNL     1      42.783  -9.607  12.491  1.00  0.00    -0.040 A 
HETATM   35  C   UNL     1      41.497  -9.871  12.992  1.00  0.00     0.012 A 
HETATM   36  C   UNL     1      40.807  -8.901  13.719  1.00  0.00     0.043 A 
HETATM   37  C   UNL     1      41.396  -7.663  13.943  1.00  0.00     0.116 A 
HETATM   38  F   UNL     1      40.733  -6.733  14.640  1.00  0.00    -0.206 F 
HETATM   39  C   UNL     1      42.666  -7.378  13.455  1.00  0.00     0.043 A 
HETATM   40  C   UNL     1      43.363  -8.350  12.734  1.00  0.00     0.012 A 
ENDBRANCH  33  34
ENDBRANCH  30  33
ENDBRANCH  12  29
TORSDOF 6
ENDMDL
MODEL 5
REMARK VINA RESULT:      -9.1      3.470      7.421
REMARK  6 active torsions:
REMARK  status: ('A' for Active; 'I' for Inactive)
REMARK    1  A    between atoms: C_8  and  C_9 
REMARK    2  A    between atoms: N_10  and  N_11 
REMARK    3  A    between atoms: C_22  and  C_23 
REMARK       I    between atoms: C_23  and  N_24 
REMARK    4  A    between atoms: N_24  and  C_25 
REMARK    5  A    between atoms: C_25  and  C_26 
REMARK    6  A    between atoms: C_34  and  N_35 
ROOT
HETATM    1  N   UNL     1      39.740 -13.606   3.046  1.00  0.00    -0.197 N 
HETATM    2  C   UNL     1      40.671 -14.627   3.078  1.00  0.00     0.183 A 
HETATM    3  C   UNL     1      40.896 -15.025   1.766  1.00  0.00     0.125 A 
HETATM    4  N   UNL     1      41.743 -16.049   1.483  1.00  0.00    -0.242 NA
HETATM    5  C   UNL     1      42.328 -16.612   2.550  1.00  0.00     0.086 A 
HETATM    6  C   UNL     1      42.083 -16.179   3.880  1.00  0.00     0.088 A 
HETATM    7  N   UNL     1      41.244 -15.174   4.176  1.00  0.00    -0.225 NA
HETATM    8  C   UNL     1      43.211 -17.662   2.337  1.00  0.00     0.034 A 
HETATM    9  C   UNL     1      43.863 -18.297   3.397  1.00  0.00     0.002 A 
HETATM   10  C   UNL     1      43.625 -17.873   4.696  1.00  0.00     0.002 A 
HETATM   11  C   UNL     1      42.738 -16.820   4.925  1.00  0.00     0.034 A 
HETATM   12  C   UNL     1      40.137 -14.189   0.904  1.00  0.00     0.110 A 
HETATM   13  C   UNL     1      39.484 -13.273   1.719  1.00  0.00     0.143 A 
ENDROOT
BRANCH   1  14
HETATM   14  N   UNL     1      39.194 -12.937   4.100  1.00  0.00    -0.176 NA
HETATM   15  C   UNL     1      39.858 -11.936   4.600  1.00  0.00     0.153 C 
BRANCH  15  16
HETATM   16  C   UNL     1      41.243 -11.523   4.402  1.00  0.00     0.011 A 
HETATM   17  C   UNL     1      42.344 -11.879   5.259  1.00  0.00     0.004 A 
HETATM   18  C   UNL     1      42.462 -12.629   6.450  1.00  0.00     0.014 A 
HETATM   19  C   UNL     1      43.506 -11.332   4.712  1.00  0.00     0.043 A 
HETATM   20  C   UNL     1      43.721 -12.808   7.036  1.00  0.00     0.001 A 
HETATM   21  C   UNL     1      44.857 -12.244   6.463  1.00  0.00     0.002 A 
HETATM   22  C   UNL     1      44.771 -11.489   5.291  1.00  0.00     0.030 A 
HETATM   23  N   UNL     1      43.138 -10.666   3.570  1.00  0.00    -0.364 N 
HETATM   24  H   UNL     1      43.775 -10.166   2.965  1.00  0.00     0.165 HD
HETATM   25  C   UNL     1      41.797 -10.828   3.341  1.00  0.00     0.102 A 
ENDBRANCH  15  16
ENDBRANCH   1  14
BRANCH  13  26
HETATM   26  N   UNL     1      38.631 -12.248   1.425  1.00  0.00    -0.383 N 
HETATM   27  H   UNL     1      38.059 -11.858   2.172  1.00  0.00     0.157 HD
HETATM   28  H   UNL     1      39.018 -11.507   0.832  1.00  0.00     0.157 HD
ENDBRANCH  13  26
BRANCH  12  29
HETATM   29  C   UNL     1      40.040 -14.281  -0.542  1.00  0.00     0.258 C 
HETATM   30  N   UNL     1      40.855 -13.402  -1.219  1.00  0.00    -0.352 N 
HETATM   31  H   UNL     1      41.432 -12.778  -0.666  1.00  0.00     0.163 HD
HETATM   32  O   UNL     1      39.261 -15.039  -1.109  1.00  0.00    -0.267 OA
BRANCH  30  33
HETATM   33  C   UNL     1      40.702 -13.168  -2.632  1.00  0.00     0.161 C 
BRANCH  33  34
HETATM   34  C   UNL     1      40.026 -11.852  -2.922  1.00  0.00    -0.040 A 
HETATM   35  C   UNL     1      40.781 -10.764  -3.389  1.00  0.00     0.012 A 
HETATM   36  C   UNL     1      40.164  -9.547  -3.683  1.00  0.00     0.043 A 
HETATM   37  C   UNL     1      38.793  -9.413  -3.506  1.00  0.00     0.116 A 
HETATM   38  F   UNL     1      38.203  -8.246  -3.788  1.00  0.00    -0.206 F 
HETATM   39  C   UNL     1      38.025 -10.475  -3.042  1.00  0.00     0.043 A 
HETATM   40  C   UNL     1      38.639 -11.696  -2.755  1.00  0.00     0.012 A 
ENDBRANCH  33  34
ENDBRANCH  30  33
ENDBRANCH  12  29
TORSDOF 6
ENDMDL
MODEL 6
REMARK VINA RESULT:      -9.1      1.748      2.262
REMARK  6 active torsions:
REMARK  status: ('A' for Active; 'I' for Inactive)
REMARK    1  A    between atoms: C_8  and  C_9 
REMARK    2  A    between atoms: N_10  and  N_11 
REMARK    3  A    between atoms: C_22  and  C_23 
REMARK       I    between atoms: C_23  and  N_24 
REMARK    4  A    between atoms: N_24  and  C_25 
REMARK    5  A    between atoms: C_25  and  C_26 
REMARK    6  A    between atoms: C_34  and  N_35 
ROOT
HETATM    1  N   UNL     1      40.645 -12.550   5.639  1.00  0.00    -0.197 N 
HETATM    2  C   UNL     1      41.902 -12.098   5.994  1.00  0.00     0.183 A 
HETATM    3  C   UNL     1      42.814 -12.672   5.116  1.00  0.00     0.125 A 
HETATM    4  N   UNL     1      44.146 -12.443   5.244  1.00  0.00    -0.242 NA
HETATM    5  C   UNL     1      44.486 -11.629   6.256  1.00  0.00     0.086 A 
HETATM    6  C   UNL     1      43.531 -11.051   7.133  1.00  0.00     0.088 A 
HETATM    7  N   UNL     1      42.212 -11.275   7.024  1.00  0.00    -0.225 NA
HETATM    8  C   UNL     1      45.832 -11.343   6.444  1.00  0.00     0.034 A 
HETATM    9  C   UNL     1      46.264 -10.502   7.472  1.00  0.00     0.002 A 
HETATM   10  C   UNL     1      45.332  -9.936   8.328  1.00  0.00     0.002 A 
HETATM   11  C   UNL     1      43.976 -10.217   8.151  1.00  0.00     0.034 A 
HETATM   12  C   UNL     1      42.096 -13.442   4.161  1.00  0.00     0.110 A 
HETATM   13  C   UNL     1      40.749 -13.292   4.467  1.00  0.00     0.143 A 
ENDROOT
BRANCH   1  14
HETATM   14  N   UNL     1      39.455 -12.275   6.244  1.00  0.00    -0.176 NA
HETATM   15  C   UNL     1      38.825 -11.194   5.891  1.00  0.00     0.153 C 
BRANCH  15  16
HETATM   16  C   UNL     1      39.276 -10.042   5.119  1.00  0.00     0.011 A 
HETATM   17  C   UNL     1      39.039  -9.844   3.712  1.00  0.00     0.004 A 
HETATM   18  C   UNL     1      38.398 -10.599   2.706  1.00  0.00     0.014 A 
HETATM   19  C   UNL     1      39.587  -8.610   3.356  1.00  0.00     0.043 A 
HETATM   20  C   UNL     1      38.321 -10.094   1.402  1.00  0.00     0.001 A 
HETATM   21  C   UNL     1      38.881  -8.860   1.084  1.00  0.00     0.002 A 
HETATM   22  C   UNL     1      39.531  -8.095   2.055  1.00  0.00     0.030 A 
HETATM   23  N   UNL     1      40.138  -8.071   4.493  1.00  0.00    -0.364 N 
HETATM   24  H   UNL     1      40.611  -7.179   4.535  1.00  0.00     0.165 HD
HETATM   25  C   UNL     1      39.902  -8.891   5.565  1.00  0.00     0.102 A 
ENDBRANCH  15  16
ENDBRANCH   1  14
BRANCH  13  26
HETATM   26  N   UNL     1      39.627 -13.806   3.881  1.00  0.00    -0.383 N 
HETATM   27  H   UNL     1      39.644 -14.770   3.555  1.00  0.00     0.157 HD
HETATM   28  H   UNL     1      38.744 -13.592   4.354  1.00  0.00     0.157 HD
ENDBRANCH  13  26
BRANCH  12  29
HETATM   29  C   UNL     1      42.654 -14.247   3.089  1.00  0.00     0.258 C 
HETATM   30  N   UNL     1      42.437 -15.599   3.227  1.00  0.00    -0.352 N 
HETATM   31  H   UNL     1      41.928 -15.911   4.047  1.00  0.00     0.163 HD
HETATM   32  O   UNL     1      43.306 -13.767   2.168  1.00  0.00    -0.267 OA
BRANCH  30  33
HETATM   33  C   UNL     1      43.136 -16.561   2.413  1.00  0.00     0.161 C 
BRANCH  33  34
HETATM   34  C   UNL     1      43.481 -17.813   3.179  1.00  0.00    -0.040 A 
HETATM   35  C   UNL     1      43.721 -17.745   4.561  1.00  0.00     0.012 A 
HETATM   36  C   UNL     1      44.019 -18.899   5.286  1.00  0.00     0.043 A 
HETATM   37  C   UNL     1      44.083 -20.123   4.632  1.00  0.00     0.116 A 
HETATM   38  F   UNL     1      44.369 -21.230   5.328  1.00  0.00    -0.206 F 
HETATM   39  C   UNL     1      43.851 -20.214   3.264  1.00  0.00     0.043 A 
HETATM   40  C   UNL     1      43.545 -19.062   2.538  1.00  0.00     0.012 A 
ENDBRANCH  33  34
ENDBRANCH  30  33
ENDBRANCH  12  29
TORSDOF 6
ENDMDL
MODEL 7
REMARK VINA RESULT:      -9.0      2.210      3.231
REMARK  6 active torsions:
REMARK  status: ('A' for Active; 'I' for Inactive)
REMARK    1  A    between atoms: C_8  and  C_9 
REMARK    2  A    between atoms: N_10  and  N_11 
REMARK    3  A    between atoms: C_22  and  C_23 
REMARK       I    between atoms: C_23  and  N_24 
REMARK    4  A    between atoms: N_24  and  C_25 
REMARK    5  A    between atoms: C_25  and  C_26 
REMARK    6  A    between atoms: C_34  and  N_35 
ROOT
HETATM    1  N   UNL     1      40.266 -12.028   5.550  1.00  0.00    -0.197 N 
HETATM    2  C   UNL     1      41.573 -11.749   5.898  1.00  0.00     0.183 A 
HETATM    3  C   UNL     1      42.395 -12.437   5.012  1.00  0.00     0.125 A 
HETATM    4  N   UNL     1      43.747 -12.387   5.132  1.00  0.00    -0.242 NA
HETATM    5  C   UNL     1      44.199 -11.630   6.143  1.00  0.00     0.086 A 
HETATM    6  C   UNL     1      43.335 -10.933   7.028  1.00  0.00     0.088 A 
HETATM    7  N   UNL     1      41.997 -10.979   6.928  1.00  0.00    -0.225 NA
HETATM    8  C   UNL     1      45.572 -11.527   6.323  1.00  0.00     0.034 A 
HETATM    9  C   UNL     1      46.119 -10.755   7.350  1.00  0.00     0.002 A 
HETATM   10  C   UNL     1      45.276 -10.073   8.215  1.00  0.00     0.002 A 
HETATM   11  C   UNL     1      43.894 -10.170   8.046  1.00  0.00     0.034 A 
HETATM   12  C   UNL     1      41.575 -13.101   4.060  1.00  0.00     0.110 A 
HETATM   13  C   UNL     1      40.262 -12.774   4.375  1.00  0.00     0.143 A 
ENDROOT
BRANCH   1  14
HETATM   14  N   UNL     1      39.127 -11.600   6.164  1.00  0.00    -0.176 NA
HETATM   15  C   UNL     1      38.620 -10.462   5.789  1.00  0.00     0.153 C 
BRANCH  15  16
HETATM   16  C   UNL     1      39.189  -9.393   4.976  1.00  0.00     0.011 A 
HETATM   17  C   UNL     1      40.029  -8.333   5.472  1.00  0.00     0.004 A 
HETATM   18  C   UNL     1      40.515  -7.979   6.749  1.00  0.00     0.014 A 
HETATM   19  C   UNL     1      40.403  -7.540   4.386  1.00  0.00     0.043 A 
HETATM   20  C   UNL     1      41.354  -6.866   6.889  1.00  0.00     0.001 A 
HETATM   21  C   UNL     1      41.704  -6.098   5.783  1.00  0.00     0.002 A 
HETATM   22  C   UNL     1      41.230  -6.417   4.508  1.00  0.00     0.030 A 
HETATM   23  N   UNL     1      39.820  -8.086   3.269  1.00  0.00    -0.364 N 
HETATM   24  H   UNL     1      39.914  -7.717   2.333  1.00  0.00     0.165 HD
HETATM   25  C   UNL     1      39.144  -9.230   3.602  1.00  0.00     0.102 A 
ENDBRANCH  15  16
ENDBRANCH   1  14
BRANCH  13  26
HETATM   26  N   UNL     1      39.078 -13.131   3.796  1.00  0.00    -0.383 N 
HETATM   27  H   UNL     1      38.430 -13.711   4.325  1.00  0.00     0.157 HD
HETATM   28  H   UNL     1      38.583 -12.381   3.303  1.00  0.00     0.157 HD
ENDBRANCH  13  26
BRANCH  12  29
HETATM   29  C   UNL     1      42.014 -13.968   2.982  1.00  0.00     0.258 C 
HETATM   30  N   UNL     1      42.515 -15.180   3.402  1.00  0.00    -0.352 N 
HETATM   31  H   UNL     1      42.542 -15.355   4.400  1.00  0.00     0.163 HD
HETATM   32  O   UNL     1      41.988 -13.631   1.803  1.00  0.00    -0.267 OA
BRANCH  30  33
HETATM   33  C   UNL     1      43.234 -16.050   2.505  1.00  0.00     0.161 C 
BRANCH  33  34
HETATM   34  C   UNL     1      43.486 -17.408   3.107  1.00  0.00    -0.040 A 
HETATM   35  C   UNL     1      43.381 -18.559   2.309  1.00  0.00     0.012 A 
HETATM   36  C   UNL     1      43.634 -19.821   2.848  1.00  0.00     0.043 A 
HETATM   37  C   UNL     1      43.986 -19.936   4.187  1.00  0.00     0.116 A 
HETATM   38  F   UNL     1      44.229 -21.147   4.703  1.00  0.00    -0.206 F 
HETATM   39  C   UNL     1      44.094 -18.812   4.997  1.00  0.00     0.043 A 
HETATM   40  C   UNL     1      43.849 -17.548   4.458  1.00  0.00     0.012 A 
ENDBRANCH  33  34
ENDBRANCH  30  33
ENDBRANCH  12  29
TORSDOF 6
ENDMDL
MODEL 8
REMARK VINA RESULT:      -8.9      2.485      5.193
REMARK  6 active torsions:
REMARK  status: ('A' for Active; 'I' for Inactive)
REMARK    1  A    between atoms: C_8  and  C_9 
REMARK    2  A    between atoms: N_10  and  N_11 
REMARK    3  A    between atoms: C_22  and  C_23 
REMARK       I    between atoms: C_23  and  N_24 
REMARK    4  A    between atoms: N_24  and  C_25 
REMARK    5  A    between atoms: C_25  and  C_26 
REMARK    6  A    between atoms: C_34  and  N_35 
ROOT
HETATM    1  N   UNL     1      41.553 -11.200   1.283  1.00  0.00    -0.197 N 
HETATM    2  C   UNL     1      40.934 -12.180   0.531  1.00  0.00     0.183 A 
HETATM    3  C   UNL     1      40.844 -13.318   1.323  1.00  0.00     0.125 A 
HETATM    4  N   UNL     1      40.312 -14.469   0.835  1.00  0.00    -0.242 NA
HETATM    5  C   UNL     1      39.887 -14.402  -0.435  1.00  0.00     0.086 A 
HETATM    6  C   UNL     1      39.986 -13.222  -1.219  1.00  0.00     0.088 A 
HETATM    7  N   UNL     1      40.517 -12.080  -0.753  1.00  0.00    -0.225 NA
HETATM    8  C   UNL     1      39.325 -15.539  -1.000  1.00  0.00     0.034 A 
HETATM    9  C   UNL     1      38.856 -15.547  -2.316  1.00  0.00     0.002 A 
HETATM   10  C   UNL     1      38.952 -14.394  -3.081  1.00  0.00     0.002 A 
HETATM   11  C   UNL     1      39.516 -13.245  -2.526  1.00  0.00     0.034 A 
HETATM   12  C   UNL     1      41.360 -13.012   2.612  1.00  0.00     0.110 A 
HETATM   13  C   UNL     1      41.728 -11.673   2.581  1.00  0.00     0.143 A 
ENDROOT
BRANCH   1  14
HETATM   14  N   UNL     1      41.882  -9.934   0.902  1.00  0.00    -0.176 NA
HETATM   15  C   UNL     1      41.009  -8.990   1.097  1.00  0.00     0.153 C 
BRANCH  15  16
HETATM   16  C   UNL     1      39.592  -9.064   1.434  1.00  0.00     0.011 A 
HETATM   17  C   UNL     1      38.524  -9.261   0.489  1.00  0.00     0.004 A 
HETATM   18  C   UNL     1      38.467  -9.407  -0.914  1.00  0.00     0.014 A 
HETATM   19  C   UNL     1      37.326  -9.319   1.203  1.00  0.00     0.043 A 
HETATM   20  C   UNL     1      37.231  -9.612  -1.541  1.00  0.00     0.001 A 
HETATM   21  C   UNL     1      36.057  -9.661  -0.797  1.00  0.00     0.002 A 
HETATM   22  C   UNL     1      36.080  -9.509   0.592  1.00  0.00     0.030 A 
HETATM   23  N   UNL     1      37.640  -9.162   2.530  1.00  0.00    -0.364 N 
HETATM   24  H   UNL     1      36.967  -9.157   3.284  1.00  0.00     0.165 HD
HETATM   25  C   UNL     1      38.999  -9.073   2.685  1.00  0.00     0.102 A 
ENDBRANCH  15  16
ENDBRANCH   1  14
BRANCH  13  26
HETATM   26  N   UNL     1      42.274 -10.864   3.536  1.00  0.00    -0.383 N 
HETATM   27  H   UNL     1      42.031  -9.874   3.535  1.00  0.00     0.157 HD
HETATM   28  H   UNL     1      42.277 -11.242   4.488  1.00  0.00     0.157 HD
ENDBRANCH  13  26
BRANCH  12  29
HETATM   29  C   UNL     1      41.498 -13.920   3.737  1.00  0.00     0.258 C 
HETATM   30  N   UNL     1      42.768 -14.424   3.902  1.00  0.00    -0.352 N 
HETATM   31  H   UNL     1      43.478 -14.133   3.238  1.00  0.00     0.163 HD
HETATM   32  O   UNL     1      40.553 -14.248   4.447  1.00  0.00    -0.267 OA
BRANCH  30  33
HETATM   33  C   UNL     1      43.031 -15.529   4.789  1.00  0.00     0.161 C 
BRANCH  33  34
HETATM   34  C   UNL     1      43.254 -16.819   4.043  1.00  0.00    -0.040 A 
HETATM   35  C   UNL     1      42.622 -17.032   2.806  1.00  0.00     0.012 A 
HETATM   36  C   UNL     1      42.837 -18.212   2.094  1.00  0.00     0.043 A 
HETATM   37  C   UNL     1      43.681 -19.184   2.616  1.00  0.00     0.116 A 
HETATM   38  F   UNL     1      43.887 -20.315   1.932  1.00  0.00    -0.206 F 
HETATM   39  C   UNL     1      44.316 -18.997   3.838  1.00  0.00     0.043 A 
HETATM   40  C   UNL     1      44.108 -17.814   4.550  1.00  0.00     0.012 A 
ENDBRANCH  33  34
ENDBRANCH  30  33
ENDBRANCH  12  29
TORSDOF 6
ENDMDL
MODEL 9
REMARK VINA RESULT:      -8.9      2.754      5.329
REMARK  6 active torsions:
REMARK  status: ('A' for Active; 'I' for Inactive)
REMARK    1  A    between atoms: C_8  and  C_9 
REMARK    2  A    between atoms: N_10  and  N_11 
REMARK    3  A    between atoms: C_22  and  C_23 
REMARK       I    between atoms: C_23  and  N_24 
REMARK    4  A    between atoms: N_24  and  C_25 
REMARK    5  A    between atoms: C_25  and  C_26 
REMARK    6  A    between atoms: C_34  and  N_35 
ROOT
HETATM    1  N   UNL     1      38.333 -10.706   1.730  1.00  0.00    -0.197 N 
HETATM    2  C   UNL     1      38.478 -11.674   0.755  1.00  0.00     0.183 A 
HETATM    3  C   UNL     1      39.317 -12.658   1.266  1.00  0.00     0.125 A 
HETATM    4  N   UNL     1      39.677 -13.728   0.512  1.00  0.00    -0.242 NA
HETATM    5  C   UNL     1      39.158 -13.751  -0.725  1.00  0.00     0.086 A 
HETATM    6  C   UNL     1      38.298 -12.734  -1.217  1.00  0.00     0.088 A 
HETATM    7  N   UNL     1      37.939 -11.667  -0.487  1.00  0.00    -0.225 NA
HETATM    8  C   UNL     1      39.478 -14.820  -1.552  1.00  0.00     0.034 A 
HETATM    9  C   UNL     1      38.974 -14.917  -2.850  1.00  0.00     0.002 A 
HETATM   10  C   UNL     1      38.133 -13.925  -3.332  1.00  0.00     0.002 A 
HETATM   11  C   UNL     1      37.805 -12.844  -2.512  1.00  0.00     0.034 A 
HETATM   12  C   UNL     1      39.642 -12.320   2.607  1.00  0.00     0.110 A 
HETATM   13  C   UNL     1      38.963 -11.142   2.892  1.00  0.00     0.143 A 
ENDROOT
BRANCH   1  14
HETATM   14  N   UNL     1      37.630  -9.542   1.657  1.00  0.00    -0.176 NA
HETATM   15  C   UNL     1      38.167  -8.541   1.023  1.00  0.00     0.153 C 
BRANCH  15  16
HETATM   16  C   UNL     1      39.535  -8.334   0.563  1.00  0.00     0.011 A 
HETATM   17  C   UNL     1      39.983  -8.480  -0.798  1.00  0.00     0.004 A 
HETATM   18  C   UNL     1      39.354  -8.852  -2.006  1.00  0.00     0.014 A 
HETATM   19  C   UNL     1      41.340  -8.155  -0.838  1.00  0.00     0.043 A 
HETATM   20  C   UNL     1      40.094  -8.874  -3.195  1.00  0.00     0.001 A 
HETATM   21  C   UNL     1      41.446  -8.546  -3.197  1.00  0.00     0.002 A 
HETATM   22  C   UNL     1      42.098  -8.185  -2.015  1.00  0.00     0.030 A 
HETATM   23  N   UNL     1      41.713  -7.823   0.441  1.00  0.00    -0.364 N 
HETATM   24  H   UNL     1      42.646  -7.547   0.714  1.00  0.00     0.165 HD
HETATM   25  C   UNL     1      40.626  -7.866   1.274  1.00  0.00     0.102 A 
ENDBRANCH  15  16
ENDBRANCH   1  14
BRANCH  13  26
HETATM   26  N   UNL     1      38.914 -10.379   4.024  1.00  0.00    -0.383 N 
HETATM   27  H   UNL     1      38.596 -10.809   4.891  1.00  0.00     0.157 HD
HETATM   28  H   UNL     1      39.728  -9.778   4.189  1.00  0.00     0.157 HD
ENDBRANCH  13  26
BRANCH  12  29
HETATM   29  C   UNL     1      40.526 -13.045   3.502  1.00  0.00     0.258 C 
HETATM   30  N   UNL     1      40.227 -14.383   3.628  1.00  0.00    -0.352 N 
HETATM   31  H   UNL     1      39.431 -14.736   3.107  1.00  0.00     0.163 HD
HETATM   32  O   UNL     1      41.430 -12.503   4.129  1.00  0.00    -0.267 OA
BRANCH  30  33
HETATM   33  C   UNL     1      40.820 -15.194   4.661  1.00  0.00     0.161 C 
BRANCH  33  34
HETATM   34  C   UNL     1      41.809 -16.188   4.109  1.00  0.00    -0.040 A 
HETATM   35  C   UNL     1      42.776 -16.758   4.953  1.00  0.00     0.012 A 
HETATM   36  C   UNL     1      43.683 -17.696   4.460  1.00  0.00     0.043 A 
HETATM   37  C   UNL     1      43.630 -18.063   3.122  1.00  0.00     0.116 A 
HETATM   38  F   UNL     1      44.501 -18.964   2.650  1.00  0.00    -0.206 F 
HETATM   39  C   UNL     1      42.684 -17.511   2.266  1.00  0.00     0.043 A 
HETATM   40  C   UNL     1      41.770 -16.578   2.759  1.00  0.00     0.012 A 
ENDBRANCH  33  34
ENDBRANCH  30  33
ENDBRANCH  12  29
TORSDOF 6
ENDMDL
MODEL 10
REMARK VINA RESULT:      -8.8      2.914      5.954
REMARK  6 active torsions:
REMARK  status: ('A' for Active; 'I' for Inactive)
REMARK    1  A    between atoms: C_8  and  C_9 
REMARK    2  A    between atoms: N_10  and  N_11 
REMARK    3  A    between atoms: C_22  and  C_23 
REMARK       I    between atoms: C_23  and  N_24 
REMARK    4  A    between atoms: N_24  and  C_25 
REMARK    5  A    between atoms: C_25  and  C_26 
REMARK    6  A    between atoms: C_34  and  N_35 
ROOT
HETATM    1  N   UNL     1      39.608  -9.672   0.817  1.00  0.00    -0.197 N 
HETATM    2  C   UNL     1      39.421 -10.854   0.126  1.00  0.00     0.183 A 
HETATM    3  C   UNL     1      40.351 -11.768   0.605  1.00  0.00     0.125 A 
HETATM    4  N   UNL     1      40.436 -13.018   0.082  1.00  0.00    -0.242 NA
HETATM    5  C   UNL     1      39.560 -13.282  -0.900  1.00  0.00     0.086 A 
HETATM    6  C   UNL     1      38.615 -12.329  -1.364  1.00  0.00     0.088 A 
HETATM    7  N   UNL     1      38.525 -11.087  -0.862  1.00  0.00    -0.225 NA
HETATM    8  C   UNL     1      39.583 -14.544  -1.479  1.00  0.00     0.034 A 
HETATM    9  C   UNL     1      38.700 -14.895  -2.503  1.00  0.00     0.002 A 
HETATM   10  C   UNL     1      37.776 -13.965  -2.956  1.00  0.00     0.002 A 
HETATM   11  C   UNL     1      37.744 -12.692  -2.384  1.00  0.00     0.034 A 
HETATM   12  C   UNL     1      41.083 -11.156   1.659  1.00  0.00     0.110 A 
HETATM   13  C   UNL     1      40.555  -9.881   1.816  1.00  0.00     0.143 A 
ENDROOT
BRANCH   1  14
HETATM   14  N   UNL     1      38.945  -8.493   0.655  1.00  0.00    -0.176 NA
HETATM   15  C   UNL     1      39.372  -7.671  -0.259  1.00  0.00     0.153 C 
BRANCH  15  16
HETATM   16  C   UNL     1      40.621  -7.655  -1.011  1.00  0.00     0.011 A 
HETATM   17  C   UNL     1      41.714  -6.745  -0.784  1.00  0.00     0.004 A 
HETATM   18  C   UNL     1      41.931  -5.671   0.106  1.00  0.00     0.014 A 
HETATM   19  C   UNL     1      42.739  -7.077  -1.672  1.00  0.00     0.043 A 
HETATM   20  C   UNL     1      43.151  -4.984   0.082  1.00  0.00     0.001 A 
HETATM   21  C   UNL     1      44.149  -5.342  -0.820  1.00  0.00     0.002 A 
HETATM   22  C   UNL     1      43.960  -6.394  -1.720  1.00  0.00     0.030 A 
HETATM   23  N   UNL     1      42.298  -8.144  -2.415  1.00  0.00    -0.364 N 
HETATM   24  H   UNL     1      42.832  -8.597  -3.144  1.00  0.00     0.165 HD
HETATM   25  C   UNL     1      41.058  -8.538  -1.984  1.00  0.00     0.102 A 
ENDBRANCH  15  16
ENDBRANCH   1  14
BRANCH  13  26
HETATM   26  N   UNL     1      40.876  -8.869   2.675  1.00  0.00    -0.383 N 
HETATM   27  H   UNL     1      41.792  -8.877   3.120  1.00  0.00     0.157 HD
HETATM   28  H   UNL     1      40.627  -7.926   2.361  1.00  0.00     0.157 HD
ENDBRANCH  13  26
BRANCH  12  29
HETATM   29  C   UNL     1      42.182 -11.734   2.411  1.00  0.00     0.258 C 
HETATM   30  N   UNL     1      41.972 -13.037   2.804  1.00  0.00    -0.352 N 
HETATM   31  H   UNL     1      41.090 -13.467   2.548  1.00  0.00     0.163 HD
HETATM   32  O   UNL     1      43.187 -11.100   2.714  1.00  0.00    -0.267 OA
BRANCH  30  33
HETATM   33  C   UNL     1      42.825 -13.678   3.772  1.00  0.00     0.161 C 
BRANCH  33  34
HETATM   34  C   UNL     1      43.053 -15.134   3.455  1.00  0.00    -0.040 A 
HETATM   35  C   UNL     1      43.019 -15.575   2.122  1.00  0.00     0.012 A 
HETATM   36  C   UNL     1      43.252 -16.915   1.812  1.00  0.00     0.043 A 
HETATM   37  C   UNL     1      43.513 -17.819   2.834  1.00  0.00     0.116 A 
HETATM   38  F   UNL     1      43.736 -19.105   2.536  1.00  0.00    -0.206 F 
HETATM   39  C   UNL     1      43.550 -17.407   4.161  1.00  0.00     0.043 A 
HETATM   40  C   UNL     1      43.325 -16.065   4.473  1.00  0.00     0.012 A 
ENDBRANCH  33  34
ENDBRANCH  30  33
ENDBRANCH  12  29
TORSDOF 6
ENDMDL
