MODEL 1
REMARK VINA RESULT:      -8.7      0.000      0.000
REMARK  6 active torsions:
REMARK  status: ('A' for Active; 'I' for Inactive)
REMARK    1  A    between atoms: C_2  and  C_3 
REMARK    2  A    between atoms: C_3  and  C_4 
REMARK    3  A    between atoms: C_7  and  C_8 
REMARK    4  A    between atoms: C_14  and  C_15 
REMARK    5  A    between atoms: C_18  and  N_19 
REMARK       I    between atoms: N_19  and  C_20 
REMARK    6  A    between atoms: C_28  and  N_29 
ROOT
HETATM    1  C   UNL     1      40.173 -14.743   0.002  1.00  0.00     0.099 A 
HETATM    2  N   UNL     1      39.268 -15.410  -0.738  1.00  0.00    -0.172 NA
HETATM    3  N   UNL     1      38.936 -14.552  -1.722  1.00  0.00    -0.256 N 
HETATM    4  H   UNL     1      38.263 -14.845  -2.422  1.00  0.00     0.191 HD
HETATM    5  C   UNL     1      39.565 -13.355  -1.612  1.00  0.00     0.175 A 
HETATM    6  C   UNL     1      40.382 -13.435  -0.516  1.00  0.00     0.040 A 
HETATM    7  C   UNL     1      41.204 -12.254  -0.115  1.00  0.00     0.106 A 
HETATM    8  C   UNL     1      40.960 -11.083  -1.066  1.00  0.00     0.081 A 
HETATM    9  C   UNL     1      41.720  -9.900  -0.831  1.00  0.00     0.100 C 
HETATM   10  N   UNL     1      42.331  -8.931  -0.646  1.00  0.00    -0.191 NA
HETATM   11  C   UNL     1      40.114 -11.157  -2.132  1.00  0.00     0.140 A 
HETATM   12  O   UNL     1      39.379 -12.321  -2.423  1.00  0.00    -0.279 OA
ENDROOT
BRANCH   7  13
HETATM   13  C   UNL     1      40.846 -11.961   1.336  1.00  0.00    -0.044 A 
HETATM   14  C   UNL     1      39.533 -11.580   1.654  1.00  0.00     0.010 A 
HETATM   15  C   UNL     1      39.190 -11.174   2.948  1.00  0.00     0.030 A 
HETATM   16  C   UNL     1      40.146 -11.161   3.961  1.00  0.00     0.034 A 
HETATM   17  C   UNL     1      41.439 -11.612   3.671  1.00  0.00     0.030 A 
HETATM   18  C   UNL     1      41.787 -12.011   2.375  1.00  0.00     0.010 A 
BRANCH  16  19
HETATM   19  N   UNL     1      39.901 -10.691   5.267  1.00  0.00    -0.328 N 
HETATM   20  C   UNL     1      39.379 -11.403   6.333  1.00  0.00     0.218 C 
HETATM   21  C   UNL     1      39.188 -10.536   7.552  1.00  0.00     0.117 C 
HETATM   22  O   UNL     1      39.092 -12.594   6.362  1.00  0.00    -0.274 OA
HETATM   23  H   UNL     1      40.077  -9.706   5.421  1.00  0.00     0.169 HD
ENDBRANCH  16  19
ENDBRANCH   7  13
BRANCH  11  24
HETATM   24  N   UNL     1      39.880 -10.146  -3.036  1.00  0.00    -0.282 NA
HETATM   25  H   UNL     1      40.084 -10.364  -4.008  1.00  0.00     0.126 HD
HETATM   26  H   UNL     1      40.270  -9.257  -2.731  1.00  0.00     0.126 HD
ENDBRANCH  11  24
BRANCH   1  27
HETATM   27  C   UNL     1      40.748 -15.323   1.210  1.00  0.00    -0.005 A 
HETATM   28  C   UNL     1      42.120 -15.575   1.301  1.00  0.00     0.014 A 
HETATM   29  C   UNL     1      42.689 -15.974   2.516  1.00  0.00     0.008 A 
HETATM   30  C   UNL     1      41.898 -16.135   3.660  1.00  0.00    -0.058 A 
HETATM   31  C   UNL     1      40.510 -15.951   3.537  1.00  0.00     0.008 A 
HETATM   32  C   UNL     1      39.940 -15.546   2.327  1.00  0.00     0.014 A 
BRANCH  30  33
HETATM   33  C   UNL     1      42.446 -16.498   5.027  1.00  0.00     0.042 C 
BRANCH  33  34
HETATM   34  C   UNL     1      43.909 -16.988   5.112  1.00  0.00    -0.019 C 
HETATM   35  C   UNL     1      43.991 -18.518   5.133  1.00  0.00     0.010 C 
HETATM   36  C   UNL     1      44.576 -16.436   6.378  1.00  0.00     0.010 C 
ENDBRANCH  33  34
ENDBRANCH  30  33
ENDBRANCH   1  27
TORSDOF 6
ENDMDL
MODEL 2
REMARK VINA RESULT:      -8.7      3.042      7.178
REMARK  6 active torsions:
REMARK  status: ('A' for Active; 'I' for Inactive)
REMARK    1  A    between atoms: C_2  and  C_3 
REMARK    2  A    between atoms: C_3  and  C_4 
REMARK    3  A    between atoms: C_7  and  C_8 
REMARK    4  A    between atoms: C_14  and  C_15 
REMARK    5  A    between atoms: C_18  and  N_19 
REMARK       I    between atoms: N_19  and  C_20 
REMARK    6  A    between atoms: C_28  and  N_29 
ROOT
HETATM    1  C   UNL     1      40.067 -11.687   2.946  1.00  0.00     0.099 A 
HETATM    2  N   UNL     1      38.851 -11.302   3.377  1.00  0.00    -0.172 NA
HETATM    3  N   UNL     1      39.058 -10.863   4.633  1.00  0.00    -0.256 N 
HETATM    4  H   UNL     1      38.272 -10.507   5.164  1.00  0.00     0.191 HD
HETATM    5  C   UNL     1      40.349 -10.991   5.029  1.00  0.00     0.175 A 
HETATM    6  C   UNL     1      41.041 -11.512   3.969  1.00  0.00     0.040 A 
HETATM    7  C   UNL     1      42.502 -11.791   4.100  1.00  0.00     0.106 A 
HETATM    8  C   UNL     1      42.995 -11.424   5.499  1.00  0.00     0.081 A 
HETATM    9  C   UNL     1      44.388 -11.592   5.751  1.00  0.00     0.100 C 
HETATM   10  N   UNL     1      45.519 -11.730   5.967  1.00  0.00    -0.191 NA
HETATM   11  C   UNL     1      42.181 -10.900   6.458  1.00  0.00     0.140 A 
HETATM   12  O   UNL     1      40.809 -10.678   6.234  1.00  0.00    -0.279 OA
ENDROOT
BRANCH   7  13
HETATM   13  C   UNL     1      42.688 -13.259   3.740  1.00  0.00    -0.044 A 
HETATM   14  C   UNL     1      43.359 -13.593   2.553  1.00  0.00     0.010 A 
HETATM   15  C   UNL     1      43.439 -14.919   2.114  1.00  0.00     0.030 A 
HETATM   16  C   UNL     1      42.869 -15.946   2.864  1.00  0.00     0.034 A 
HETATM   17  C   UNL     1      42.265 -15.631   4.086  1.00  0.00     0.030 A 
HETATM   18  C   UNL     1      42.176 -14.304   4.524  1.00  0.00     0.010 A 
BRANCH  16  19
HETATM   19  N   UNL     1      42.836 -17.294   2.452  1.00  0.00    -0.328 N 
HETATM   20  C   UNL     1      43.601 -18.340   2.938  1.00  0.00     0.218 C 
HETATM   21  C   UNL     1      43.339 -19.625   2.194  1.00  0.00     0.117 C 
HETATM   22  O   UNL     1      44.407 -18.305   3.862  1.00  0.00    -0.274 OA
HETATM   23  H   UNL     1      42.220 -17.503   1.677  1.00  0.00     0.169 HD
ENDBRANCH  16  19
ENDBRANCH   7  13
BRANCH  11  24
HETATM   24  N   UNL     1      42.576 -10.525   7.722  1.00  0.00    -0.282 NA
HETATM   25  H   UNL     1      42.362 -11.184   8.467  1.00  0.00     0.126 HD
HETATM   26  H   UNL     1      42.310  -9.568   7.943  1.00  0.00     0.126 HD
ENDBRANCH  11  24
BRANCH   1  27
HETATM   27  C   UNL     1      40.259 -12.278   1.627  1.00  0.00    -0.005 A 
HETATM   28  C   UNL     1      39.858 -13.591   1.365  1.00  0.00     0.014 A 
HETATM   29  C   UNL     1      39.890 -14.095   0.061  1.00  0.00     0.008 A 
HETATM   30  C   UNL     1      40.329 -13.301  -1.006  1.00  0.00    -0.058 A 
HETATM   31  C   UNL     1      40.799 -12.007  -0.718  1.00  0.00     0.008 A 
HETATM   32  C   UNL     1      40.762 -11.499   0.583  1.00  0.00     0.014 A 
BRANCH  30  33
HETATM   33  C   UNL     1      40.331 -13.749  -2.454  1.00  0.00     0.042 C 
BRANCH  33  34
HETATM   34  C   UNL     1      38.971 -13.852  -3.181  1.00  0.00    -0.019 C 
HETATM   35  C   UNL     1      37.955 -12.852  -2.619  1.00  0.00     0.010 C 
HETATM   36  C   UNL     1      38.404 -15.270  -3.041  1.00  0.00     0.010 C 
ENDBRANCH  33  34
ENDBRANCH  30  33
ENDBRANCH   1  27
TORSDOF 6
ENDMDL
MODEL 3
REMARK VINA RESULT:      -8.4      2.395      6.240
REMARK  6 active torsions:
REMARK  status: ('A' for Active; 'I' for Inactive)
REMARK    1  A    between atoms: C_2  and  C_3 
REMARK    2  A    between atoms: C_3  and  C_4 
REMARK    3  A    between atoms: C_7  and  C_8 
REMARK    4  A    between atoms: C_14  and  C_15 
REMARK    5  A    between atoms: C_18  and  N_19 
REMARK       I    between atoms: N_19  and  C_20 
REMARK    6  A    between atoms: C_28  and  N_29 
ROOT
HETATM    1  C   UNL     1      43.017 -13.290   5.732  1.00  0.00     0.099 A 
HETATM    2  N   UNL     1      44.201 -13.093   6.341  1.00  0.00    -0.172 NA
HETATM    3  N   UNL     1      44.058 -11.922   6.991  1.00  0.00    -0.256 N 
HETATM    4  H   UNL     1      44.834 -11.568   7.539  1.00  0.00     0.191 HD
HETATM    5  C   UNL     1      42.845 -11.351   6.786  1.00  0.00     0.175 A 
HETATM    6  C   UNL     1      42.134 -12.203   5.984  1.00  0.00     0.040 A 
HETATM    7  C   UNL     1      40.749 -11.842   5.559  1.00  0.00     0.106 A 
HETATM    8  C   UNL     1      40.350 -10.482   6.132  1.00  0.00     0.081 A 
HETATM    9  C   UNL     1      39.028 -10.031   5.847  1.00  0.00     0.100 C 
HETATM   10  N   UNL     1      37.956  -9.654   5.617  1.00  0.00    -0.191 NA
HETATM   11  C   UNL     1      41.171  -9.745   6.932  1.00  0.00     0.140 A 
HETATM   12  O   UNL     1      42.466 -10.175   7.272  1.00  0.00    -0.279 OA
ENDROOT
BRANCH   7  13
HETATM   13  C   UNL     1      40.743 -11.901   4.037  1.00  0.00    -0.044 A 
HETATM   14  C   UNL     1      39.927 -12.844   3.393  1.00  0.00     0.010 A 
HETATM   15  C   UNL     1      39.985 -13.026   2.007  1.00  0.00     0.030 A 
HETATM   16  C   UNL     1      40.845 -12.254   1.229  1.00  0.00     0.034 A 
HETATM   17  C   UNL     1      41.606 -11.259   1.854  1.00  0.00     0.030 A 
HETATM   18  C   UNL     1      41.555 -11.080   3.242  1.00  0.00     0.010 A 
BRANCH  16  19
HETATM   19  N   UNL     1      41.022 -12.430  -0.158  1.00  0.00    -0.328 N 
HETATM   20  C   UNL     1      40.051 -12.377  -1.143  1.00  0.00     0.218 C 
HETATM   21  C   UNL     1      40.611 -12.695  -2.506  1.00  0.00     0.117 C 
HETATM   22  O   UNL     1      38.864 -12.104  -1.002  1.00  0.00    -0.274 OA
HETATM   23  H   UNL     1      41.957 -12.676  -0.456  1.00  0.00     0.169 HD
ENDBRANCH  16  19
ENDBRANCH   7  13
BRANCH  11  24
HETATM   24  N   UNL     1      40.853  -8.531   7.497  1.00  0.00    -0.282 NA
HETATM   25  H   UNL     1      40.052  -8.050   7.095  1.00  0.00     0.126 HD
HETATM   26  H   UNL     1      41.668  -7.931   7.610  1.00  0.00     0.126 HD
ENDBRANCH  11  24
BRANCH   1  27
HETATM   27  C   UNL     1      42.783 -14.445   4.873  1.00  0.00    -0.005 A 
HETATM   28  C   UNL     1      43.238 -14.459   3.551  1.00  0.00     0.014 A 
HETATM   29  C   UNL     1      43.159 -15.628   2.786  1.00  0.00     0.008 A 
HETATM   30  C   UNL     1      42.618 -16.802   3.323  1.00  0.00    -0.058 A 
HETATM   31  C   UNL     1      42.096 -16.754   4.628  1.00  0.00     0.008 A 
HETATM   32  C   UNL     1      42.180 -15.591   5.396  1.00  0.00     0.014 A 
BRANCH  30  33
HETATM   33  C   UNL     1      42.558 -18.125   2.585  1.00  0.00     0.042 C 
BRANCH  33  34
HETATM   34  C   UNL     1      43.825 -19.009   2.580  1.00  0.00    -0.019 C 
HETATM   35  C   UNL     1      43.584 -20.337   1.855  1.00  0.00     0.010 C 
HETATM   36  C   UNL     1      44.269 -19.301   4.019  1.00  0.00     0.010 C 
ENDBRANCH  33  34
ENDBRANCH  30  33
ENDBRANCH   1  27
TORSDOF 6
ENDMDL
MODEL 4
REMARK VINA RESULT:      -8.0      2.469      7.719
REMARK  6 active torsions:
REMARK  status: ('A' for Active; 'I' for Inactive)
REMARK    1  A    between atoms: C_2  and  C_3 
REMARK    2  A    between atoms: C_3  and  C_4 
REMARK    3  A    between atoms: C_7  and  C_8 
REMARK    4  A    between atoms: C_14  and  C_15 
REMARK    5  A    between atoms: C_18  and  N_19 
REMARK       I    between atoms: N_19  and  C_20 
REMARK    6  A    between atoms: C_28  and  N_29 
ROOT
HETATM    1  C   UNL     1      40.923 -13.031   4.838  1.00  0.00     0.099 A 
HETATM    2  N   UNL     1      40.251 -12.851   5.991  1.00  0.00    -0.172 NA
HETATM    3  N   UNL     1      40.507 -13.961   6.710  1.00  0.00    -0.256 N 
HETATM    4  H   UNL     1      40.107 -14.047   7.638  1.00  0.00     0.191 HD
HETATM    5  C   UNL     1      41.281 -14.853   6.044  1.00  0.00     0.175 A 
HETATM    6  C   UNL     1      41.582 -14.292   4.832  1.00  0.00     0.040 A 
HETATM    7  C   UNL     1      42.415 -15.047   3.849  1.00  0.00     0.106 A 
HETATM    8  C   UNL     1      42.804 -16.413   4.414  1.00  0.00     0.081 A 
HETATM    9  C   UNL     1      43.645 -17.226   3.599  1.00  0.00     0.100 C 
HETATM   10  N   UNL     1      44.326 -17.896   2.942  1.00  0.00    -0.191 NA
HETATM   11  C   UNL     1      42.433 -16.835   5.656  1.00  0.00     0.140 A 
HETATM   12  O   UNL     1      41.639 -16.044   6.507  1.00  0.00    -0.279 OA
ENDROOT
BRANCH   7  13
HETATM   13  C   UNL     1      41.600 -15.114   2.564  1.00  0.00    -0.044 A 
HETATM   14  C   UNL     1      41.979 -14.318   1.471  1.00  0.00     0.010 A 
HETATM   15  C   UNL     1      41.189 -14.246   0.319  1.00  0.00     0.030 A 
HETATM   16  C   UNL     1      40.012 -14.985   0.223  1.00  0.00     0.034 A 
HETATM   17  C   UNL     1      39.666 -15.839   1.276  1.00  0.00     0.030 A 
HETATM   18  C   UNL     1      40.451 -15.907   2.434  1.00  0.00     0.010 A 
BRANCH  16  19
HETATM   19  N   UNL     1      39.121 -14.906  -0.867  1.00  0.00    -0.328 N 
HETATM   20  C   UNL     1      39.406 -14.495  -2.157  1.00  0.00     0.218 C 
HETATM   21  C   UNL     1      38.174 -14.470  -3.027  1.00  0.00     0.117 C 
HETATM   22  O   UNL     1      40.501 -14.184  -2.614  1.00  0.00    -0.274 OA
HETATM   23  H   UNL     1      38.154 -15.123  -0.662  1.00  0.00     0.169 HD
ENDBRANCH  16  19
ENDBRANCH   7  13
BRANCH  11  24
HETATM   24  N   UNL     1      42.778 -18.040   6.224  1.00  0.00    -0.282 NA
HETATM   25  H   UNL     1      42.024 -18.715   6.323  1.00  0.00     0.126 HD
HETATM   26  H   UNL     1      43.328 -17.924   7.072  1.00  0.00     0.126 HD
ENDBRANCH  11  24
BRANCH   1  27
HETATM   27  C   UNL     1      40.858 -12.055   3.757  1.00  0.00    -0.005 A 
HETATM   28  C   UNL     1      41.983 -11.306   3.400  1.00  0.00     0.014 A 
HETATM   29  C   UNL     1      41.963 -10.496   2.259  1.00  0.00     0.008 A 
HETATM   30  C   UNL     1      40.817 -10.414   1.457  1.00  0.00    -0.058 A 
HETATM   31  C   UNL     1      39.670 -11.115   1.868  1.00  0.00     0.008 A 
HETATM   32  C   UNL     1      39.689 -11.929   3.003  1.00  0.00     0.014 A 
BRANCH  30  33
HETATM   33  C   UNL     1      40.737  -9.615   0.171  1.00  0.00     0.042 C 
BRANCH  33  34
HETATM   34  C   UNL     1      41.803  -9.882  -0.915  1.00  0.00    -0.019 C 
HETATM   35  C   UNL     1      42.280  -8.581  -1.569  1.00  0.00     0.010 C 
HETATM   36  C   UNL     1      41.232 -10.804  -1.999  1.00  0.00     0.010 C 
ENDBRANCH  33  34
ENDBRANCH  30  33
ENDBRANCH   1  27
TORSDOF 6
ENDMDL
MODEL 5
REMARK VINA RESULT:      -7.5      3.153      4.681
REMARK  6 active torsions:
REMARK  status: ('A' for Active; 'I' for Inactive)
REMARK    1  A    between atoms: C_2  and  C_3 
REMARK    2  A    between atoms: C_3  and  C_4 
REMARK    3  A    between atoms: C_7  and  C_8 
REMARK    4  A    between atoms: C_14  and  C_15 
REMARK    5  A    between atoms: C_18  and  N_19 
REMARK       I    between atoms: N_19  and  C_20 
REMARK    6  A    between atoms: C_28  and  N_29 
ROOT
HETATM    1  C   UNL     1      41.210 -14.241   4.242  1.00  0.00     0.099 A 
HETATM    2  N   UNL     1      40.697 -15.397   4.706  1.00  0.00    -0.172 NA
HETATM    3  N   UNL     1      40.112 -15.963   3.633  1.00  0.00    -0.256 N 
HETATM    4  H   UNL     1      39.659 -16.863   3.740  1.00  0.00     0.191 HD
HETATM    5  C   UNL     1      40.200 -15.196   2.518  1.00  0.00     0.175 A 
HETATM    6  C   UNL     1      40.909 -14.076   2.862  1.00  0.00     0.040 A 
HETATM    7  C   UNL     1      41.161 -13.014   1.842  1.00  0.00     0.106 A 
HETATM    8  C   UNL     1      40.529 -13.396   0.503  1.00  0.00     0.081 A 
HETATM    9  C   UNL     1      40.734 -12.493  -0.581  1.00  0.00     0.100 C 
HETATM   10  N   UNL     1      40.892 -11.763  -1.468  1.00  0.00    -0.191 NA
HETATM   11  C   UNL     1      39.853 -14.563   0.309  1.00  0.00     0.140 A 
HETATM   12  O   UNL     1      39.667 -15.499   1.342  1.00  0.00    -0.279 OA
ENDROOT
BRANCH   7  13
HETATM   13  C   UNL     1      40.625 -11.718   2.436  1.00  0.00    -0.044 A 
HETATM   14  C   UNL     1      41.523 -10.682   2.739  1.00  0.00     0.010 A 
HETATM   15  C   UNL     1      41.098  -9.528   3.405  1.00  0.00     0.030 A 
HETATM   16  C   UNL     1      39.762  -9.372   3.765  1.00  0.00     0.034 A 
HETATM   17  C   UNL     1      38.846 -10.366   3.400  1.00  0.00     0.030 A 
HETATM   18  C   UNL     1      39.270 -11.526   2.740  1.00  0.00     0.010 A 
BRANCH  16  19
HETATM   19  N   UNL     1      39.269  -8.279   4.508  1.00  0.00    -0.328 N 
HETATM   20  C   UNL     1      38.779  -8.295   5.802  1.00  0.00     0.218 C 
HETATM   21  C   UNL     1      38.269  -6.941   6.229  1.00  0.00     0.117 C 
HETATM   22  O   UNL     1      38.739  -9.249   6.570  1.00  0.00    -0.274 OA
HETATM   23  H   UNL     1      39.222  -7.397   4.014  1.00  0.00     0.169 HD
ENDBRANCH  16  19
ENDBRANCH   7  13
BRANCH  11  24
HETATM   24  N   UNL     1      39.290 -14.969  -0.880  1.00  0.00    -0.282 NA
HETATM   25  H   UNL     1      39.487 -15.927  -1.159  1.00  0.00     0.126 HD
HETATM   26  H   UNL     1      39.434 -14.294  -1.627  1.00  0.00     0.126 HD
ENDBRANCH  11  24
BRANCH   1  27
HETATM   27  C   UNL     1      41.892 -13.301   5.123  1.00  0.00    -0.005 A 
HETATM   28  C   UNL     1      43.286 -13.193   5.116  1.00  0.00     0.014 A 
HETATM   29  C   UNL     1      43.923 -12.177   5.837  1.00  0.00     0.008 A 
HETATM   30  C   UNL     1      43.181 -11.254   6.585  1.00  0.00    -0.058 A 
HETATM   31  C   UNL     1      41.786 -11.418   6.643  1.00  0.00     0.008 A 
HETATM   32  C   UNL     1      41.147 -12.428   5.919  1.00  0.00     0.014 A 
BRANCH  30  33
HETATM   33  C   UNL     1      43.789 -10.087   7.338  1.00  0.00     0.042 C 
BRANCH  33  34
HETATM   34  C   UNL     1      44.943 -10.384   8.321  1.00  0.00    -0.019 C 
HETATM   35  C   UNL     1      44.539 -10.093   9.770  1.00  0.00     0.010 C 
HETATM   36  C   UNL     1      46.170  -9.534   7.967  1.00  0.00     0.010 C 
ENDBRANCH  33  34
ENDBRANCH  30  33
ENDBRANCH   1  27
TORSDOF 6
ENDMDL
MODEL 6
REMARK VINA RESULT:      -7.4      3.454      5.053
REMARK  6 active torsions:
REMARK  status: ('A' for Active; 'I' for Inactive)
REMARK    1  A    between atoms: C_2  and  C_3 
REMARK    2  A    between atoms: C_3  and  C_4 
REMARK    3  A    between atoms: C_7  and  C_8 
REMARK    4  A    between atoms: C_14  and  C_15 
REMARK    5  A    between atoms: C_18  and  N_19 
REMARK       I    between atoms: N_19  and  C_20 
REMARK    6  A    between atoms: C_28  and  N_29 
ROOT
HETATM    1  C   UNL     1      42.749 -13.933   4.001  1.00  0.00     0.099 A 
HETATM    2  N   UNL     1      42.955 -15.263   4.003  1.00  0.00    -0.172 NA
HETATM    3  N   UNL     1      42.230 -15.721   2.964  1.00  0.00    -0.256 N 
HETATM    4  H   UNL     1      42.240 -16.714   2.759  1.00  0.00     0.191 HD
HETATM    5  C   UNL     1      41.542 -14.740   2.329  1.00  0.00     0.175 A 
HETATM    6  C   UNL     1      41.852 -13.564   2.959  1.00  0.00     0.040 A 
HETATM    7  C   UNL     1      41.230 -12.287   2.499  1.00  0.00     0.106 A 
HETATM    8  C   UNL     1      40.284 -12.544   1.326  1.00  0.00     0.081 A 
HETATM    9  C   UNL     1      39.655 -11.402   0.750  1.00  0.00     0.100 C 
HETATM   10  N   UNL     1      39.135 -10.479   0.278  1.00  0.00    -0.191 NA
HETATM   11  C   UNL     1      40.082 -13.782   0.794  1.00  0.00     0.140 A 
HETATM   12  O   UNL     1      40.718 -14.928   1.307  1.00  0.00    -0.279 OA
ENDROOT
BRANCH   7  13
HETATM   13  C   UNL     1      40.554 -11.680   3.721  1.00  0.00    -0.044 A 
HETATM   14  C   UNL     1      40.867 -10.362   4.092  1.00  0.00     0.010 A 
HETATM   15  C   UNL     1      40.375  -9.807   5.278  1.00  0.00     0.030 A 
HETATM   16  C   UNL     1      39.539 -10.547   6.110  1.00  0.00     0.034 A 
HETATM   17  C   UNL     1      39.161 -11.835   5.711  1.00  0.00     0.030 A 
HETATM   18  C   UNL     1      39.659 -12.396   4.529  1.00  0.00     0.010 A 
BRANCH  16  19
HETATM   19  N   UNL     1      39.067 -10.091   7.358  1.00  0.00    -0.328 N 
HETATM   20  C   UNL     1      39.820  -9.633   8.425  1.00  0.00     0.218 C 
HETATM   21  C   UNL     1      38.963  -9.306   9.622  1.00  0.00     0.117 C 
HETATM   22  O   UNL     1      41.036  -9.476   8.464  1.00  0.00    -0.274 OA
HETATM   23  H   UNL     1      38.068 -10.160   7.504  1.00  0.00     0.169 HD
ENDBRANCH  16  19
ENDBRANCH   7  13
BRANCH  11  24
HETATM   24  N   UNL     1      39.266 -14.066  -0.278  1.00  0.00    -0.282 NA
HETATM   25  H   UNL     1      39.165 -15.052  -0.508  1.00  0.00     0.126 HD
HETATM   26  H   UNL     1      39.472 -13.483  -1.085  1.00  0.00     0.126 HD
ENDBRANCH  11  24
BRANCH   1  27
HETATM   27  C   UNL     1      43.331 -13.068   5.021  1.00  0.00    -0.005 A 
HETATM   28  C   UNL     1      43.120 -13.320   6.380  1.00  0.00     0.014 A 
HETATM   29  C   UNL     1      43.814 -12.592   7.352  1.00  0.00     0.008 A 
HETATM   30  C   UNL     1      44.726 -11.593   6.986  1.00  0.00    -0.058 A 
HETATM   31  C   UNL     1      44.874 -11.300   5.619  1.00  0.00     0.008 A 
HETATM   32  C   UNL     1      44.187 -12.030   4.646  1.00  0.00     0.014 A 
BRANCH  30  33
HETATM   33  C   UNL     1      45.566 -10.807   7.974  1.00  0.00     0.042 C 
BRANCH  33  34
HETATM   34  C   UNL     1      44.832  -9.877   8.966  1.00  0.00    -0.019 C 
HETATM   35  C   UNL     1      44.989  -8.403   8.578  1.00  0.00     0.010 C 
HETATM   36  C   UNL     1      45.381 -10.080  10.384  1.00  0.00     0.010 C 
ENDBRANCH  33  34
ENDBRANCH  30  33
ENDBRANCH   1  27
TORSDOF 6
ENDMDL
MODEL 7
REMARK VINA RESULT:      -7.3      3.726      5.683
REMARK  6 active torsions:
REMARK  status: ('A' for Active; 'I' for Inactive)
REMARK    1  A    between atoms: C_2  and  C_3 
REMARK    2  A    between atoms: C_3  and  C_4 
REMARK    3  A    between atoms: C_7  and  C_8 
REMARK    4  A    between atoms: C_14  and  C_15 
REMARK    5  A    between atoms: C_18  and  N_19 
REMARK       I    between atoms: N_19  and  C_20 
REMARK    6  A    between atoms: C_28  and  N_29 
ROOT
HETATM    1  C   UNL     1      42.047 -12.876   4.362  1.00  0.00     0.099 A 
HETATM    2  N   UNL     1      42.106 -14.194   4.093  1.00  0.00    -0.172 NA
HETATM    3  N   UNL     1      41.066 -14.419   3.266  1.00  0.00    -0.256 N 
HETATM    4  H   UNL     1      40.912 -15.357   2.917  1.00  0.00     0.191 HD
HETATM    5  C   UNL     1      40.328 -13.305   3.033  1.00  0.00     0.175 A 
HETATM    6  C   UNL     1      40.929 -12.280   3.714  1.00  0.00     0.040 A 
HETATM    7  C   UNL     1      40.335 -10.910   3.670  1.00  0.00     0.106 A 
HETATM    8  C   UNL     1      39.067 -10.903   2.817  1.00  0.00     0.081 A 
HETATM    9  C   UNL     1      38.419  -9.644   2.646  1.00  0.00     0.100 C 
HETATM   10  N   UNL     1      37.882  -8.626   2.504  1.00  0.00    -0.191 NA
HETATM   11  C   UNL     1      38.591 -12.013   2.186  1.00  0.00     0.140 A 
HETATM   12  O   UNL     1      39.226 -13.264   2.295  1.00  0.00    -0.279 OA
ENDROOT
BRANCH   7  13
HETATM   13  C   UNL     1      40.112 -10.498   5.119  1.00  0.00    -0.044 A 
HETATM   14  C   UNL     1      40.868  -9.442   5.654  1.00  0.00     0.010 A 
HETATM   15  C   UNL     1      40.794  -9.114   7.012  1.00  0.00     0.030 A 
HETATM   16  C   UNL     1      39.946  -9.819   7.863  1.00  0.00     0.034 A 
HETATM   17  C   UNL     1      39.133 -10.822   7.324  1.00  0.00     0.030 A 
HETATM   18  C   UNL     1      39.211 -11.158   5.967  1.00  0.00     0.010 A 
BRANCH  16  19
HETATM   19  N   UNL     1      39.874  -9.604   9.255  1.00  0.00    -0.328 N 
HETATM   20  C   UNL     1      39.106  -8.665   9.922  1.00  0.00     0.218 C 
HETATM   21  C   UNL     1      39.355  -8.686  11.409  1.00  0.00     0.117 C 
HETATM   22  O   UNL     1      38.295  -7.886   9.434  1.00  0.00    -0.274 OA
HETATM   23  H   UNL     1      40.496 -10.167   9.821  1.00  0.00     0.169 HD
ENDBRANCH  16  19
ENDBRANCH   7  13
BRANCH  11  24
HETATM   24  N   UNL     1      37.473 -12.057   1.384  1.00  0.00    -0.282 NA
HETATM   25  H   UNL     1      36.813 -12.804   1.585  1.00  0.00     0.126 HD
HETATM   26  H   UNL     1      37.703 -11.977   0.396  1.00  0.00     0.126 HD
ENDBRANCH  11  24
BRANCH   1  27
HETATM   27  C   UNL     1      42.988 -12.240   5.276  1.00  0.00    -0.005 A 
HETATM   28  C   UNL     1      42.826 -12.348   6.660  1.00  0.00     0.014 A 
HETATM   29  C   UNL     1      43.818 -11.880   7.529  1.00  0.00     0.008 A 
HETATM   30  C   UNL     1      44.987 -11.290   7.033  1.00  0.00    -0.058 A 
HETATM   31  C   UNL     1      45.105 -11.121   5.642  1.00  0.00     0.008 A 
HETATM   32  C   UNL     1      44.118 -11.593   4.772  1.00  0.00     0.014 A 
BRANCH  30  33
HETATM   33  C   UNL     1      46.137 -10.821   7.903  1.00  0.00     0.042 C 
BRANCH  33  34
HETATM   34  C   UNL     1      45.874  -9.653   8.879  1.00  0.00    -0.019 C 
HETATM   35  C   UNL     1      45.342 -10.153  10.227  1.00  0.00     0.010 C 
HETATM   36  C   UNL     1      44.856  -8.677   8.274  1.00  0.00     0.010 C 
ENDBRANCH  33  34
ENDBRANCH  30  33
ENDBRANCH   1  27
TORSDOF 6
ENDMDL
MODEL 8
REMARK VINA RESULT:      -7.3      3.035      6.798
REMARK  6 active torsions:
REMARK  status: ('A' for Active; 'I' for Inactive)
REMARK    1  A    between atoms: C_2  and  C_3 
REMARK    2  A    between atoms: C_3  and  C_4 
REMARK    3  A    between atoms: C_7  and  C_8 
REMARK    4  A    between atoms: C_14  and  C_15 
REMARK    5  A    between atoms: C_18  and  N_19 
REMARK       I    between atoms: N_19  and  C_20 
REMARK    6  A    between atoms: C_28  and  N_29 
ROOT
HETATM    1  C   UNL     1      42.098 -15.383   1.603  1.00  0.00     0.099 A 
HETATM    2  N   UNL     1      43.199 -15.986   1.116  1.00  0.00    -0.172 NA
HETATM    3  N   UNL     1      43.664 -16.724   2.143  1.00  0.00    -0.256 N 
HETATM    4  H   UNL     1      44.497 -17.285   2.006  1.00  0.00     0.191 HD
HETATM    5  C   UNL     1      42.924 -16.582   3.271  1.00  0.00     0.175 A 
HETATM    6  C   UNL     1      41.896 -15.730   2.968  1.00  0.00     0.040 A 
HETATM    7  C   UNL     1      40.906 -15.355   4.021  1.00  0.00     0.106 A 
HETATM    8  C   UNL     1      41.250 -16.035   5.346  1.00  0.00     0.081 A 
HETATM    9  C   UNL     1      40.357 -15.805   6.433  1.00  0.00     0.100 C 
HETATM   10  N   UNL     1      39.639 -15.621   7.325  1.00  0.00    -0.191 NA
HETATM   11  C   UNL     1      42.313 -16.874   5.495  1.00  0.00     0.140 A 
HETATM   12  O   UNL     1      43.193 -17.160   4.435  1.00  0.00    -0.279 OA
ENDROOT
BRANCH   7  13
HETATM   13  C   UNL     1      40.908 -13.833   4.084  1.00  0.00    -0.044 A 
HETATM   14  C   UNL     1      39.733 -13.134   3.767  1.00  0.00     0.010 A 
HETATM   15  C   UNL     1      39.722 -11.738   3.682  1.00  0.00     0.030 A 
HETATM   16  C   UNL     1      40.879 -11.006   3.934  1.00  0.00     0.034 A 
HETATM   17  C   UNL     1      42.036 -11.690   4.325  1.00  0.00     0.030 A 
HETATM   18  C   UNL     1      42.053 -13.088   4.403  1.00  0.00     0.010 A 
BRANCH  16  19
HETATM   19  N   UNL     1      40.972  -9.606   3.791  1.00  0.00    -0.328 N 
HETATM   20  C   UNL     1      40.868  -8.651   4.787  1.00  0.00     0.218 C 
HETATM   21  C   UNL     1      40.940  -7.249   4.236  1.00  0.00     0.117 C 
HETATM   22  O   UNL     1      40.740  -8.844   5.992  1.00  0.00    -0.274 OA
HETATM   23  H   UNL     1      41.070  -9.265   2.843  1.00  0.00     0.169 HD
ENDBRANCH  16  19
ENDBRANCH   7  13
BRANCH  11  24
HETATM   24  N   UNL     1      42.652 -17.534   6.654  1.00  0.00    -0.282 NA
HETATM   25  H   UNL     1      42.540 -17.005   7.515  1.00  0.00     0.126 HD
HETATM   26  H   UNL     1      43.553 -18.002   6.584  1.00  0.00     0.126 HD
ENDBRANCH  11  24
BRANCH   1  27
HETATM   27  C   UNL     1      41.324 -14.443   0.800  1.00  0.00    -0.005 A 
HETATM   28  C   UNL     1      40.162 -14.853   0.141  1.00  0.00     0.014 A 
HETATM   29  C   UNL     1      39.335 -13.915  -0.488  1.00  0.00     0.008 A 
HETATM   30  C   UNL     1      39.658 -12.552  -0.477  1.00  0.00    -0.058 A 
HETATM   31  C   UNL     1      40.867 -12.163   0.126  1.00  0.00     0.008 A 
HETATM   32  C   UNL     1      41.690 -13.096   0.760  1.00  0.00     0.014 A 
BRANCH  30  33
HETATM   33  C   UNL     1      38.783 -11.468  -1.075  1.00  0.00     0.042 C 
BRANCH  33  34
HETATM   34  C   UNL     1      38.400 -11.589  -2.567  1.00  0.00    -0.019 C 
HETATM   35  C   UNL     1      38.524 -10.245  -3.292  1.00  0.00     0.010 C 
HETATM   36  C   UNL     1      36.959 -12.097  -2.703  1.00  0.00     0.010 C 
ENDBRANCH  33  34
ENDBRANCH  30  33
ENDBRANCH   1  27
TORSDOF 6
ENDMDL
MODEL 9
REMARK VINA RESULT:      -7.2     11.020     15.461
REMARK  6 active torsions:
REMARK  status: ('A' for Active; 'I' for Inactive)
REMARK    1  A    between atoms: C_2  and  C_3 
REMARK    2  A    between atoms: C_3  and  C_4 
REMARK    3  A    between atoms: C_7  and  C_8 
REMARK    4  A    between atoms: C_14  and  C_15 
REMARK    5  A    between atoms: C_18  and  N_19 
REMARK       I    between atoms: N_19  and  C_20 
REMARK    6  A    between atoms: C_28  and  N_29 
ROOT
HETATM    1  C   UNL     1      41.398  -6.503  16.405  1.00  0.00     0.099 A 
HETATM    2  N   UNL     1      42.084  -6.387  17.558  1.00  0.00    -0.172 NA
HETATM    3  N   UNL     1      41.384  -5.489  18.280  1.00  0.00    -0.256 N 
HETATM    4  H   UNL     1      41.711  -5.245  19.208  1.00  0.00     0.191 HD
HETATM    5  C   UNL     1      40.306  -5.005  17.616  1.00  0.00     0.175 A 
HETATM    6  C   UNL     1      40.269  -5.637  16.401  1.00  0.00     0.040 A 
HETATM    7  C   UNL     1      39.195  -5.300  15.421  1.00  0.00     0.106 A 
HETATM    8  C   UNL     1      38.267  -4.227  15.989  1.00  0.00     0.081 A 
HETATM    9  C   UNL     1      37.161  -3.842  15.176  1.00  0.00     0.100 C 
HETATM   10  N   UNL     1      36.260  -3.519  14.520  1.00  0.00    -0.191 NA
HETATM   11  C   UNL     1      38.426  -3.692  17.232  1.00  0.00     0.140 A 
HETATM   12  O   UNL     1      39.480  -4.077  18.082  1.00  0.00    -0.279 OA
ENDROOT
BRANCH   7  13
HETATM   13  C   UNL     1      39.905  -4.892  14.136  1.00  0.00    -0.044 A 
HETATM   14  C   UNL     1      40.701  -3.736  14.132  1.00  0.00     0.010 A 
HETATM   15  C   UNL     1      41.264  -3.249  12.948  1.00  0.00     0.030 A 
HETATM   16  C   UNL     1      41.064  -3.919  11.743  1.00  0.00     0.034 A 
HETATM   17  C   UNL     1      40.335  -5.114  11.751  1.00  0.00     0.030 A 
HETATM   18  C   UNL     1      39.763  -5.599  12.933  1.00  0.00     0.010 A 
BRANCH  16  19
HETATM   19  N   UNL     1      41.528  -3.451  10.497  1.00  0.00    -0.328 N 
HETATM   20  C   UNL     1      40.844  -2.666   9.586  1.00  0.00     0.218 C 
HETATM   21  C   UNL     1      41.642  -2.435   8.327  1.00  0.00     0.117 C 
HETATM   22  O   UNL     1      39.728  -2.175   9.717  1.00  0.00    -0.274 OA
HETATM   23  H   UNL     1      42.446  -3.774  10.219  1.00  0.00     0.169 HD
ENDBRANCH  16  19
ENDBRANCH   7  13
BRANCH  11  24
HETATM   24  N   UNL     1      37.606  -2.746  17.805  1.00  0.00    -0.282 NA
HETATM   25  H   UNL     1      37.748  -2.578  18.798  1.00  0.00     0.126 HD
HETATM   26  H   UNL     1      36.629  -2.879  17.555  1.00  0.00     0.126 HD
ENDBRANCH  11  24
BRANCH   1  27
HETATM   27  C   UNL     1      41.867  -7.357  15.321  1.00  0.00    -0.005 A 
HETATM   28  C   UNL     1      41.190  -8.536  14.993  1.00  0.00     0.014 A 
HETATM   29  C   UNL     1      41.544  -9.262  13.850  1.00  0.00     0.008 A 
HETATM   30  C   UNL     1      42.583  -8.830  13.018  1.00  0.00    -0.058 A 
HETATM   31  C   UNL     1      43.304  -7.684  13.398  1.00  0.00     0.008 A 
HETATM   32  C   UNL     1      42.949  -6.953  14.535  1.00  0.00     0.014 A 
BRANCH  30  33
HETATM   33  C   UNL     1      42.983  -9.522  11.729  1.00  0.00     0.042 C 
BRANCH  33  34
HETATM   34  C   UNL     1      44.135  -8.906  10.905  1.00  0.00    -0.019 C 
HETATM   35  C   UNL     1      43.610  -8.135   9.689  1.00  0.00     0.010 C 
HETATM   36  C   UNL     1      45.086 -10.008  10.422  1.00  0.00     0.010 C 
ENDBRANCH  33  34
ENDBRANCH  30  33
ENDBRANCH   1  27
TORSDOF 6
ENDMDL
MODEL 10
REMARK VINA RESULT:      -7.1      3.474      7.895
REMARK  6 active torsions:
REMARK  status: ('A' for Active; 'I' for Inactive)
REMARK    1  A    between atoms: C_2  and  C_3 
REMARK    2  A    between atoms: C_3  and  C_4 
REMARK    3  A    between atoms: C_7  and  C_8 
REMARK    4  A    between atoms: C_14  and  C_15 
REMARK    5  A    between atoms: C_18  and  N_19 
REMARK       I    between atoms: N_19  and  C_20 
REMARK    6  A    between atoms: C_28  and  N_29 
ROOT
HETATM    1  C   UNL     1      40.107  -9.718   5.933  1.00  0.00     0.099 A 
HETATM    2  N   UNL     1      39.074  -9.408   6.739  1.00  0.00    -0.172 NA
HETATM    3  N   UNL     1      39.622  -9.297   7.966  1.00  0.00    -0.256 N 
HETATM    4  H   UNL     1      39.025  -9.055   8.748  1.00  0.00     0.191 HD
HETATM    5  C   UNL     1      40.951  -9.563   7.975  1.00  0.00     0.175 A 
HETATM    6  C   UNL     1      41.312  -9.833   6.682  1.00  0.00     0.040 A 
HETATM    7  C   UNL     1      42.727 -10.186   6.363  1.00  0.00     0.106 A 
HETATM    8  C   UNL     1      43.578 -10.190   7.633  1.00  0.00     0.081 A 
HETATM    9  C   UNL     1      44.967 -10.464   7.471  1.00  0.00     0.100 C 
HETATM   10  N   UNL     1      46.099 -10.689   7.351  1.00  0.00    -0.191 NA
HETATM   11  C   UNL     1      43.075  -9.889   8.863  1.00  0.00     0.140 A 
HETATM   12  O   UNL     1      41.718  -9.571   9.058  1.00  0.00    -0.279 OA
ENDROOT
BRANCH   7  13
HETATM   13  C   UNL     1      42.679 -11.527   5.643  1.00  0.00    -0.044 A 
HETATM   14  C   UNL     1      43.200 -11.625   4.342  1.00  0.00     0.010 A 
HETATM   15  C   UNL     1      43.059 -12.797   3.592  1.00  0.00     0.030 A 
HETATM   16  C   UNL     1      42.415 -13.907   4.132  1.00  0.00     0.034 A 
HETATM   17  C   UNL     1      41.961 -13.845   5.454  1.00  0.00     0.030 A 
HETATM   18  C   UNL     1      42.092 -12.670   6.205  1.00  0.00     0.010 A 
BRANCH  16  19
HETATM   19  N   UNL     1      42.163 -15.095   3.415  1.00  0.00    -0.328 N 
HETATM   20  C   UNL     1      42.843 -16.296   3.513  1.00  0.00     0.218 C 
HETATM   21  C   UNL     1      42.332 -17.317   2.526  1.00  0.00     0.117 C 
HETATM   22  O   UNL     1      43.752 -16.576   4.287  1.00  0.00    -0.274 OA
HETATM   23  H   UNL     1      41.436 -15.040   2.713  1.00  0.00     0.169 HD
ENDBRANCH  16  19
ENDBRANCH   7  13
BRANCH  11  24
HETATM   24  N   UNL     1      43.799  -9.849  10.033  1.00  0.00    -0.282 NA
HETATM   25  H   UNL     1      44.805  -9.746   9.929  1.00  0.00     0.126 HD
HETATM   26  H   UNL     1      43.535 -10.592  10.676  1.00  0.00     0.126 HD
ENDBRANCH  11  24
BRANCH   1  27
HETATM   27  C   UNL     1      39.916  -9.974   4.511  1.00  0.00    -0.005 A 
HETATM   28  C   UNL     1      40.498  -9.143   3.549  1.00  0.00     0.014 A 
HETATM   29  C   UNL     1      40.451  -9.487   2.193  1.00  0.00     0.008 A 
HETATM   30  C   UNL     1      39.816 -10.662   1.772  1.00  0.00    -0.058 A 
HETATM   31  C   UNL     1      39.171 -11.450   2.742  1.00  0.00     0.008 A 
HETATM   32  C   UNL     1      39.222 -11.113   4.096  1.00  0.00     0.014 A 
BRANCH  30  33
HETATM   33  C   UNL     1      39.779 -11.139   0.333  1.00  0.00     0.042 C 
BRANCH  33  34
HETATM   34  C   UNL     1      40.991 -11.941  -0.194  1.00  0.00    -0.019 C 
HETATM   35  C   UNL     1      41.050 -11.932  -1.725  1.00  0.00     0.010 C 
HETATM   36  C   UNL     1      40.914 -13.393   0.293  1.00  0.00     0.010 C 
ENDBRANCH  33  34
ENDBRANCH  30  33
ENDBRANCH   1  27
TORSDOF 6
ENDMDL
