MODEL 1
REMARK VINA RESULT:      -8.5      0.000      0.000
REMARK  7 active torsions:
REMARK  status: ('A' for Active; 'I' for Inactive)
REMARK    1  A    between atoms: C_2  and  N_3 
REMARK    2  A    between atoms: N_7  and  C_8 
REMARK    3  A    between atoms: C_9  and  N_10 
REMARK       I    between atoms: N_10  and  C_11 
REMARK    4  A    between atoms: C_11  and  C_12 
REMARK    5  A    between atoms: C_15  and  C_16 
REMARK    6  A    between atoms: C_16  and  O_17 
REMARK    7  A    between atoms: O_17  and  C_18 
ROOT
HETATM    1  N   UNL     1      43.527 -11.570   7.965  1.00  0.00    -0.321 N 
HETATM    2  C   UNL     1      44.191 -11.774   6.773  1.00  0.00     0.256 C 
HETATM    3  O   UNL     1      45.039 -11.038   6.283  1.00  0.00    -0.267 OA
HETATM    4  H   UNL     1      42.665 -12.075   8.132  1.00  0.00     0.169 HD
ENDROOT
BRANCH   1   5
HETATM    5  C   UNL     1      43.787 -10.524   8.880  1.00  0.00     0.061 A 
HETATM    6  C   UNL     1      42.793  -9.519   9.049  1.00  0.00     0.057 A 
HETATM    7  C   UNL     1      42.969  -8.636  10.130  1.00  0.00     0.031 A 
HETATM    8  C   UNL     1      44.117  -8.671  10.931  1.00  0.00     0.002 A 
HETATM    9  C   UNL     1      45.114  -9.603  10.682  1.00  0.00     0.002 A 
HETATM   10  C   UNL     1      44.946 -10.535   9.665  1.00  0.00     0.032 A 
BRANCH   6  11
HETATM   11  N   UNL     1      41.710  -9.410   8.141  1.00  0.00    -0.376 N 
HETATM   12  C   UNL     1      42.008  -8.615   6.917  1.00  0.00     0.150 C 
HETATM   13  C   UNL     1      41.778  -7.111   7.141  1.00  0.00     0.254 C 
HETATM   14  N   UNL     1      40.338  -6.858   7.590  1.00  0.00    -0.068 N 
HETATM   15  H   UNL     1      39.717  -7.220   6.855  1.00  0.00     0.280 HD
HETATM   16  C   UNL     1      40.035  -7.664   8.859  1.00  0.00     0.254 C 
HETATM   17  C   UNL     1      40.347  -9.169   8.663  1.00  0.00     0.150 C 
BRANCH  14  18
HETATM   18  C   UNL     1      40.033  -5.391   7.784  1.00  0.00     0.230 C 
HETATM   19  C   UNL     1      41.224  -4.667   8.386  1.00  0.00     0.034 C 
ENDBRANCH  14  18
ENDBRANCH   6  11
ENDBRANCH   1   5
BRANCH   2  20
HETATM   20  C   UNL     1      43.694 -12.929   5.987  1.00  0.00     0.032 A 
HETATM   21  C   UNL     1      43.221 -12.701   4.692  1.00  0.00     0.017 A 
HETATM   22  C   UNL     1      42.745 -13.767   3.929  1.00  0.00     0.010 A 
HETATM   23  C   UNL     1      42.757 -15.072   4.446  1.00  0.00    -0.034 A 
HETATM   24  C   UNL     1      43.246 -15.291   5.743  1.00  0.00     0.010 A 
HETATM   25  C   UNL     1      43.709 -14.223   6.515  1.00  0.00     0.017 A 
BRANCH  23  26
HETATM   26  C   UNL     1      42.299 -16.227   3.583  1.00  0.00     0.214 C 
BRANCH  26  27
HETATM   27  O   UNL     1      43.461 -16.830   3.022  1.00  0.00    -0.347 OA
BRANCH  27  28
HETATM   28  C   UNL     1      43.577 -18.187   3.130  1.00  0.00     0.069 A 
HETATM   29  C   UNL     1      43.282 -19.121   2.137  1.00  0.00     0.037 A 
HETATM   30  C   UNL     1      43.445 -20.488   2.389  1.00  0.00     0.003 A 
HETATM   31  C   UNL     1      43.906 -20.923   3.631  1.00  0.00     0.000 A 
HETATM   32  C   UNL     1      44.204 -19.994   4.624  1.00  0.00     0.003 A 
HETATM   33  C   UNL     1      44.040 -18.632   4.372  1.00  0.00     0.037 A 
ENDBRANCH  27  28
ENDBRANCH  26  27
ENDBRANCH  23  26
ENDBRANCH   2  20
TORSDOF 7
ENDMDL
MODEL 2
REMARK VINA RESULT:      -8.5      3.016      9.938
REMARK  7 active torsions:
REMARK  status: ('A' for Active; 'I' for Inactive)
REMARK    1  A    between atoms: C_2  and  N_3 
REMARK    2  A    between atoms: N_7  and  C_8 
REMARK    3  A    between atoms: C_9  and  N_10 
REMARK       I    between atoms: N_10  and  C_11 
REMARK    4  A    between atoms: C_11  and  C_12 
REMARK    5  A    between atoms: C_15  and  C_16 
REMARK    6  A    between atoms: C_16  and  O_17 
REMARK    7  A    between atoms: O_17  and  C_18 
ROOT
HETATM    1  N   UNL     1      42.361 -13.260   4.854  1.00  0.00    -0.321 N 
HETATM    2  C   UNL     1      43.268 -12.279   4.511  1.00  0.00     0.256 C 
HETATM    3  O   UNL     1      43.690 -12.047   3.385  1.00  0.00    -0.267 OA
HETATM    4  H   UNL     1      42.299 -13.545   5.824  1.00  0.00     0.169 HD
ENDROOT
BRANCH   1   5
HETATM    5  C   UNL     1      41.682 -14.103   3.945  1.00  0.00     0.061 A 
HETATM    6  C   UNL     1      42.138 -15.444   3.806  1.00  0.00     0.057 A 
HETATM    7  C   UNL     1      41.304 -16.320   3.087  1.00  0.00     0.031 A 
HETATM    8  C   UNL     1      40.142 -15.873   2.447  1.00  0.00     0.002 A 
HETATM    9  C   UNL     1      39.772 -14.538   2.523  1.00  0.00     0.002 A 
HETATM   10  C   UNL     1      40.535 -13.655   3.279  1.00  0.00     0.032 A 
BRANCH   6  11
HETATM   11  N   UNL     1      43.388 -15.844   4.340  1.00  0.00    -0.376 N 
HETATM   12  C   UNL     1      44.056 -16.945   3.591  1.00  0.00     0.150 C 
HETATM   13  C   UNL     1      43.580 -18.329   4.062  1.00  0.00     0.254 C 
HETATM   14  N   UNL     1      43.829 -18.492   5.563  1.00  0.00    -0.068 N 
HETATM   15  H   UNL     1      44.839 -18.376   5.722  1.00  0.00     0.280 HD
HETATM   16  C   UNL     1      43.129 -17.368   6.335  1.00  0.00     0.254 C 
HETATM   17  C   UNL     1      43.543 -15.972   5.806  1.00  0.00     0.150 C 
BRANCH  14  18
HETATM   18  C   UNL     1      43.424 -19.852   6.081  1.00  0.00     0.230 C 
HETATM   19  C   UNL     1      43.976 -20.954   5.193  1.00  0.00     0.034 C 
ENDBRANCH  14  18
ENDBRANCH   6  11
ENDBRANCH   1   5
BRANCH   2  20
HETATM   20  C   UNL     1      43.860 -11.562   5.666  1.00  0.00     0.032 A 
HETATM   21  C   UNL     1      43.008 -10.867   6.528  1.00  0.00     0.017 A 
HETATM   22  C   UNL     1      43.536 -10.181   7.622  1.00  0.00     0.010 A 
HETATM   23  C   UNL     1      44.917 -10.202   7.876  1.00  0.00    -0.034 A 
HETATM   24  C   UNL     1      45.762 -10.913   7.010  1.00  0.00     0.010 A 
HETATM   25  C   UNL     1      45.238 -11.589   5.904  1.00  0.00     0.017 A 
BRANCH  23  26
HETATM   26  C   UNL     1      45.467  -9.509   9.102  1.00  0.00     0.214 C 
BRANCH  26  27
HETATM   27  O   UNL     1      45.289 -10.389  10.207  1.00  0.00    -0.347 OA
BRANCH  27  28
HETATM   28  C   UNL     1      44.337 -10.056  11.128  1.00  0.00     0.069 A 
HETATM   29  C   UNL     1      43.538 -10.944  11.847  1.00  0.00     0.037 A 
HETATM   30  C   UNL     1      42.595 -10.459  12.760  1.00  0.00     0.003 A 
HETATM   31  C   UNL     1      42.450  -9.087  12.957  1.00  0.00     0.000 A 
HETATM   32  C   UNL     1      43.246  -8.196  12.242  1.00  0.00     0.003 A 
HETATM   33  C   UNL     1      44.186  -8.681  11.333  1.00  0.00     0.037 A 
ENDBRANCH  27  28
ENDBRANCH  26  27
ENDBRANCH  23  26
ENDBRANCH   2  20
TORSDOF 7
ENDMDL
MODEL 3
REMARK VINA RESULT:      -8.2      2.881      9.490
REMARK  7 active torsions:
REMARK  status: ('A' for Active; 'I' for Inactive)
REMARK    1  A    between atoms: C_2  and  N_3 
REMARK    2  A    between atoms: N_7  and  C_8 
REMARK    3  A    between atoms: C_9  and  N_10 
REMARK       I    between atoms: N_10  and  C_11 
REMARK    4  A    between atoms: C_11  and  C_12 
REMARK    5  A    between atoms: C_15  and  C_16 
REMARK    6  A    between atoms: C_16  and  O_17 
REMARK    7  A    between atoms: O_17  and  C_18 
ROOT
HETATM    1  N   UNL     1      43.040 -12.877   7.202  1.00  0.00    -0.321 N 
HETATM    2  C   UNL     1      44.131 -12.033   7.160  1.00  0.00     0.256 C 
HETATM    3  O   UNL     1      45.243 -12.310   6.728  1.00  0.00    -0.267 OA
HETATM    4  H   UNL     1      42.274 -12.647   7.823  1.00  0.00     0.169 HD
ENDROOT
BRANCH   1   5
HETATM    5  C   UNL     1      42.990 -14.180   6.657  1.00  0.00     0.061 A 
HETATM    6  C   UNL     1      42.839 -14.313   5.248  1.00  0.00     0.057 A 
HETATM    7  C   UNL     1      43.035 -15.598   4.712  1.00  0.00     0.031 A 
HETATM    8  C   UNL     1      43.258 -16.712   5.532  1.00  0.00     0.002 A 
HETATM    9  C   UNL     1      43.308 -16.566   6.911  1.00  0.00     0.002 A 
HETATM   10  C   UNL     1      43.185 -15.301   7.473  1.00  0.00     0.032 A 
BRANCH   6  11
HETATM   11  N   UNL     1      42.472 -13.200   4.451  1.00  0.00    -0.376 N 
HETATM   12  C   UNL     1      41.009 -12.917   4.421  1.00  0.00     0.150 C 
HETATM   13  C   UNL     1      40.290 -13.741   3.339  1.00  0.00     0.254 C 
HETATM   14  N   UNL     1      40.904 -13.462   1.966  1.00  0.00    -0.068 N 
HETATM   15  H   UNL     1      40.810 -12.454   1.785  1.00  0.00     0.280 HD
HETATM   16  C   UNL     1      42.406 -13.767   1.993  1.00  0.00     0.254 C 
HETATM   17  C   UNL     1      43.121 -13.003   3.136  1.00  0.00     0.150 C 
BRANCH  14  18
HETATM   18  C   UNL     1      40.210 -14.208   0.851  1.00  0.00     0.230 C 
HETATM   19  C   UNL     1      39.997 -15.664   1.225  1.00  0.00     0.034 C 
ENDBRANCH  14  18
ENDBRANCH   6  11
ENDBRANCH   1   5
BRANCH   2  20
HETATM   20  C   UNL     1      43.923 -10.732   7.840  1.00  0.00     0.032 A 
HETATM   21  C   UNL     1      42.799  -9.974   7.504  1.00  0.00     0.017 A 
HETATM   22  C   UNL     1      42.578  -8.745   8.125  1.00  0.00     0.010 A 
HETATM   23  C   UNL     1      43.468  -8.272   9.102  1.00  0.00    -0.034 A 
HETATM   24  C   UNL     1      44.588  -9.047   9.441  1.00  0.00     0.010 A 
HETATM   25  C   UNL     1      44.820 -10.272   8.810  1.00  0.00     0.017 A 
BRANCH  23  26
HETATM   26  C   UNL     1      43.181  -6.969   9.814  1.00  0.00     0.214 C 
BRANCH  26  27
HETATM   27  O   UNL     1      41.935  -7.115  10.488  1.00  0.00    -0.347 OA
BRANCH  27  28
HETATM   28  C   UNL     1      41.945  -7.756  11.694  1.00  0.00     0.069 A 
HETATM   29  C   UNL     1      41.231  -8.909  12.022  1.00  0.00     0.037 A 
HETATM   30  C   UNL     1      41.335  -9.457  13.304  1.00  0.00     0.003 A 
HETATM   31  C   UNL     1      42.153  -8.858  14.261  1.00  0.00     0.000 A 
HETATM   32  C   UNL     1      42.869  -7.708  13.938  1.00  0.00     0.003 A 
HETATM   33  C   UNL     1      42.765  -7.163  12.658  1.00  0.00     0.037 A 
ENDBRANCH  27  28
ENDBRANCH  26  27
ENDBRANCH  23  26
ENDBRANCH   2  20
TORSDOF 7
ENDMDL
MODEL 4
REMARK VINA RESULT:      -8.1      2.057      3.497
REMARK  7 active torsions:
REMARK  status: ('A' for Active; 'I' for Inactive)
REMARK    1  A    between atoms: C_2  and  N_3 
REMARK    2  A    between atoms: N_7  and  C_8 
REMARK    3  A    between atoms: C_9  and  N_10 
REMARK       I    between atoms: N_10  and  C_11 
REMARK    4  A    between atoms: C_11  and  C_12 
REMARK    5  A    between atoms: C_15  and  C_16 
REMARK    6  A    between atoms: C_16  and  O_17 
REMARK    7  A    between atoms: O_17  and  C_18 
ROOT
HETATM    1  N   UNL     1      42.094 -10.022   7.697  1.00  0.00    -0.321 N 
HETATM    2  C   UNL     1      43.204 -10.659   7.180  1.00  0.00     0.256 C 
HETATM    3  O   UNL     1      44.310 -10.160   7.012  1.00  0.00    -0.267 OA
HETATM    4  H   UNL     1      41.181 -10.429   7.532  1.00  0.00     0.169 HD
ENDROOT
BRANCH   1   5
HETATM    5  C   UNL     1      42.071  -8.708   8.219  1.00  0.00     0.061 A 
HETATM    6  C   UNL     1      42.131  -8.546   9.632  1.00  0.00     0.057 A 
HETATM    7  C   UNL     1      42.350  -7.241  10.107  1.00  0.00     0.031 A 
HETATM    8  C   UNL     1      42.397  -6.140   9.242  1.00  0.00     0.002 A 
HETATM    9  C   UNL     1      42.241  -6.318   7.875  1.00  0.00     0.002 A 
HETATM   10  C   UNL     1      42.089  -7.601   7.362  1.00  0.00     0.032 A 
BRANCH   6  11
HETATM   11  N   UNL     1      41.940  -9.653  10.497  1.00  0.00    -0.376 N 
HETATM   12  C   UNL     1      40.610  -9.688  11.168  1.00  0.00     0.150 C 
HETATM   13  C   UNL     1      40.602  -8.862  12.466  1.00  0.00     0.254 C 
HETATM   14  N   UNL     1      41.684  -9.368  13.422  1.00  0.00    -0.068 N 
HETATM   15  H   UNL     1      41.487 -10.359  13.615  1.00  0.00     0.280 HD
HETATM   16  C   UNL     1      43.054  -9.317  12.736  1.00  0.00     0.254 C 
HETATM   17  C   UNL     1      43.043 -10.078  11.386  1.00  0.00     0.150 C 
BRANCH  14  18
HETATM   18  C   UNL     1      41.699  -8.626  14.737  1.00  0.00     0.230 C 
HETATM   19  C   UNL     1      42.497  -7.340  14.623  1.00  0.00     0.034 C 
ENDBRANCH  14  18
ENDBRANCH   6  11
ENDBRANCH   1   5
BRANCH   2  20
HETATM   20  C   UNL     1      42.941 -12.025   6.668  1.00  0.00     0.032 A 
HETATM   21  C   UNL     1      41.779 -12.247   5.924  1.00  0.00     0.017 A 
HETATM   22  C   UNL     1      41.503 -13.523   5.432  1.00  0.00     0.010 A 
HETATM   23  C   UNL     1      42.396 -14.582   5.661  1.00  0.00    -0.034 A 
HETATM   24  C   UNL     1      43.566 -14.344   6.399  1.00  0.00     0.010 A 
HETATM   25  C   UNL     1      43.837 -13.071   6.907  1.00  0.00     0.017 A 
BRANCH  23  26
HETATM   26  C   UNL     1      42.117 -15.943   5.065  1.00  0.00     0.214 C 
BRANCH  26  27
HETATM   27  O   UNL     1      43.130 -16.204   4.099  1.00  0.00    -0.347 OA
BRANCH  27  28
HETATM   28  C   UNL     1      43.393 -17.512   3.804  1.00  0.00     0.069 A 
HETATM   29  C   UNL     1      44.070 -18.420   4.618  1.00  0.00     0.037 A 
HETATM   30  C   UNL     1      44.273 -19.735   4.184  1.00  0.00     0.003 A 
HETATM   31  C   UNL     1      43.800 -20.144   2.938  1.00  0.00     0.000 A 
HETATM   32  C   UNL     1      43.123 -19.241   2.122  1.00  0.00     0.003 A 
HETATM   33  C   UNL     1      42.921 -17.931   2.557  1.00  0.00     0.037 A 
ENDBRANCH  27  28
ENDBRANCH  26  27
ENDBRANCH  23  26
ENDBRANCH   2  20
TORSDOF 7
ENDMDL
MODEL 5
REMARK VINA RESULT:      -8.1      3.265      9.840
REMARK  7 active torsions:
REMARK  status: ('A' for Active; 'I' for Inactive)
REMARK    1  A    between atoms: C_2  and  N_3 
REMARK    2  A    between atoms: N_7  and  C_8 
REMARK    3  A    between atoms: C_9  and  N_10 
REMARK       I    between atoms: N_10  and  C_11 
REMARK    4  A    between atoms: C_11  and  C_12 
REMARK    5  A    between atoms: C_15  and  C_16 
REMARK    6  A    between atoms: C_16  and  O_17 
REMARK    7  A    between atoms: O_17  and  C_18 
ROOT
HETATM    1  N   UNL     1      43.042 -14.542   4.779  1.00  0.00    -0.321 N 
HETATM    2  C   UNL     1      42.630 -14.266   6.067  1.00  0.00     0.256 C 
HETATM    3  O   UNL     1      42.042 -15.035   6.817  1.00  0.00    -0.267 OA
HETATM    4  H   UNL     1      43.257 -13.768   4.163  1.00  0.00     0.169 HD
ENDROOT
BRANCH   1   5
HETATM    5  C   UNL     1      42.947 -15.799   4.140  1.00  0.00     0.061 A 
HETATM    6  C   UNL     1      41.973 -15.958   3.114  1.00  0.00     0.057 A 
HETATM    7  C   UNL     1      42.062 -17.126   2.336  1.00  0.00     0.031 A 
HETATM    8  C   UNL     1      42.991 -18.134   2.625  1.00  0.00     0.002 A 
HETATM    9  C   UNL     1      43.867 -17.993   3.691  1.00  0.00     0.002 A 
HETATM   10  C   UNL     1      43.853 -16.823   4.442  1.00  0.00     0.032 A 
BRANCH   6  11
HETATM   11  N   UNL     1      40.952 -14.992   2.929  1.00  0.00    -0.376 N 
HETATM   12  C   UNL     1      39.727 -15.510   2.256  1.00  0.00     0.150 C 
HETATM   13  C   UNL     1      39.851 -15.456   0.723  1.00  0.00     0.254 C 
HETATM   14  N   UNL     1      40.133 -14.024   0.265  1.00  0.00    -0.068 N 
HETATM   15  H   UNL     1      39.355 -13.436   0.593  1.00  0.00     0.280 HD
HETATM   16  C   UNL     1      41.401 -13.496   0.946  1.00  0.00     0.254 C 
HETATM   17  C   UNL     1      41.315 -13.627   2.488  1.00  0.00     0.150 C 
BRANCH  14  18
HETATM   18  C   UNL     1      40.220 -13.894  -1.237  1.00  0.00     0.230 C 
HETATM   19  C   UNL     1      39.081 -14.639  -1.910  1.00  0.00     0.034 C 
ENDBRANCH  14  18
ENDBRANCH   6  11
ENDBRANCH   1   5
BRANCH   2  20
HETATM   20  C   UNL     1      42.815 -12.853   6.478  1.00  0.00     0.032 A 
HETATM   21  C   UNL     1      41.854 -11.915   6.094  1.00  0.00     0.017 A 
HETATM   22  C   UNL     1      42.002 -10.578   6.463  1.00  0.00     0.010 A 
HETATM   23  C   UNL     1      43.100 -10.172   7.237  1.00  0.00    -0.034 A 
HETATM   24  C   UNL     1      44.053 -11.125   7.627  1.00  0.00     0.010 A 
HETATM   25  C   UNL     1      43.916 -12.463   7.245  1.00  0.00     0.017 A 
BRANCH  23  26
HETATM   26  C   UNL     1      43.213  -8.732   7.685  1.00  0.00     0.214 C 
BRANCH  26  27
HETATM   27  O   UNL     1      44.102  -8.698   8.797  1.00  0.00    -0.347 OA
BRANCH  27  28
HETATM   28  C   UNL     1      43.601  -8.253   9.988  1.00  0.00     0.069 A 
HETATM   29  C   UNL     1      42.950  -7.038  10.206  1.00  0.00     0.037 A 
HETATM   30  C   UNL     1      42.490  -6.709  11.486  1.00  0.00     0.003 A 
HETATM   31  C   UNL     1      42.677  -7.593  12.548  1.00  0.00     0.000 A 
HETATM   32  C   UNL     1      43.325  -8.806  12.335  1.00  0.00     0.003 A 
HETATM   33  C   UNL     1      43.783  -9.133  11.058  1.00  0.00     0.037 A 
ENDBRANCH  27  28
ENDBRANCH  26  27
ENDBRANCH  23  26
ENDBRANCH   2  20
TORSDOF 7
ENDMDL
MODEL 6
REMARK VINA RESULT:      -8.0      3.000     10.041
REMARK  7 active torsions:
REMARK  status: ('A' for Active; 'I' for Inactive)
REMARK    1  A    between atoms: C_2  and  N_3 
REMARK    2  A    between atoms: N_7  and  C_8 
REMARK    3  A    between atoms: C_9  and  N_10 
REMARK       I    between atoms: N_10  and  C_11 
REMARK    4  A    between atoms: C_11  and  C_12 
REMARK    5  A    between atoms: C_15  and  C_16 
REMARK    6  A    between atoms: C_16  and  O_17 
REMARK    7  A    between atoms: O_17  and  C_18 
ROOT
HETATM    1  N   UNL     1      42.275 -11.623   4.154  1.00  0.00    -0.321 N 
HETATM    2  C   UNL     1      43.565 -11.301   4.522  1.00  0.00     0.256 C 
HETATM    3  O   UNL     1      44.556 -11.360   3.806  1.00  0.00    -0.267 OA
HETATM    4  H   UNL     1      41.595 -11.808   4.883  1.00  0.00     0.169 HD
ENDROOT
BRANCH   1   5
HETATM    5  C   UNL     1      41.858 -11.981   2.852  1.00  0.00     0.061 A 
HETATM    6  C   UNL     1      41.335 -13.289   2.650  1.00  0.00     0.057 A 
HETATM    7  C   UNL     1      40.710 -13.533   1.414  1.00  0.00     0.031 A 
HETATM    8  C   UNL     1      40.699 -12.576   0.392  1.00  0.00     0.002 A 
HETATM    9  C   UNL     1      41.299 -11.340   0.585  1.00  0.00     0.002 A 
HETATM   10  C   UNL     1      41.870 -11.038   1.817  1.00  0.00     0.032 A 
BRANCH   6  11
HETATM   11  N   UNL     1      41.483 -14.290   3.643  1.00  0.00    -0.376 N 
HETATM   12  C   UNL     1      42.894 -14.674   3.928  1.00  0.00     0.150 C 
HETATM   13  C   UNL     1      43.394 -15.766   2.966  1.00  0.00     0.254 C 
HETATM   14  N   UNL     1      42.490 -16.997   3.047  1.00  0.00    -0.068 N 
HETATM   15  H   UNL     1      42.506 -17.329   4.020  1.00  0.00     0.280 HD
HETATM   16  C   UNL     1      41.040 -16.604   2.740  1.00  0.00     0.254 C 
HETATM   17  C   UNL     1      40.560 -15.446   3.651  1.00  0.00     0.150 C 
BRANCH  14  18
HETATM   18  C   UNL     1      42.955 -18.126   2.157  1.00  0.00     0.230 C 
HETATM   19  C   UNL     1      43.741 -19.152   2.954  1.00  0.00     0.034 C 
ENDBRANCH  14  18
ENDBRANCH   6  11
ENDBRANCH   1   5
BRANCH   2  20
HETATM   20  C   UNL     1      43.731 -10.997   5.964  1.00  0.00     0.032 A 
HETATM   21  C   UNL     1      44.918 -11.380   6.594  1.00  0.00     0.017 A 
HETATM   22  C   UNL     1      45.103 -11.110   7.950  1.00  0.00     0.010 A 
HETATM   23  C   UNL     1      44.112 -10.438   8.683  1.00  0.00    -0.034 A 
HETATM   24  C   UNL     1      42.929 -10.048   8.037  1.00  0.00     0.010 A 
HETATM   25  C   UNL     1      42.734 -10.330   6.682  1.00  0.00     0.017 A 
BRANCH  23  26
HETATM   26  C   UNL     1      44.354 -10.094  10.135  1.00  0.00     0.214 C 
BRANCH  26  27
HETATM   27  O   UNL     1      43.122 -10.272  10.828  1.00  0.00    -0.347 OA
BRANCH  27  28
HETATM   28  C   UNL     1      42.903  -9.493  11.928  1.00  0.00     0.069 A 
HETATM   29  C   UNL     1      43.579  -8.316  12.253  1.00  0.00     0.037 A 
HETATM   30  C   UNL     1      43.251  -7.619  13.421  1.00  0.00     0.003 A 
HETATM   31  C   UNL     1      42.247  -8.093  14.264  1.00  0.00     0.000 A 
HETATM   32  C   UNL     1      41.570  -9.267  13.943  1.00  0.00     0.003 A 
HETATM   33  C   UNL     1      41.897  -9.961  12.779  1.00  0.00     0.037 A 
ENDBRANCH  27  28
ENDBRANCH  26  27
ENDBRANCH  23  26
ENDBRANCH   2  20
TORSDOF 7
ENDMDL
MODEL 7
REMARK VINA RESULT:      -7.9      5.849      7.790
REMARK  7 active torsions:
REMARK  status: ('A' for Active; 'I' for Inactive)
REMARK    1  A    between atoms: C_2  and  N_3 
REMARK    2  A    between atoms: N_7  and  C_8 
REMARK    3  A    between atoms: C_9  and  N_10 
REMARK       I    between atoms: N_10  and  C_11 
REMARK    4  A    between atoms: C_11  and  C_12 
REMARK    5  A    between atoms: C_15  and  C_16 
REMARK    6  A    between atoms: C_16  and  O_17 
REMARK    7  A    between atoms: O_17  and  C_18 
ROOT
HETATM    1  N   UNL     1      39.367 -12.201   1.594  1.00  0.00    -0.321 N 
HETATM    2  C   UNL     1      39.827 -13.414   1.126  1.00  0.00     0.256 C 
HETATM    3  O   UNL     1      39.553 -13.922   0.046  1.00  0.00    -0.267 OA
HETATM    4  H   UNL     1      39.424 -12.012   2.588  1.00  0.00     0.169 HD
ENDROOT
BRANCH   1   5
HETATM    5  C   UNL     1      38.579 -11.284   0.862  1.00  0.00     0.061 A 
HETATM    6  C   UNL     1      39.203 -10.550  -0.185  1.00  0.00     0.057 A 
HETATM    7  C   UNL     1      38.351  -9.834  -1.046  1.00  0.00     0.031 A 
HETATM    8  C   UNL     1      36.971  -9.757  -0.821  1.00  0.00     0.002 A 
HETATM    9  C   UNL     1      36.403 -10.408   0.265  1.00  0.00     0.002 A 
HETATM   10  C   UNL     1      37.203 -11.180   1.100  1.00  0.00     0.032 A 
BRANCH   6  11
HETATM   11  N   UNL     1      40.614 -10.525  -0.312  1.00  0.00    -0.376 N 
HETATM   12  C   UNL     1      41.291  -9.489   0.518  1.00  0.00     0.150 C 
HETATM   13  C   UNL     1      41.351  -8.130  -0.201  1.00  0.00     0.254 C 
HETATM   14  N   UNL     1      42.069  -8.274  -1.544  1.00  0.00    -0.068 N 
HETATM   15  H   UNL     1      43.014  -8.632  -1.353  1.00  0.00     0.280 HD
HETATM   16  C   UNL     1      41.364  -9.329  -2.404  1.00  0.00     0.254 C 
HETATM   17  C   UNL     1      41.225 -10.676  -1.651  1.00  0.00     0.150 C 
BRANCH  14  18
HETATM   18  C   UNL     1      42.202  -6.962  -2.281  1.00  0.00     0.230 C 
HETATM   19  C   UNL     1      43.017  -7.137  -3.550  1.00  0.00     0.034 C 
ENDBRANCH  14  18
ENDBRANCH   6  11
ENDBRANCH   1   5
BRANCH   2  20
HETATM   20  C   UNL     1      40.606 -14.196   2.116  1.00  0.00     0.032 A 
HETATM   21  C   UNL     1      41.834 -13.690   2.549  1.00  0.00     0.017 A 
HETATM   22  C   UNL     1      42.591 -14.405   3.478  1.00  0.00     0.010 A 
HETATM   23  C   UNL     1      42.117 -15.620   3.997  1.00  0.00    -0.034 A 
HETATM   24  C   UNL     1      40.877 -16.112   3.564  1.00  0.00     0.010 A 
HETATM   25  C   UNL     1      40.123 -15.407   2.622  1.00  0.00     0.017 A 
BRANCH  23  26
HETATM   26  C   UNL     1      42.918 -16.350   5.052  1.00  0.00     0.214 C 
BRANCH  26  27
HETATM   27  O   UNL     1      44.056 -16.916   4.411  1.00  0.00    -0.347 OA
BRANCH  27  28
HETATM   28  C   UNL     1      43.943 -18.197   3.949  1.00  0.00     0.069 A 
HETATM   29  C   UNL     1      43.655 -18.579   2.639  1.00  0.00     0.037 A 
HETATM   30  C   UNL     1      43.566 -19.935   2.307  1.00  0.00     0.003 A 
HETATM   31  C   UNL     1      43.767 -20.911   3.282  1.00  0.00     0.000 A 
HETATM   32  C   UNL     1      44.055 -20.535   4.591  1.00  0.00     0.003 A 
HETATM   33  C   UNL     1      44.144 -19.182   4.920  1.00  0.00     0.037 A 
ENDBRANCH  27  28
ENDBRANCH  26  27
ENDBRANCH  23  26
ENDBRANCH   2  20
TORSDOF 7
ENDMDL
MODEL 8
REMARK VINA RESULT:      -7.9      4.591      6.619
REMARK  7 active torsions:
REMARK  status: ('A' for Active; 'I' for Inactive)
REMARK    1  A    between atoms: C_2  and  N_3 
REMARK    2  A    between atoms: N_7  and  C_8 
REMARK    3  A    between atoms: C_9  and  N_10 
REMARK       I    between atoms: N_10  and  C_11 
REMARK    4  A    between atoms: C_11  and  C_12 
REMARK    5  A    between atoms: C_15  and  C_16 
REMARK    6  A    between atoms: C_16  and  O_17 
REMARK    7  A    between atoms: O_17  and  C_18 
ROOT
HETATM    1  N   UNL     1      40.448 -12.123   4.263  1.00  0.00    -0.321 N 
HETATM    2  C   UNL     1      40.007 -12.969   5.259  1.00  0.00     0.256 C 
HETATM    3  O   UNL     1      39.014 -12.806   5.958  1.00  0.00    -0.267 OA
HETATM    4  H   UNL     1      41.408 -12.203   3.949  1.00  0.00     0.169 HD
ENDROOT
BRANCH   1   5
HETATM    5  C   UNL     1      39.770 -10.970   3.807  1.00  0.00     0.061 A 
HETATM    6  C   UNL     1      39.555 -10.827   2.407  1.00  0.00     0.057 A 
HETATM    7  C   UNL     1      38.677  -9.804   2.006  1.00  0.00     0.031 A 
HETATM    8  C   UNL     1      38.127  -8.902   2.926  1.00  0.00     0.002 A 
HETATM    9  C   UNL     1      38.430  -9.009   4.275  1.00  0.00     0.002 A 
HETATM   10  C   UNL     1      39.242 -10.047   4.718  1.00  0.00     0.032 A 
BRANCH   6  11
HETATM   11  N   UNL     1      40.233 -11.660   1.481  1.00  0.00    -0.376 N 
HETATM   12  C   UNL     1      41.222 -10.951   0.622  1.00  0.00     0.150 C 
HETATM   13  C   UNL     1      40.564 -10.347  -0.630  1.00  0.00     0.254 C 
HETATM   14  N   UNL     1      39.859 -11.439  -1.437  1.00  0.00    -0.068 N 
HETATM   15  H   UNL     1      40.568 -12.138  -1.694  1.00  0.00     0.280 HD
HETATM   16  C   UNL     1      38.830 -12.159  -0.557  1.00  0.00     0.254 C 
HETATM   17  C   UNL     1      39.474 -12.696   0.747  1.00  0.00     0.150 C 
BRANCH  14  18
HETATM   18  C   UNL     1      39.229 -10.917  -2.706  1.00  0.00     0.230 C 
HETATM   19  C   UNL     1      40.178  -9.983  -3.435  1.00  0.00     0.034 C 
ENDBRANCH  14  18
ENDBRANCH   6  11
ENDBRANCH   1   5
BRANCH   2  20
HETATM   20  C   UNL     1      40.930 -14.088   5.564  1.00  0.00     0.032 A 
HETATM   21  C   UNL     1      42.211 -14.068   5.005  1.00  0.00     0.017 A 
HETATM   22  C   UNL     1      43.101 -15.109   5.271  1.00  0.00     0.010 A 
HETATM   23  C   UNL     1      42.727 -16.166   6.116  1.00  0.00    -0.034 A 
HETATM   24  C   UNL     1      41.443 -16.170   6.681  1.00  0.00     0.010 A 
HETATM   25  C   UNL     1      40.543 -15.137   6.404  1.00  0.00     0.017 A 
BRANCH  23  26
HETATM   26  C   UNL     1      43.725 -17.252   6.448  1.00  0.00     0.214 C 
BRANCH  26  27
HETATM   27  O   UNL     1      44.513 -17.481   5.284  1.00  0.00    -0.347 OA
BRANCH  27  28
HETATM   28  C   UNL     1      44.198 -18.566   4.516  1.00  0.00     0.069 A 
HETATM   29  C   UNL     1      44.214 -19.899   4.926  1.00  0.00     0.037 A 
HETATM   30  C   UNL     1      43.870 -20.914   4.027  1.00  0.00     0.003 A 
HETATM   31  C   UNL     1      43.507 -20.599   2.718  1.00  0.00     0.000 A 
HETATM   32  C   UNL     1      43.488 -19.270   2.305  1.00  0.00     0.003 A 
HETATM   33  C   UNL     1      43.832 -18.259   3.203  1.00  0.00     0.037 A 
ENDBRANCH  27  28
ENDBRANCH  26  27
ENDBRANCH  23  26
ENDBRANCH   2  20
TORSDOF 7
ENDMDL
MODEL 9
REMARK VINA RESULT:      -7.8     18.401     20.515
REMARK  7 active torsions:
REMARK  status: ('A' for Active; 'I' for Inactive)
REMARK    1  A    between atoms: C_2  and  N_3 
REMARK    2  A    between atoms: N_7  and  C_8 
REMARK    3  A    between atoms: C_9  and  N_10 
REMARK       I    between atoms: N_10  and  C_11 
REMARK    4  A    between atoms: C_11  and  C_12 
REMARK    5  A    between atoms: C_15  and  C_16 
REMARK    6  A    between atoms: C_16  and  O_17 
REMARK    7  A    between atoms: O_17  and  C_18 
ROOT
HETATM    1  N   UNL     1      47.652 -29.892   1.226  1.00  0.00    -0.321 N 
HETATM    2  C   UNL     1      48.107 -29.193   2.325  1.00  0.00     0.256 C 
HETATM    3  O   UNL     1      47.850 -28.027   2.596  1.00  0.00    -0.267 OA
HETATM    4  H   UNL     1      48.140 -30.737   0.952  1.00  0.00     0.169 HD
ENDROOT
BRANCH   1   5
HETATM    5  C   UNL     1      46.724 -29.411   0.274  1.00  0.00     0.061 A 
HETATM    6  C   UNL     1      45.340 -29.454   0.606  1.00  0.00     0.057 A 
HETATM    7  C   UNL     1      44.467 -28.754  -0.246  1.00  0.00     0.031 A 
HETATM    8  C   UNL     1      44.919 -28.138  -1.420  1.00  0.00     0.002 A 
HETATM    9  C   UNL     1      46.261 -28.193  -1.766  1.00  0.00     0.002 A 
HETATM   10  C   UNL     1      47.165 -28.820  -0.916  1.00  0.00     0.032 A 
BRANCH   6  11
HETATM   11  N   UNL     1      44.885 -30.202   1.720  1.00  0.00    -0.376 N 
HETATM   12  C   UNL     1      44.558 -31.624   1.418  1.00  0.00     0.150 C 
HETATM   13  C   UNL     1      43.116 -31.784   0.910  1.00  0.00     0.254 C 
HETATM   14  N   UNL     1      42.128 -31.228   1.937  1.00  0.00    -0.068 N 
HETATM   15  H   UNL     1      42.269 -31.747   2.813  1.00  0.00     0.280 HD
HETATM   16  C   UNL     1      42.454 -29.760   2.237  1.00  0.00     0.254 C 
HETATM   17  C   UNL     1      43.932 -29.584   2.668  1.00  0.00     0.150 C 
BRANCH  14  18
HETATM   18  C   UNL     1      40.687 -31.397   1.517  1.00  0.00     0.230 C 
HETATM   19  C   UNL     1      39.898 -32.139   2.581  1.00  0.00     0.034 C 
ENDBRANCH  14  18
ENDBRANCH   6  11
ENDBRANCH   1   5
BRANCH   2  20
HETATM   20  C   UNL     1      49.106 -29.923   3.142  1.00  0.00     0.032 A 
HETATM   21  C   UNL     1      48.655 -30.700   4.211  1.00  0.00     0.017 A 
HETATM   22  C   UNL     1      49.571 -31.395   5.000  1.00  0.00     0.010 A 
HETATM   23  C   UNL     1      50.944 -31.337   4.714  1.00  0.00    -0.034 A 
HETATM   24  C   UNL     1      51.385 -30.563   3.630  1.00  0.00     0.010 A 
HETATM   25  C   UNL     1      50.471 -29.852   2.847  1.00  0.00     0.017 A 
BRANCH  23  26
HETATM   26  C   UNL     1      51.919 -32.149   5.537  1.00  0.00     0.214 C 
BRANCH  26  27
HETATM   27  O   UNL     1      52.899 -31.251   6.048  1.00  0.00    -0.347 OA
BRANCH  27  28
HETATM   28  C   UNL     1      53.187 -31.329   7.381  1.00  0.00     0.069 A 
HETATM   29  C   UNL     1      54.105 -30.539   8.074  1.00  0.00     0.037 A 
HETATM   30  C   UNL     1      54.302 -30.733   9.446  1.00  0.00     0.003 A 
HETATM   31  C   UNL     1      53.582 -31.714  10.127  1.00  0.00     0.000 A 
HETATM   32  C   UNL     1      52.665 -32.504   9.439  1.00  0.00     0.003 A 
HETATM   33  C   UNL     1      52.469 -32.309   8.072  1.00  0.00     0.037 A 
ENDBRANCH  27  28
ENDBRANCH  26  27
ENDBRANCH  23  26
ENDBRANCH   2  20
TORSDOF 7
ENDMDL
MODEL 10
REMARK VINA RESULT:      -7.8      1.796      2.535
REMARK  7 active torsions:
REMARK  status: ('A' for Active; 'I' for Inactive)
REMARK    1  A    between atoms: C_2  and  N_3 
REMARK    2  A    between atoms: N_7  and  C_8 
REMARK    3  A    between atoms: C_9  and  N_10 
REMARK       I    between atoms: N_10  and  C_11 
REMARK    4  A    between atoms: C_11  and  C_12 
REMARK    5  A    between atoms: C_15  and  C_16 
REMARK    6  A    between atoms: C_16  and  O_17 
REMARK    7  A    between atoms: O_17  and  C_18 
ROOT
HETATM    1  N   UNL     1      42.769  -9.921   9.482  1.00  0.00    -0.321 N 
HETATM    2  C   UNL     1      43.532  -9.816   8.338  1.00  0.00     0.256 C 
HETATM    3  O   UNL     1      44.209  -8.850   8.008  1.00  0.00    -0.267 OA
HETATM    4  H   UNL     1      42.043 -10.627   9.517  1.00  0.00     0.169 HD
ENDROOT
BRANCH   1   5
HETATM    5  C   UNL     1      42.718  -8.968  10.525  1.00  0.00     0.061 A 
HETATM    6  C   UNL     1      41.652  -8.025  10.520  1.00  0.00     0.057 A 
HETATM    7  C   UNL     1      41.488  -7.254  11.685  1.00  0.00     0.031 A 
HETATM    8  C   UNL     1      42.392  -7.330  12.752  1.00  0.00     0.002 A 
HETATM    9  C   UNL     1      43.477  -8.193  12.688  1.00  0.00     0.002 A 
HETATM   10  C   UNL     1      43.635  -9.019  11.581  1.00  0.00     0.032 A 
BRANCH   6  11
HETATM   11  N   UNL     1      40.833  -7.862   9.374  1.00  0.00    -0.376 N 
HETATM   12  C   UNL     1      41.144  -6.654   8.560  1.00  0.00     0.150 C 
HETATM   13  C   UNL     1      40.408  -5.408   9.080  1.00  0.00     0.254 C 
HETATM   14  N   UNL     1      38.898  -5.654   9.095  1.00  0.00    -0.068 N 
HETATM   15  H   UNL     1      38.612  -5.876   8.132  1.00  0.00     0.280 HD
HETATM   16  C   UNL     1      38.576  -6.888   9.945  1.00  0.00     0.254 C 
HETATM   17  C   UNL     1      39.381  -8.127   9.476  1.00  0.00     0.150 C 
BRANCH  14  18
HETATM   18  C   UNL     1      38.111  -4.448   9.553  1.00  0.00     0.230 C 
HETATM   19  C   UNL     1      38.018  -4.409  11.068  1.00  0.00     0.034 C 
ENDBRANCH  14  18
ENDBRANCH   6  11
ENDBRANCH   1   5
BRANCH   2  20
HETATM   20  C   UNL     1      43.371 -10.944   7.390  1.00  0.00     0.032 A 
HETATM   21  C   UNL     1      42.318 -10.901   6.473  1.00  0.00     0.017 A 
HETATM   22  C   UNL     1      42.140 -11.950   5.570  1.00  0.00     0.010 A 
HETATM   23  C   UNL     1      43.024 -13.040   5.562  1.00  0.00    -0.034 A 
HETATM   24  C   UNL     1      44.085 -13.067   6.480  1.00  0.00     0.010 A 
HETATM   25  C   UNL     1      44.258 -12.025   7.396  1.00  0.00     0.017 A 
BRANCH  23  26
HETATM   26  C   UNL     1      42.857 -14.137   4.535  1.00  0.00     0.214 C 
BRANCH  26  27
HETATM   27  O   UNL     1      43.283 -15.355   5.136  1.00  0.00    -0.347 OA
BRANCH  27  28
HETATM   28  C   UNL     1      43.401 -16.447   4.324  1.00  0.00     0.069 A 
HETATM   29  C   UNL     1      42.852 -16.591   3.050  1.00  0.00     0.037 A 
HETATM   30  C   UNL     1      43.051 -17.774   2.330  1.00  0.00     0.003 A 
HETATM   31  C   UNL     1      43.800 -18.813   2.880  1.00  0.00     0.000 A 
HETATM   32  C   UNL     1      44.351 -18.674   4.151  1.00  0.00     0.003 A 
HETATM   33  C   UNL     1      44.152 -17.494   4.867  1.00  0.00     0.037 A 
ENDBRANCH  27  28
ENDBRANCH  26  27
ENDBRANCH  23  26
ENDBRANCH   2  20
TORSDOF 7
ENDMDL
