MODEL 1
REMARK VINA RESULT:      -8.5      0.000      0.000
REMARK  7 active torsions:
REMARK  status: ('A' for Active; 'I' for Inactive)
REMARK    1  A    between atoms: C_2  and  C_3 
REMARK       I    between atoms: C_3  and  N_4 
REMARK    2  A    between atoms: N_7  and  C_8 
REMARK    3  A    between atoms: C_12  and  N_13 
REMARK    4  A    between atoms: N_13  and  C_14 
REMARK    5  A    between atoms: C_14  and  N_15 
REMARK       I    between atoms: N_15  and  C_16 
REMARK    6  A    between atoms: C_16  and  C_17 
REMARK    7  A    between atoms: C_18  and  O_19 
ROOT
HETATM    1  C   UNL     1      42.910 -13.473   5.488  1.00  0.00     0.052 A 
HETATM    2  C   UNL     1      41.752 -12.745   5.817  1.00  0.00     0.062 A 
HETATM    3 CL   UNL     1      40.148 -13.303   5.469  1.00  0.00    -0.082 Cl
HETATM    4  C   UNL     1      41.838 -11.477   6.417  1.00  0.00     0.055 A 
HETATM    5  C   UNL     1      43.070 -10.895   6.698  1.00  0.00     0.036 A 
HETATM    6  C   UNL     1      44.220 -11.546   6.253  1.00  0.00     0.032 A 
HETATM    7  C   UNL     1      44.140 -12.815   5.666  1.00  0.00     0.033 A 
ENDROOT
BRANCH   5   8
HETATM    8  N   UNL     1      43.250  -9.680   7.394  1.00  0.00    -0.333 N 
HETATM    9  H   UNL     1      42.759  -8.877   6.993  1.00  0.00     0.168 HD
BRANCH   8  10
HETATM   10  C   UNL     1      44.100  -9.329   8.419  1.00  0.00     0.179 C 
HETATM   11  S   UNL     1      45.732  -8.970   8.387  1.00  0.00    -0.040 SA
BRANCH  10  12
HETATM   12  N   UNL     1      43.500  -9.230   9.662  1.00  0.00    -0.299 N 
HETATM   13  C   UNL     1      43.050  -8.112  10.350  1.00  0.00     0.260 C 
HETATM   14  O   UNL     1      43.204  -6.958   9.965  1.00  0.00    -0.267 OA
HETATM   15  H   UNL     1      43.373 -10.129  10.115  1.00  0.00     0.171 HD
BRANCH  13  16
HETATM   16  C   UNL     1      42.430  -8.402  11.666  1.00  0.00     0.066 A 
HETATM   17  C   UNL     1      41.303  -9.231  11.801  1.00  0.00     0.089 A 
HETATM   18  C   UNL     1      40.834  -9.596  13.073  1.00  0.00    -0.028 A 
HETATM   19  C   UNL     1      39.685 -10.553  13.231  1.00  0.00     0.051 C 
HETATM   20  C   UNL     1      41.483  -9.083  14.205  1.00  0.00     0.009 A 
HETATM   21  C   UNL     1      42.569  -8.215  14.074  1.00  0.00     0.002 A 
HETATM   22  C   UNL     1      43.042  -7.871  12.807  1.00  0.00     0.020 A 
BRANCH  17  23
HETATM   23  O   UNL     1      40.664  -9.757  10.705  1.00  0.00    -0.354 OA
HETATM   24  C   UNL     1      39.695  -8.835  10.187  1.00  0.00     0.210 C 
ENDBRANCH  17  23
ENDBRANCH  13  16
ENDBRANCH  10  12
ENDBRANCH   8  10
ENDBRANCH   5   8
BRANCH   1  25
HETATM   25  N   UNL     1      42.978 -14.800   5.055  1.00  0.00    -0.376 N 
HETATM   26  C   UNL     1      43.944 -15.656   5.771  1.00  0.00     0.143 C 
HETATM   27  C   UNL     1      43.613 -17.143   5.514  1.00  0.00     0.145 C 
HETATM   28  N   UNL     1      43.407 -17.465   4.091  1.00  0.00    -0.349 N 
HETATM   29  C   UNL     1      43.629 -18.776   3.682  1.00  0.00     0.219 C 
HETATM   30  C   UNL     1      42.549 -16.521   3.356  1.00  0.00     0.145 C 
HETATM   31  O   UNL     1      44.111 -19.622   4.436  1.00  0.00    -0.273 OA
HETATM   32  C   UNL     1      42.955 -15.060   3.605  1.00  0.00     0.143 C 
BRANCH  29  33
HETATM   33  C   UNL     1      43.269 -19.110   2.241  1.00  0.00     0.098 C 
HETATM   34  C   UNL     1      43.615 -20.540   1.864  1.00  0.00     0.014 C 
ENDBRANCH  29  33
ENDBRANCH   1  25
TORSDOF 7
ENDMDL
MODEL 2
REMARK VINA RESULT:      -8.5      3.409      9.598
REMARK  7 active torsions:
REMARK  status: ('A' for Active; 'I' for Inactive)
REMARK    1  A    between atoms: C_2  and  C_3 
REMARK       I    between atoms: C_3  and  N_4 
REMARK    2  A    between atoms: N_7  and  C_8 
REMARK    3  A    between atoms: C_12  and  N_13 
REMARK    4  A    between atoms: N_13  and  C_14 
REMARK    5  A    between atoms: C_14  and  N_15 
REMARK       I    between atoms: N_15  and  C_16 
REMARK    6  A    between atoms: C_16  and  C_17 
REMARK    7  A    between atoms: C_18  and  O_19 
ROOT
HETATM    1  C   UNL     1      42.743 -10.984   5.045  1.00  0.00     0.052 A 
HETATM    2  C   UNL     1      43.504 -11.458   3.960  1.00  0.00     0.062 A 
HETATM    3 CL   UNL     1      45.237 -11.486   3.955  1.00  0.00    -0.082 Cl
HETATM    4  C   UNL     1      42.886 -11.899   2.779  1.00  0.00     0.055 A 
HETATM    5  C   UNL     1      41.501 -11.876   2.637  1.00  0.00     0.036 A 
HETATM    6  C   UNL     1      40.748 -11.283   3.651  1.00  0.00     0.032 A 
HETATM    7  C   UNL     1      41.360 -10.853   4.835  1.00  0.00     0.033 A 
ENDROOT
BRANCH   5   8
HETATM    8  N   UNL     1      40.792 -12.399   1.534  1.00  0.00    -0.333 N 
HETATM    9  H   UNL     1      40.049 -11.795   1.174  1.00  0.00     0.168 HD
BRANCH   8  10
HETATM   10  C   UNL     1      40.797 -13.646   0.951  1.00  0.00     0.179 C 
HETATM   11  S   UNL     1      40.079 -14.174  -0.464  1.00  0.00    -0.040 SA
BRANCH  10  12
HETATM   12  N   UNL     1      41.538 -14.599   1.626  1.00  0.00    -0.299 N 
HETATM   13  C   UNL     1      41.123 -15.718   2.334  1.00  0.00     0.260 C 
HETATM   14  O   UNL     1      39.949 -16.000   2.549  1.00  0.00    -0.267 OA
HETATM   15  H   UNL     1      42.538 -14.435   1.572  1.00  0.00     0.171 HD
BRANCH  13  16
HETATM   16  C   UNL     1      42.223 -16.531   2.910  1.00  0.00     0.066 A 
HETATM   17  C   UNL     1      42.944 -16.126   4.045  1.00  0.00     0.089 A 
HETATM   18  C   UNL     1      43.877 -16.987   4.643  1.00  0.00    -0.028 A 
HETATM   19  C   UNL     1      44.590 -16.602   5.909  1.00  0.00     0.051 C 
HETATM   20  C   UNL     1      44.108 -18.242   4.060  1.00  0.00     0.009 A 
HETATM   21  C   UNL     1      43.433 -18.625   2.899  1.00  0.00     0.002 A 
HETATM   22  C   UNL     1      42.493 -17.771   2.321  1.00  0.00     0.020 A 
BRANCH  17  23
HETATM   23  O   UNL     1      42.721 -14.908   4.641  1.00  0.00    -0.354 OA
HETATM   24  C   UNL     1      41.603 -14.975   5.537  1.00  0.00     0.210 C 
ENDBRANCH  17  23
ENDBRANCH  13  16
ENDBRANCH  10  12
ENDBRANCH   8  10
ENDBRANCH   5   8
BRANCH   1  25
HETATM   25  N   UNL     1      43.203 -10.681   6.330  1.00  0.00    -0.376 N 
HETATM   26  C   UNL     1      43.888 -11.780   7.038  1.00  0.00     0.143 C 
HETATM   27  C   UNL     1      44.711 -11.209   8.215  1.00  0.00     0.145 C 
HETATM   28  N   UNL     1      43.955 -10.274   9.066  1.00  0.00    -0.349 N 
HETATM   29  C   UNL     1      44.368 -10.116  10.385  1.00  0.00     0.219 C 
HETATM   30  C   UNL     1      43.166  -9.267   8.338  1.00  0.00     0.145 C 
HETATM   31  O   UNL     1      45.245 -10.823  10.883  1.00  0.00    -0.273 OA
HETATM   32  C   UNL     1      42.326  -9.894   7.214  1.00  0.00     0.143 C 
BRANCH  29  33
HETATM   33  C   UNL     1      43.660  -9.039  11.195  1.00  0.00     0.098 C 
HETATM   34  C   UNL     1      42.873  -9.604  12.365  1.00  0.00     0.014 C 
ENDBRANCH  29  33
ENDBRANCH   1  25
TORSDOF 7
ENDMDL
MODEL 3
REMARK VINA RESULT:      -8.4      7.542     11.142
REMARK  7 active torsions:
REMARK  status: ('A' for Active; 'I' for Inactive)
REMARK    1  A    between atoms: C_2  and  C_3 
REMARK       I    between atoms: C_3  and  N_4 
REMARK    2  A    between atoms: N_7  and  C_8 
REMARK    3  A    between atoms: C_12  and  N_13 
REMARK    4  A    between atoms: N_13  and  C_14 
REMARK    5  A    between atoms: C_14  and  N_15 
REMARK       I    between atoms: N_15  and  C_16 
REMARK    6  A    between atoms: C_16  and  C_17 
REMARK    7  A    between atoms: C_18  and  O_19 
ROOT
HETATM    1  C   UNL     1      40.423 -12.101  -0.324  1.00  0.00     0.052 A 
HETATM    2  C   UNL     1      40.242 -13.451  -0.680  1.00  0.00     0.062 A 
HETATM    3 CL   UNL     1      40.221 -14.005  -2.322  1.00  0.00    -0.082 Cl
HETATM    4  C   UNL     1      40.017 -14.435   0.297  1.00  0.00     0.055 A 
HETATM    5  C   UNL     1      39.957 -14.109   1.648  1.00  0.00     0.036 A 
HETATM    6  C   UNL     1      39.999 -12.760   2.000  1.00  0.00     0.032 A 
HETATM    7  C   UNL     1      40.236 -11.777   1.031  1.00  0.00     0.033 A 
ENDROOT
BRANCH   5   8
HETATM    8  N   UNL     1      39.844 -15.043   2.701  1.00  0.00    -0.333 N 
HETATM    9  H   UNL     1      38.939 -15.516   2.763  1.00  0.00     0.168 HD
BRANCH   8  10
HETATM   10  C   UNL     1      40.665 -15.319   3.771  1.00  0.00     0.179 C 
HETATM   11  S   UNL     1      40.868 -14.495   5.211  1.00  0.00    -0.040 SA
BRANCH  10  12
HETATM   12  N   UNL     1      41.413 -16.476   3.645  1.00  0.00    -0.299 N 
HETATM   13  C   UNL     1      42.522 -16.742   2.854  1.00  0.00     0.260 C 
HETATM   14  O   UNL     1      42.986 -15.958   2.032  1.00  0.00    -0.267 OA
HETATM   15  H   UNL     1      41.083 -17.229   4.240  1.00  0.00     0.171 HD
BRANCH  13  16
HETATM   16  C   UNL     1      43.078 -18.109   3.006  1.00  0.00     0.066 A 
HETATM   17  C   UNL     1      43.466 -18.631   4.251  1.00  0.00     0.089 A 
HETATM   18  C   UNL     1      43.851 -19.974   4.374  1.00  0.00    -0.028 A 
HETATM   19  C   UNL     1      44.182 -20.568   5.715  1.00  0.00     0.051 C 
HETATM   20  C   UNL     1      43.886 -20.775   3.223  1.00  0.00     0.009 A 
HETATM   21  C   UNL     1      43.554 -20.244   1.974  1.00  0.00     0.002 A 
HETATM   22  C   UNL     1      43.153 -18.913   1.863  1.00  0.00     0.020 A 
BRANCH  17  23
HETATM   23  O   UNL     1      43.423 -17.868   5.393  1.00  0.00    -0.354 OA
HETATM   24  C   UNL     1      44.595 -17.050   5.506  1.00  0.00     0.210 C 
ENDBRANCH  17  23
ENDBRANCH  13  16
ENDBRANCH  10  12
ENDBRANCH   8  10
ENDBRANCH   5   8
BRANCH   1  25
HETATM   25  N   UNL     1      40.824 -11.054  -1.159  1.00  0.00    -0.376 N 
HETATM   26  C   UNL     1      41.496  -9.925  -0.487  1.00  0.00     0.143 C 
HETATM   27  C   UNL     1      42.260  -9.079  -1.530  1.00  0.00     0.145 C 
HETATM   28  N   UNL     1      41.455  -8.730  -2.713  1.00  0.00    -0.349 N 
HETATM   29  C   UNL     1      41.810  -7.593  -3.430  1.00  0.00     0.219 C 
HETATM   30  C   UNL     1      40.681  -9.842  -3.290  1.00  0.00     0.145 C 
HETATM   31  O   UNL     1      42.677  -6.814  -3.031  1.00  0.00    -0.273 OA
HETATM   32  C   UNL     1      39.898 -10.617  -2.218  1.00  0.00     0.143 C 
BRANCH  29  33
HETATM   33  C   UNL     1      41.052  -7.340  -4.726  1.00  0.00     0.098 C 
HETATM   34  C   UNL     1      40.182  -6.096  -4.668  1.00  0.00     0.014 C 
ENDBRANCH  29  33
ENDBRANCH   1  25
TORSDOF 7
ENDMDL
MODEL 4
REMARK VINA RESULT:      -8.3      1.118      1.239
REMARK  7 active torsions:
REMARK  status: ('A' for Active; 'I' for Inactive)
REMARK    1  A    between atoms: C_2  and  C_3 
REMARK       I    between atoms: C_3  and  N_4 
REMARK    2  A    between atoms: N_7  and  C_8 
REMARK    3  A    between atoms: C_12  and  N_13 
REMARK    4  A    between atoms: N_13  and  C_14 
REMARK    5  A    between atoms: C_14  and  N_15 
REMARK       I    between atoms: N_15  and  C_16 
REMARK    6  A    between atoms: C_16  and  C_17 
REMARK    7  A    between atoms: C_18  and  O_19 
ROOT
HETATM    1  C   UNL     1      42.994 -13.423   5.754  1.00  0.00     0.052 A 
HETATM    2  C   UNL     1      41.924 -12.536   5.532  1.00  0.00     0.062 A 
HETATM    3 CL   UNL     1      40.628 -12.870   4.432  1.00  0.00    -0.082 Cl
HETATM    4  C   UNL     1      41.875 -11.285   6.168  1.00  0.00     0.055 A 
HETATM    5  C   UNL     1      42.885 -10.876   7.035  1.00  0.00     0.036 A 
HETATM    6  C   UNL     1      44.013 -11.688   7.156  1.00  0.00     0.032 A 
HETATM    7  C   UNL     1      44.061 -12.941   6.533  1.00  0.00     0.033 A 
ENDROOT
BRANCH   5   8
HETATM    8  N   UNL     1      42.864  -9.689   7.798  1.00  0.00    -0.333 N 
HETATM    9  H   UNL     1      42.089  -9.056   7.589  1.00  0.00     0.168 HD
BRANCH   8  10
HETATM   10  C   UNL     1      43.787  -9.138   8.658  1.00  0.00     0.179 C 
HETATM   11  S   UNL     1      45.433  -8.914   8.469  1.00  0.00    -0.040 SA
BRANCH  10  12
HETATM   12  N   UNL     1      43.263  -8.668   9.848  1.00  0.00    -0.299 N 
HETATM   13  C   UNL     1      43.243  -9.250  11.108  1.00  0.00     0.260 C 
HETATM   14  O   UNL     1      43.644 -10.383  11.349  1.00  0.00    -0.267 OA
HETATM   15  H   UNL     1      42.840  -7.749   9.761  1.00  0.00     0.171 HD
BRANCH  13  16
HETATM   16  C   UNL     1      42.605  -8.424  12.163  1.00  0.00     0.066 A 
HETATM   17  C   UNL     1      41.233  -8.120  12.154  1.00  0.00     0.089 A 
HETATM   18  C   UNL     1      40.642  -7.460  13.242  1.00  0.00    -0.028 A 
HETATM   19  C   UNL     1      39.160  -7.208  13.286  1.00  0.00     0.051 C 
HETATM   20  C   UNL     1      41.453  -7.069  14.318  1.00  0.00     0.009 A 
HETATM   21  C   UNL     1      42.827  -7.321  14.303  1.00  0.00     0.002 A 
HETATM   22  C   UNL     1      43.405  -7.995  13.228  1.00  0.00     0.020 A 
BRANCH  17  23
HETATM   23  O   UNL     1      40.418  -8.508  11.119  1.00  0.00    -0.354 OA
HETATM   24  C   UNL     1      39.930  -9.840  11.323  1.00  0.00     0.210 C 
ENDBRANCH  17  23
ENDBRANCH  13  16
ENDBRANCH  10  12
ENDBRANCH   8  10
ENDBRANCH   5   8
BRANCH   1  25
HETATM   25  N   UNL     1      43.090 -14.753   5.333  1.00  0.00    -0.376 N 
HETATM   26  C   UNL     1      43.972 -15.615   6.142  1.00  0.00     0.143 C 
HETATM   27  C   UNL     1      43.653 -17.101   5.858  1.00  0.00     0.145 C 
HETATM   28  N   UNL     1      43.582 -17.426   4.423  1.00  0.00    -0.349 N 
HETATM   29  C   UNL     1      43.828 -18.740   4.041  1.00  0.00     0.219 C 
HETATM   30  C   UNL     1      42.809 -16.476   3.606  1.00  0.00     0.145 C 
HETATM   31  O   UNL     1      44.226 -19.589   4.840  1.00  0.00    -0.273 OA
HETATM   32  C   UNL     1      43.204 -15.018   3.889  1.00  0.00     0.143 C 
BRANCH  29  33
HETATM   33  C   UNL     1      43.605 -19.076   2.573  1.00  0.00     0.098 C 
HETATM   34  C   UNL     1      43.706 -20.564   2.287  1.00  0.00     0.014 C 
ENDBRANCH  29  33
ENDBRANCH   1  25
TORSDOF 7
ENDMDL
MODEL 5
REMARK VINA RESULT:      -8.2      2.843     10.040
REMARK  7 active torsions:
REMARK  status: ('A' for Active; 'I' for Inactive)
REMARK    1  A    between atoms: C_2  and  C_3 
REMARK       I    between atoms: C_3  and  N_4 
REMARK    2  A    between atoms: N_7  and  C_8 
REMARK    3  A    between atoms: C_12  and  N_13 
REMARK    4  A    between atoms: N_13  and  C_14 
REMARK    5  A    between atoms: C_14  and  N_15 
REMARK       I    between atoms: N_15  and  C_16 
REMARK    6  A    between atoms: C_16  and  C_17 
REMARK    7  A    between atoms: C_18  and  O_19 
ROOT
HETATM    1  C   UNL     1      43.047 -10.130   7.045  1.00  0.00     0.052 A 
HETATM    2  C   UNL     1      44.083 -10.934   6.537  1.00  0.00     0.062 A 
HETATM    3 CL   UNL     1      45.445 -11.439   7.482  1.00  0.00    -0.082 Cl
HETATM    4  C   UNL     1      44.093 -11.340   5.192  1.00  0.00     0.055 A 
HETATM    5  C   UNL     1      43.083 -10.955   4.315  1.00  0.00     0.036 A 
HETATM    6  C   UNL     1      42.126 -10.050   4.774  1.00  0.00     0.032 A 
HETATM    7  C   UNL     1      42.106  -9.653   6.117  1.00  0.00     0.033 A 
ENDROOT
BRANCH   5   8
HETATM    8  N   UNL     1      42.955 -11.403   2.982  1.00  0.00    -0.333 N 
HETATM    9  H   UNL     1      43.302 -10.753   2.274  1.00  0.00     0.168 HD
BRANCH   8  10
HETATM   10  C   UNL     1      42.295 -12.483   2.439  1.00  0.00     0.179 C 
HETATM   11  S   UNL     1      41.137 -12.539   1.234  1.00  0.00    -0.040 SA
BRANCH  10  12
HETATM   12  N   UNL     1      42.673 -13.711   2.950  1.00  0.00    -0.299 N 
HETATM   13  C   UNL     1      42.259 -14.367   4.100  1.00  0.00     0.260 C 
HETATM   14  O   UNL     1      41.502 -13.882   4.935  1.00  0.00    -0.267 OA
HETATM   15  H   UNL     1      43.354 -14.190   2.369  1.00  0.00     0.171 HD
BRANCH  13  16
HETATM   16  C   UNL     1      42.876 -15.700   4.311  1.00  0.00     0.066 A 
HETATM   17  C   UNL     1      42.858 -16.702   3.326  1.00  0.00     0.089 A 
HETATM   18  C   UNL     1      43.575 -17.894   3.508  1.00  0.00    -0.028 A 
HETATM   19  C   UNL     1      43.638 -18.935   2.425  1.00  0.00     0.051 C 
HETATM   20  C   UNL     1      44.273 -18.086   4.709  1.00  0.00     0.009 A 
HETATM   21  C   UNL     1      44.246 -17.115   5.713  1.00  0.00     0.002 A 
HETATM   22  C   UNL     1      43.548 -15.924   5.517  1.00  0.00     0.020 A 
BRANCH  17  23
HETATM   23  O   UNL     1      42.195 -16.527   2.135  1.00  0.00    -0.354 OA
HETATM   24  C   UNL     1      40.776 -16.603   2.325  1.00  0.00     0.210 C 
ENDBRANCH  17  23
ENDBRANCH  13  16
ENDBRANCH  10  12
ENDBRANCH   8  10
ENDBRANCH   5   8
BRANCH   1  25
HETATM   25  N   UNL     1      42.815  -9.799   8.384  1.00  0.00    -0.376 N 
HETATM   26  C   UNL     1      41.503  -9.186   8.670  1.00  0.00     0.143 C 
HETATM   27  C   UNL     1      41.204  -9.280  10.184  1.00  0.00     0.145 C 
HETATM   28  N   UNL     1      42.319  -8.830  11.035  1.00  0.00    -0.349 N 
HETATM   29  C   UNL     1      42.018  -8.372  12.314  1.00  0.00     0.219 C 
HETATM   30  C   UNL     1      43.644  -9.343  10.650  1.00  0.00     0.145 C 
HETATM   31  O   UNL     1      40.857  -8.211  12.693  1.00  0.00    -0.273 OA
HETATM   32  C   UNL     1      43.912  -9.177   9.146  1.00  0.00     0.143 C 
BRANCH  29  33
HETATM   33  C   UNL     1      43.200  -8.053  13.218  1.00  0.00     0.098 C 
HETATM   34  C   UNL     1      42.857  -7.043  14.300  1.00  0.00     0.014 C 
ENDBRANCH  29  33
ENDBRANCH   1  25
TORSDOF 7
ENDMDL
MODEL 6
REMARK VINA RESULT:      -8.2      2.304      3.088
REMARK  7 active torsions:
REMARK  status: ('A' for Active; 'I' for Inactive)
REMARK    1  A    between atoms: C_2  and  C_3 
REMARK       I    between atoms: C_3  and  N_4 
REMARK    2  A    between atoms: N_7  and  C_8 
REMARK    3  A    between atoms: C_12  and  N_13 
REMARK    4  A    between atoms: N_13  and  C_14 
REMARK    5  A    between atoms: C_14  and  N_15 
REMARK       I    between atoms: N_15  and  C_16 
REMARK    6  A    between atoms: C_16  and  C_17 
REMARK    7  A    between atoms: C_18  and  O_19 
ROOT
HETATM    1  C   UNL     1      41.691 -13.138   4.962  1.00  0.00     0.052 A 
HETATM    2  C   UNL     1      42.259 -11.952   4.460  1.00  0.00     0.062 A 
HETATM    3 CL   UNL     1      43.720 -11.918   3.531  1.00  0.00    -0.082 Cl
HETATM    4  C   UNL     1      41.683 -10.700   4.735  1.00  0.00     0.055 A 
HETATM    5  C   UNL     1      40.537 -10.589   5.516  1.00  0.00     0.036 A 
HETATM    6  C   UNL     1      40.045 -11.743   6.128  1.00  0.00     0.032 A 
HETATM    7  C   UNL     1      40.609 -12.994   5.848  1.00  0.00     0.033 A 
ENDROOT
BRANCH   5   8
HETATM    8  N   UNL     1      39.832  -9.389   5.751  1.00  0.00    -0.333 N 
HETATM    9  H   UNL     1      39.213  -9.096   4.991  1.00  0.00     0.168 HD
BRANCH   8  10
HETATM   10  C   UNL     1      39.944  -8.441   6.744  1.00  0.00     0.179 C 
HETATM   11  S   UNL     1      38.973  -7.124   7.087  1.00  0.00    -0.040 SA
BRANCH  10  12
HETATM   12  N   UNL     1      41.008  -8.628   7.607  1.00  0.00    -0.299 N 
HETATM   13  C   UNL     1      42.189  -7.912   7.739  1.00  0.00     0.260 C 
HETATM   14  O   UNL     1      42.522  -6.991   7.000  1.00  0.00    -0.267 OA
HETATM   15  H   UNL     1      40.875  -9.413   8.237  1.00  0.00     0.171 HD
BRANCH  13  16
HETATM   16  C   UNL     1      43.096  -8.401   8.807  1.00  0.00     0.066 A 
HETATM   17  C   UNL     1      42.643  -8.687  10.106  1.00  0.00     0.089 A 
HETATM   18  C   UNL     1      43.499  -9.282  11.045  1.00  0.00    -0.028 A 
HETATM   19  C   UNL     1      43.003  -9.675  12.408  1.00  0.00     0.051 C 
HETATM   20  C   UNL     1      44.826  -9.546  10.677  1.00  0.00     0.009 A 
HETATM   21  C   UNL     1      45.294  -9.212   9.404  1.00  0.00     0.002 A 
HETATM   22  C   UNL     1      44.433  -8.638   8.469  1.00  0.00     0.020 A 
BRANCH  17  23
HETATM   23  O   UNL     1      41.343  -8.452  10.481  1.00  0.00    -0.354 OA
HETATM   24  C   UNL     1      41.181  -7.107  10.949  1.00  0.00     0.210 C 
ENDBRANCH  17  23
ENDBRANCH  13  16
ENDBRANCH  10  12
ENDBRANCH   8  10
ENDBRANCH   5   8
BRANCH   1  25
HETATM   25  N   UNL     1      42.047 -14.449   4.632  1.00  0.00    -0.376 N 
HETATM   26  C   UNL     1      43.265 -14.963   5.286  1.00  0.00     0.143 C 
HETATM   27  C   UNL     1      43.296 -16.506   5.193  1.00  0.00     0.145 C 
HETATM   28  N   UNL     1      43.032 -17.021   3.839  1.00  0.00    -0.349 N 
HETATM   29  C   UNL     1      43.534 -18.277   3.512  1.00  0.00     0.219 C 
HETATM   30  C   UNL     1      41.892 -16.398   3.145  1.00  0.00     0.145 C 
HETATM   31  O   UNL     1      44.289 -18.894   4.264  1.00  0.00    -0.273 OA
HETATM   32  C   UNL     1      41.939 -14.864   3.222  1.00  0.00     0.143 C 
BRANCH  29  33
HETATM   33  C   UNL     1      43.122 -18.843   2.160  1.00  0.00     0.098 C 
HETATM   34  C   UNL     1      43.474 -20.313   2.005  1.00  0.00     0.014 C 
ENDBRANCH  29  33
ENDBRANCH   1  25
TORSDOF 7
ENDMDL
MODEL 7
REMARK VINA RESULT:      -8.1      2.261      3.337
REMARK  7 active torsions:
REMARK  status: ('A' for Active; 'I' for Inactive)
REMARK    1  A    between atoms: C_2  and  C_3 
REMARK       I    between atoms: C_3  and  N_4 
REMARK    2  A    between atoms: N_7  and  C_8 
REMARK    3  A    between atoms: C_12  and  N_13 
REMARK    4  A    between atoms: N_13  and  C_14 
REMARK    5  A    between atoms: C_14  and  N_15 
REMARK       I    between atoms: N_15  and  C_16 
REMARK    6  A    between atoms: C_16  and  C_17 
REMARK    7  A    between atoms: C_18  and  O_19 
ROOT
HETATM    1  C   UNL     1      41.627 -13.183   4.958  1.00  0.00     0.052 A 
HETATM    2  C   UNL     1      42.114 -11.978   4.418  1.00  0.00     0.062 A 
HETATM    3 CL   UNL     1      43.529 -11.887   3.422  1.00  0.00    -0.082 Cl
HETATM    4  C   UNL     1      41.492 -10.751   4.704  1.00  0.00     0.055 A 
HETATM    5  C   UNL     1      40.379 -10.684   5.537  1.00  0.00     0.036 A 
HETATM    6  C   UNL     1      39.971 -11.851   6.183  1.00  0.00     0.032 A 
HETATM    7  C   UNL     1      40.581 -13.078   5.891  1.00  0.00     0.033 A 
ENDROOT
BRANCH   5   8
HETATM    8  N   UNL     1      39.628  -9.515   5.790  1.00  0.00    -0.333 N 
HETATM    9  H   UNL     1      38.742  -9.454   5.283  1.00  0.00     0.168 HD
BRANCH   8  10
HETATM   10  C   UNL     1      39.940  -8.356   6.464  1.00  0.00     0.179 C 
HETATM   11  S   UNL     1      39.414  -6.790   6.209  1.00  0.00    -0.040 SA
BRANCH  10  12
HETATM   12  N   UNL     1      40.796  -8.521   7.538  1.00  0.00    -0.299 N 
HETATM   13  C   UNL     1      40.619  -9.221   8.723  1.00  0.00     0.260 C 
HETATM   14  O   UNL     1      39.571  -9.767   9.050  1.00  0.00    -0.267 OA
HETATM   15  H   UNL     1      41.688  -8.055   7.410  1.00  0.00     0.171 HD
BRANCH  13  16
HETATM   16  C   UNL     1      41.785  -9.194   9.640  1.00  0.00     0.066 A 
HETATM   17  C   UNL     1      43.102  -9.379   9.189  1.00  0.00     0.089 A 
HETATM   18  C   UNL     1      44.188  -9.203  10.061  1.00  0.00    -0.028 A 
HETATM   19  C   UNL     1      45.604  -9.312   9.570  1.00  0.00     0.051 C 
HETATM   20  C   UNL     1      43.931  -8.882  11.402  1.00  0.00     0.009 A 
HETATM   21  C   UNL     1      42.620  -8.752  11.866  1.00  0.00     0.002 A 
HETATM   22  C   UNL     1      41.547  -8.909  10.989  1.00  0.00     0.020 A 
BRANCH  17  23
HETATM   23  O   UNL     1      43.376  -9.678   7.876  1.00  0.00    -0.354 OA
HETATM   24  C   UNL     1      43.561 -11.088   7.700  1.00  0.00     0.210 C 
ENDBRANCH  17  23
ENDBRANCH  13  16
ENDBRANCH  10  12
ENDBRANCH   8  10
ENDBRANCH   5   8
BRANCH   1  25
HETATM   25  N   UNL     1      42.030 -14.480   4.627  1.00  0.00    -0.376 N 
HETATM   26  C   UNL     1      43.312 -14.918   5.212  1.00  0.00     0.143 C 
HETATM   27  C   UNL     1      43.418 -16.458   5.141  1.00  0.00     0.145 C 
HETATM   28  N   UNL     1      43.098 -17.012   3.814  1.00  0.00    -0.349 N 
HETATM   29  C   UNL     1      43.644 -18.246   3.476  1.00  0.00     0.219 C 
HETATM   30  C   UNL     1      41.887 -16.461   3.183  1.00  0.00     0.145 C 
HETATM   31  O   UNL     1      44.475 -18.810   4.189  1.00  0.00    -0.273 OA
HETATM   32  C   UNL     1      41.858 -14.926   3.234  1.00  0.00     0.143 C 
BRANCH  29  33
HETATM   33  C   UNL     1      43.180 -18.858   2.161  1.00  0.00     0.098 C 
HETATM   34  C   UNL     1      43.308 -20.372   2.139  1.00  0.00     0.014 C 
ENDBRANCH  29  33
ENDBRANCH   1  25
TORSDOF 7
ENDMDL
MODEL 8
REMARK VINA RESULT:      -8.0      1.914      2.776
REMARK  7 active torsions:
REMARK  status: ('A' for Active; 'I' for Inactive)
REMARK    1  A    between atoms: C_2  and  C_3 
REMARK       I    between atoms: C_3  and  N_4 
REMARK    2  A    between atoms: N_7  and  C_8 
REMARK    3  A    between atoms: C_12  and  N_13 
REMARK    4  A    between atoms: N_13  and  C_14 
REMARK    5  A    between atoms: C_14  and  N_15 
REMARK       I    between atoms: N_15  and  C_16 
REMARK    6  A    between atoms: C_16  and  C_17 
REMARK    7  A    between atoms: C_18  and  O_19 
ROOT
HETATM    1  C   UNL     1      41.801 -13.765   5.816  1.00  0.00     0.052 A 
HETATM    2  C   UNL     1      42.619 -12.671   6.154  1.00  0.00     0.062 A 
HETATM    3 CL   UNL     1      44.333 -12.798   6.371  1.00  0.00    -0.082 Cl
HETATM    4  C   UNL     1      42.069 -11.400   6.386  1.00  0.00     0.055 A 
HETATM    5  C   UNL     1      40.698 -11.179   6.297  1.00  0.00     0.036 A 
HETATM    6  C   UNL     1      39.868 -12.283   6.096  1.00  0.00     0.032 A 
HETATM    7  C   UNL     1      40.413 -13.550   5.852  1.00  0.00     0.033 A 
ENDROOT
BRANCH   5   8
HETATM    8  N   UNL     1      40.073  -9.918   6.406  1.00  0.00    -0.333 N 
HETATM    9  H   UNL     1      39.283  -9.772   5.772  1.00  0.00     0.168 HD
BRANCH   8  10
HETATM   10  C   UNL     1      40.429  -8.776   7.088  1.00  0.00     0.179 C 
HETATM   11  S   UNL     1      40.607  -7.208   6.537  1.00  0.00    -0.040 SA
BRANCH  10  12
HETATM   12  N   UNL     1      40.640  -8.952   8.443  1.00  0.00    -0.299 N 
HETATM   13  C   UNL     1      39.742  -8.914   9.500  1.00  0.00     0.260 C 
HETATM   14  O   UNL     1      38.557  -8.618   9.387  1.00  0.00    -0.267 OA
HETATM   15  H   UNL     1      41.610  -9.145   8.672  1.00  0.00     0.171 HD
BRANCH  13  16
HETATM   16  C   UNL     1      40.340  -9.177  10.832  1.00  0.00     0.066 A 
HETATM   17  C   UNL     1      41.478  -8.497  11.294  1.00  0.00     0.089 A 
HETATM   18  C   UNL     1      41.927  -8.669  12.613  1.00  0.00    -0.028 A 
HETATM   19  C   UNL     1      43.090  -7.880  13.146  1.00  0.00     0.051 C 
HETATM   20  C   UNL     1      41.245  -9.567  13.447  1.00  0.00     0.009 A 
HETATM   21  C   UNL     1      40.146 -10.287  12.972  1.00  0.00     0.002 A 
HETATM   22  C   UNL     1      39.693 -10.096  11.667  1.00  0.00     0.020 A 
BRANCH  17  23
HETATM   23  O   UNL     1      42.151  -7.601  10.499  1.00  0.00    -0.354 OA
HETATM   24  C   UNL     1      41.591  -6.287  10.622  1.00  0.00     0.210 C 
ENDBRANCH  17  23
ENDBRANCH  13  16
ENDBRANCH  10  12
ENDBRANCH   8  10
ENDBRANCH   5   8
BRANCH   1  25
HETATM   25  N   UNL     1      42.218 -15.031   5.391  1.00  0.00    -0.376 N 
HETATM   26  C   UNL     1      42.980 -15.816   6.380  1.00  0.00     0.143 C 
HETATM   27  C   UNL     1      42.990 -17.306   5.967  1.00  0.00     0.145 C 
HETATM   28  N   UNL     1      43.356 -17.525   4.558  1.00  0.00    -0.349 N 
HETATM   29  C   UNL     1      43.903 -18.757   4.212  1.00  0.00     0.219 C 
HETATM   30  C   UNL     1      42.686 -16.637   3.593  1.00  0.00     0.145 C 
HETATM   31  O   UNL     1      44.205 -19.598   5.059  1.00  0.00    -0.273 OA
HETATM   32  C   UNL     1      42.752 -15.164   4.025  1.00  0.00     0.143 C 
BRANCH  29  33
HETATM   33  C   UNL     1      44.135 -19.006   2.728  1.00  0.00     0.098 C 
HETATM   34  C   UNL     1      43.426 -20.251   2.222  1.00  0.00     0.014 C 
ENDBRANCH  29  33
ENDBRANCH   1  25
TORSDOF 7
ENDMDL
MODEL 9
REMARK VINA RESULT:      -7.9      2.158      2.744
REMARK  7 active torsions:
REMARK  status: ('A' for Active; 'I' for Inactive)
REMARK    1  A    between atoms: C_2  and  C_3 
REMARK       I    between atoms: C_3  and  N_4 
REMARK    2  A    between atoms: N_7  and  C_8 
REMARK    3  A    between atoms: C_12  and  N_13 
REMARK    4  A    between atoms: N_13  and  C_14 
REMARK    5  A    between atoms: C_14  and  N_15 
REMARK       I    between atoms: N_15  and  C_16 
REMARK    6  A    between atoms: C_16  and  C_17 
REMARK    7  A    between atoms: C_18  and  O_19 
ROOT
HETATM    1  C   UNL     1      42.259 -14.768   4.311  1.00  0.00     0.052 A 
HETATM    2  C   UNL     1      41.327 -14.461   5.319  1.00  0.00     0.062 A 
HETATM    3 CL   UNL     1      40.324 -15.652   6.080  1.00  0.00    -0.082 Cl
HETATM    4  C   UNL     1      41.122 -13.136   5.738  1.00  0.00     0.055 A 
HETATM    5  C   UNL     1      41.827 -12.081   5.165  1.00  0.00     0.036 A 
HETATM    6  C   UNL     1      42.652 -12.359   4.075  1.00  0.00     0.032 A 
HETATM    7  C   UNL     1      42.868 -13.680   3.663  1.00  0.00     0.033 A 
ENDROOT
BRANCH   5   8
HETATM    8  N   UNL     1      41.765 -10.738   5.597  1.00  0.00    -0.333 N 
HETATM    9  H   UNL     1      42.567 -10.163   5.331  1.00  0.00     0.168 HD
BRANCH   8  10
HETATM   10  C   UNL     1      40.905 -10.092   6.457  1.00  0.00     0.179 C 
HETATM   11  S   UNL     1      39.435  -9.355   6.154  1.00  0.00    -0.040 SA
BRANCH  10  12
HETATM   12  N   UNL     1      41.308 -10.082   7.780  1.00  0.00    -0.299 N 
HETATM   13  C   UNL     1      42.430  -9.517   8.368  1.00  0.00     0.260 C 
HETATM   14  O   UNL     1      43.337  -8.976   7.743  1.00  0.00    -0.267 OA
HETATM   15  H   UNL     1      40.659 -10.561   8.396  1.00  0.00     0.171 HD
BRANCH  13  16
HETATM   16  C   UNL     1      42.514  -9.691   9.839  1.00  0.00     0.066 A 
HETATM   17  C   UNL     1      41.447  -9.374  10.697  1.00  0.00     0.089 A 
HETATM   18  C   UNL     1      41.512  -9.687  12.063  1.00  0.00    -0.028 A 
HETATM   19  C   UNL     1      40.343  -9.434  12.974  1.00  0.00     0.051 C 
HETATM   20  C   UNL     1      42.679 -10.282  12.565  1.00  0.00     0.009 A 
HETATM   21  C   UNL     1      43.763 -10.548  11.725  1.00  0.00     0.002 A 
HETATM   22  C   UNL     1      43.684 -10.252  10.364  1.00  0.00     0.020 A 
BRANCH  17  23
HETATM   23  O   UNL     1      40.289  -8.807  10.223  1.00  0.00    -0.354 OA
HETATM   24  C   UNL     1      40.409  -7.380  10.156  1.00  0.00     0.210 C 
ENDBRANCH  17  23
ENDBRANCH  13  16
ENDBRANCH  10  12
ENDBRANCH   8  10
ENDBRANCH   5   8
BRANCH   1  25
HETATM   25  N   UNL     1      42.691 -16.039   3.919  1.00  0.00    -0.376 N 
HETATM   26  C   UNL     1      41.855 -16.713   2.907  1.00  0.00     0.143 C 
HETATM   27  C   UNL     1      42.652 -17.865   2.255  1.00  0.00     0.145 C 
HETATM   28  N   UNL     1      43.314 -18.750   3.229  1.00  0.00    -0.349 N 
HETATM   29  C   UNL     1      43.593 -20.055   2.837  1.00  0.00     0.219 C 
HETATM   30  C   UNL     1      44.031 -18.059   4.313  1.00  0.00     0.145 C 
HETATM   31  O   UNL     1      43.189 -20.516   1.769  1.00  0.00    -0.273 OA
HETATM   32  C   UNL     1      43.175 -16.960   4.962  1.00  0.00     0.143 C 
BRANCH  29  33
HETATM   33  C   UNL     1      44.406 -20.899   3.809  1.00  0.00     0.098 C 
HETATM   34  C   UNL     1      43.703 -21.105   5.140  1.00  0.00     0.014 C 
ENDBRANCH  29  33
ENDBRANCH   1  25
TORSDOF 7
ENDMDL
MODEL 10
REMARK VINA RESULT:      -7.8      3.332      9.975
REMARK  7 active torsions:
REMARK  status: ('A' for Active; 'I' for Inactive)
REMARK    1  A    between atoms: C_2  and  C_3 
REMARK       I    between atoms: C_3  and  N_4 
REMARK    2  A    between atoms: N_7  and  C_8 
REMARK    3  A    between atoms: C_12  and  N_13 
REMARK    4  A    between atoms: N_13  and  C_14 
REMARK    5  A    between atoms: C_14  and  N_15 
REMARK       I    between atoms: N_15  and  C_16 
REMARK    6  A    between atoms: C_16  and  C_17 
REMARK    7  A    between atoms: C_18  and  O_19 
ROOT
HETATM    1  C   UNL     1      40.115 -10.631   5.839  1.00  0.00     0.052 A 
HETATM    2  C   UNL     1      40.137  -9.934   4.616  1.00  0.00     0.062 A 
HETATM    3 CL   UNL     1      40.409  -8.227   4.501  1.00  0.00    -0.082 Cl
HETATM    4  C   UNL     1      39.886 -10.593   3.401  1.00  0.00     0.055 A 
HETATM    5  C   UNL     1      39.599 -11.955   3.365  1.00  0.00     0.036 A 
HETATM    6  C   UNL     1      39.443 -12.624   4.579  1.00  0.00     0.032 A 
HETATM    7  C   UNL     1      39.704 -11.974   5.791  1.00  0.00     0.033 A 
ENDROOT
BRANCH   5   8
HETATM    8  N   UNL     1      39.443 -12.717   2.187  1.00  0.00    -0.333 N 
HETATM    9  H   UNL     1      38.481 -12.999   1.981  1.00  0.00     0.168 HD
BRANCH   8  10
HETATM   10  C   UNL     1      40.363 -13.300   1.345  1.00  0.00     0.179 C 
HETATM   11  S   UNL     1      40.666 -13.020  -0.275  1.00  0.00    -0.040 SA
BRANCH  10  12
HETATM   12  N   UNL     1      41.182 -14.240   1.943  1.00  0.00    -0.299 N 
HETATM   13  C   UNL     1      40.860 -15.425   2.589  1.00  0.00     0.260 C 
HETATM   14  O   UNL     1      39.713 -15.799   2.811  1.00  0.00    -0.267 OA
HETATM   15  H   UNL     1      42.168 -14.006   1.878  1.00  0.00     0.171 HD
BRANCH  13  16
HETATM   16  C   UNL     1      42.025 -16.196   3.089  1.00  0.00     0.066 A 
HETATM   17  C   UNL     1      42.645 -15.911   4.317  1.00  0.00     0.089 A 
HETATM   18  C   UNL     1      43.650 -16.751   4.821  1.00  0.00    -0.028 A 
HETATM   19  C   UNL     1      44.259 -16.508   6.174  1.00  0.00     0.051 C 
HETATM   20  C   UNL     1      44.055 -17.855   4.056  1.00  0.00     0.009 A 
HETATM   21  C   UNL     1      43.479 -18.108   2.809  1.00  0.00     0.002 A 
HETATM   22  C   UNL     1      42.467 -17.280   2.323  1.00  0.00     0.020 A 
BRANCH  17  23
HETATM   23  O   UNL     1      42.253 -14.845   5.089  1.00  0.00    -0.354 OA
HETATM   24  C   UNL     1      43.004 -13.670   4.758  1.00  0.00     0.210 C 
ENDBRANCH  17  23
ENDBRANCH  13  16
ENDBRANCH  10  12
ENDBRANCH   8  10
ENDBRANCH   5   8
BRANCH   1  25
HETATM   25  N   UNL     1      40.513 -10.152   7.090  1.00  0.00    -0.376 N 
HETATM   26  C   UNL     1      39.505  -9.355   7.817  1.00  0.00     0.143 C 
HETATM   27  C   UNL     1      39.888  -9.271   9.313  1.00  0.00     0.145 C 
HETATM   28  N   UNL     1      41.291  -8.890   9.543  1.00  0.00    -0.349 N 
HETATM   29  C   UNL     1      41.610  -8.282  10.753  1.00  0.00     0.219 C 
HETATM   30  C   UNL     1      42.275  -9.599   8.709  1.00  0.00     0.145 C 
HETATM   31  O   UNL     1      40.744  -7.942  11.561  1.00  0.00    -0.273 OA
HETATM   32  C   UNL     1      41.875  -9.607   7.225  1.00  0.00     0.143 C 
BRANCH  29  33
HETATM   33  C   UNL     1      43.088  -8.033  11.021  1.00  0.00     0.098 C 
HETATM   34  C   UNL     1      43.458  -8.208  12.484  1.00  0.00     0.014 C 
ENDBRANCH  29  33
ENDBRANCH   1  25
TORSDOF 7
ENDMDL
