MODEL 1
REMARK VINA RESULT:      -8.2      0.000      0.000
REMARK  8 active torsions:
REMARK  status: ('A' for Active; 'I' for Inactive)
REMARK    1  A    between atoms: N_2  and  C_5 
REMARK    2  A    between atoms: C_5  and  C_6 
REMARK    3  A    between atoms: C_6  and  S_7 
REMARK    4  A    between atoms: S_7  and  C_8 
REMARK    5  A    between atoms: C_10  and  C_25 
REMARK    6  A    between atoms: C_13  and  N_14 
REMARK       I    between atoms: N_14  and  C_15 
REMARK       I    between atoms: C_15  and  N_17 
REMARK    7  A    between atoms: N_17  and  C_18 
REMARK    8  A    between atoms: C_18  and  C_19 
ROOT
HETATM    1  C   UNL     1      41.762 -13.780   1.974  1.00  0.00     0.028 A 
HETATM    2  C   UNL     1      41.135 -13.369   0.791  1.00  0.00     0.033 A 
HETATM    3  C   UNL     1      40.268 -14.228   0.102  1.00  0.00    -0.022 A 
HETATM    4  C   UNL     1      40.036 -15.506   0.625  1.00  0.00     0.014 A 
HETATM    5  C   UNL     1      40.674 -15.930   1.798  1.00  0.00     0.032 A 
HETATM    6  C   UNL     1      41.556 -15.081   2.468  1.00  0.00     0.053 A 
ENDROOT
BRANCH   6   7
HETATM    7  N   UNL     1      42.287 -15.504   3.601  1.00  0.00    -0.308 N 
HETATM    8  C   UNL     1      41.753 -15.993   4.759  1.00  0.00     0.321 C 
HETATM    9  O   UNL     1      40.585 -15.835   5.099  1.00  0.00    -0.247 OA
HETATM   10  N   UNL     1      42.619 -16.606   5.606  1.00  0.00    -0.339 N 
HETATM   11  H   UNL     1      42.141 -17.062   6.376  1.00  0.00     0.164 HD
HETATM   12  H   UNL     1      43.281 -15.327   3.575  1.00  0.00     0.170 HD
BRANCH  10  13
HETATM   13  C   UNL     1      43.949 -17.095   5.300  1.00  0.00     0.162 C 
BRANCH  13  14
HETATM   14  C   UNL     1      43.910 -18.472   4.695  1.00  0.00    -0.040 A 
HETATM   15  C   UNL     1      43.849 -18.632   3.304  1.00  0.00     0.009 A 
HETATM   16  C   UNL     1      43.820 -19.906   2.737  1.00  0.00     0.001 A 
HETATM   17  C   UNL     1      43.852 -21.035   3.553  1.00  0.00     0.000 A 
HETATM   18  C   UNL     1      43.918 -20.892   4.937  1.00  0.00     0.001 A 
HETATM   19  C   UNL     1      43.953 -19.617   5.506  1.00  0.00     0.009 A 
ENDBRANCH  13  14
ENDBRANCH  10  13
ENDBRANCH   6   7
BRANCH   1  20
HETATM   20  S   UNL     1      42.691 -12.586   2.947  1.00  0.00    -0.126 SA
BRANCH  20  21
HETATM   21  C   UNL     1      41.376 -12.059   4.120  1.00  0.00     0.107 C 
BRANCH  21  22
HETATM   22  C   UNL     1      41.686 -12.360   5.597  1.00  0.00     0.244 C 
BRANCH  22  23
HETATM   23  N   UNL     1      43.148 -12.144   5.941  1.00  0.00    -0.078 N 
HETATM   24  C   UNL     1      43.418 -10.840   6.634  1.00  0.00     0.269 C 
HETATM   25  H   UNL     1      43.655 -12.135   5.044  1.00  0.00     0.279 HD
HETATM   26  C   UNL     1      43.724 -13.307   6.711  1.00  0.00     0.269 C 
ENDBRANCH  22  23
ENDBRANCH  21  22
ENDBRANCH  20  21
ENDBRANCH   1  20
BRANCH   3  27
HETATM   27  C   UNL     1      39.624 -13.782  -1.124  1.00  0.00     0.010 A 
HETATM   28  C   UNL     1      39.786 -14.215  -2.463  1.00  0.00     0.152 A 
HETATM   29  N   UNL     1      39.031 -13.531  -3.324  1.00  0.00    -0.187 NA
HETATM   30  N   UNL     1      38.353 -12.677  -2.542  1.00  0.00    -0.289 N 
HETATM   31  H   UNL     1      37.686 -12.049  -2.980  1.00  0.00     0.188 HD
HETATM   32  C   UNL     1      38.685 -12.776  -1.220  1.00  0.00     0.123 A 
ENDBRANCH   3  27
TORSDOF 8
ENDMDL
MODEL 2
REMARK VINA RESULT:      -8.0      2.442      7.885
REMARK  8 active torsions:
REMARK  status: ('A' for Active; 'I' for Inactive)
REMARK    1  A    between atoms: N_2  and  C_5 
REMARK    2  A    between atoms: C_5  and  C_6 
REMARK    3  A    between atoms: C_6  and  S_7 
REMARK    4  A    between atoms: S_7  and  C_8 
REMARK    5  A    between atoms: C_10  and  C_25 
REMARK    6  A    between atoms: C_13  and  N_14 
REMARK       I    between atoms: N_14  and  C_15 
REMARK       I    between atoms: C_15  and  N_17 
REMARK    7  A    between atoms: N_17  and  C_18 
REMARK    8  A    between atoms: C_18  and  C_19 
ROOT
HETATM    1  C   UNL     1      43.174 -15.426   3.647  1.00  0.00     0.028 A 
HETATM    2  C   UNL     1      43.342 -16.757   3.243  1.00  0.00     0.033 A 
HETATM    3  C   UNL     1      43.604 -17.765   4.181  1.00  0.00    -0.022 A 
HETATM    4  C   UNL     1      43.688 -17.414   5.534  1.00  0.00     0.014 A 
HETATM    5  C   UNL     1      43.539 -16.083   5.943  1.00  0.00     0.032 A 
HETATM    6  C   UNL     1      43.303 -15.078   5.003  1.00  0.00     0.053 A 
ENDROOT
BRANCH   6   7
HETATM    7  N   UNL     1      43.237 -13.714   5.367  1.00  0.00    -0.308 N 
HETATM    8  C   UNL     1      42.248 -13.131   6.105  1.00  0.00     0.321 C 
HETATM    9  O   UNL     1      41.137 -13.622   6.278  1.00  0.00    -0.247 OA
HETATM   10  N   UNL     1      42.512 -11.888   6.584  1.00  0.00    -0.339 N 
HETATM   11  H   UNL     1      41.797 -11.569   7.231  1.00  0.00     0.164 HD
HETATM   12  H   UNL     1      43.936 -13.114   4.951  1.00  0.00     0.170 HD
BRANCH  10  13
HETATM   13  C   UNL     1      43.807 -11.245   6.695  1.00  0.00     0.162 C 
BRANCH  13  14
HETATM   14  C   UNL     1      43.957 -10.517   8.002  1.00  0.00    -0.040 A 
HETATM   15  C   UNL     1      45.185 -10.523   8.677  1.00  0.00     0.009 A 
HETATM   16  C   UNL     1      45.332  -9.843   9.887  1.00  0.00     0.001 A 
HETATM   17  C   UNL     1      44.255  -9.149  10.434  1.00  0.00     0.000 A 
HETATM   18  C   UNL     1      43.030  -9.130   9.772  1.00  0.00     0.001 A 
HETATM   19  C   UNL     1      42.882  -9.805   8.558  1.00  0.00     0.009 A 
ENDBRANCH  13  14
ENDBRANCH  10  13
ENDBRANCH   6   7
BRANCH   1  20
HETATM   20  S   UNL     1      42.624 -14.199   2.452  1.00  0.00    -0.126 SA
BRANCH  20  21
HETATM   21  C   UNL     1      40.804 -14.397   2.626  1.00  0.00     0.107 C 
BRANCH  21  22
HETATM   22  C   UNL     1      40.124 -15.089   1.432  1.00  0.00     0.244 C 
BRANCH  22  23
HETATM   23  N   UNL     1      39.433 -14.106   0.506  1.00  0.00    -0.078 N 
HETATM   24  C   UNL     1      39.548 -12.677   0.949  1.00  0.00     0.269 C 
HETATM   25  H   UNL     1      38.433 -14.358   0.514  1.00  0.00     0.279 HD
HETATM   26  C   UNL     1      39.872 -14.276  -0.927  1.00  0.00     0.269 C 
ENDBRANCH  22  23
ENDBRANCH  21  22
ENDBRANCH  20  21
ENDBRANCH   1  20
BRANCH   3  27
HETATM   27  C   UNL     1      43.773 -19.141   3.742  1.00  0.00     0.010 A 
HETATM   28  C   UNL     1      43.612 -19.730   2.463  1.00  0.00     0.152 A 
HETATM   29  N   UNL     1      43.831 -21.046   2.467  1.00  0.00    -0.187 NA
HETATM   30  N   UNL     1      44.167 -21.308   3.740  1.00  0.00    -0.289 N 
HETATM   31  H   UNL     1      44.401 -22.263   3.989  1.00  0.00     0.188 HD
HETATM   32  C   UNL     1      44.131 -20.204   4.545  1.00  0.00     0.123 A 
ENDBRANCH   3  27
TORSDOF 8
ENDMDL
MODEL 3
REMARK VINA RESULT:      -8.0      2.171      7.446
REMARK  8 active torsions:
REMARK  status: ('A' for Active; 'I' for Inactive)
REMARK    1  A    between atoms: N_2  and  C_5 
REMARK    2  A    between atoms: C_5  and  C_6 
REMARK    3  A    between atoms: C_6  and  S_7 
REMARK    4  A    between atoms: S_7  and  C_8 
REMARK    5  A    between atoms: C_10  and  C_25 
REMARK    6  A    between atoms: C_13  and  N_14 
REMARK       I    between atoms: N_14  and  C_15 
REMARK       I    between atoms: C_15  and  N_17 
REMARK    7  A    between atoms: N_17  and  C_18 
REMARK    8  A    between atoms: C_18  and  C_19 
ROOT
HETATM    1  C   UNL     1      41.697 -15.775   3.306  1.00  0.00     0.028 A 
HETATM    2  C   UNL     1      42.089 -17.077   2.972  1.00  0.00     0.033 A 
HETATM    3  C   UNL     1      43.114 -17.722   3.679  1.00  0.00    -0.022 A 
HETATM    4  C   UNL     1      43.735 -17.037   4.731  1.00  0.00     0.014 A 
HETATM    5  C   UNL     1      43.359 -15.728   5.059  1.00  0.00     0.032 A 
HETATM    6  C   UNL     1      42.355 -15.080   4.337  1.00  0.00     0.053 A 
ENDROOT
BRANCH   6   7
HETATM    7  N   UNL     1      42.012 -13.731   4.578  1.00  0.00    -0.308 N 
HETATM    8  C   UNL     1      41.267 -13.271   5.626  1.00  0.00     0.321 C 
HETATM    9  O   UNL     1      40.532 -13.977   6.310  1.00  0.00    -0.247 OA
HETATM   10  N   UNL     1      41.292 -11.930   5.835  1.00  0.00    -0.339 N 
HETATM   11  H   UNL     1      40.831 -11.671   6.702  1.00  0.00     0.164 HD
HETATM   12  H   UNL     1      42.261 -13.077   3.849  1.00  0.00     0.170 HD
BRANCH  10  13
HETATM   13  C   UNL     1      42.250 -10.976   5.311  1.00  0.00     0.162 C 
BRANCH  13  14
HETATM   14  C   UNL     1      43.481 -10.894   6.170  1.00  0.00    -0.040 A 
HETATM   15  C   UNL     1      43.428 -10.265   7.422  1.00  0.00     0.009 A 
HETATM   16  C   UNL     1      44.566 -10.191   8.226  1.00  0.00     0.001 A 
HETATM   17  C   UNL     1      45.768 -10.745   7.791  1.00  0.00     0.000 A 
HETATM   18  C   UNL     1      45.834 -11.377   6.551  1.00  0.00     0.001 A 
HETATM   19  C   UNL     1      44.695 -11.457   5.747  1.00  0.00     0.009 A 
ENDBRANCH  13  14
ENDBRANCH  10  13
ENDBRANCH   6   7
BRANCH   1  20
HETATM   20  S   UNL     1      40.239 -15.061   2.530  1.00  0.00    -0.126 SA
BRANCH  20  21
HETATM   21  C   UNL     1      40.825 -14.989   0.788  1.00  0.00     0.107 C 
BRANCH  21  22
HETATM   22  C   UNL     1      40.489 -13.675   0.060  1.00  0.00     0.244 C 
BRANCH  22  23
HETATM   23  N   UNL     1      39.115 -13.701  -0.582  1.00  0.00    -0.078 N 
HETATM   24  C   UNL     1      38.532 -12.336  -0.814  1.00  0.00     0.269 C 
HETATM   25  H   UNL     1      38.499 -14.197   0.078  1.00  0.00     0.279 HD
HETATM   26  C   UNL     1      39.095 -14.530  -1.842  1.00  0.00     0.269 C 
ENDBRANCH  22  23
ENDBRANCH  21  22
ENDBRANCH  20  21
ENDBRANCH   1  20
BRANCH   3  27
HETATM   27  C   UNL     1      43.506 -19.075   3.318  1.00  0.00     0.010 A 
HETATM   28  C   UNL     1      43.467 -19.748   2.072  1.00  0.00     0.152 A 
HETATM   29  N   UNL     1      43.889 -21.011   2.151  1.00  0.00    -0.187 NA
HETATM   30  N   UNL     1      44.235 -21.150   3.440  1.00  0.00    -0.289 N 
HETATM   31  H   UNL     1      44.610 -22.042   3.744  1.00  0.00     0.188 HD
HETATM   32  C   UNL     1      44.009 -20.025   4.183  1.00  0.00     0.123 A 
ENDBRANCH   3  27
TORSDOF 8
ENDMDL
MODEL 4
REMARK VINA RESULT:      -7.8      1.401      2.326
REMARK  8 active torsions:
REMARK  status: ('A' for Active; 'I' for Inactive)
REMARK    1  A    between atoms: N_2  and  C_5 
REMARK    2  A    between atoms: C_5  and  C_6 
REMARK    3  A    between atoms: C_6  and  S_7 
REMARK    4  A    between atoms: S_7  and  C_8 
REMARK    5  A    between atoms: C_10  and  C_25 
REMARK    6  A    between atoms: C_13  and  N_14 
REMARK       I    between atoms: N_14  and  C_15 
REMARK       I    between atoms: C_15  and  N_17 
REMARK    7  A    between atoms: N_17  and  C_18 
REMARK    8  A    between atoms: C_18  and  C_19 
ROOT
HETATM    1  C   UNL     1      41.700 -13.770   1.775  1.00  0.00     0.028 A 
HETATM    2  C   UNL     1      41.027 -13.350   0.619  1.00  0.00     0.033 A 
HETATM    3  C   UNL     1      40.107 -14.192  -0.022  1.00  0.00    -0.022 A 
HETATM    4  C   UNL     1      39.870 -15.461   0.521  1.00  0.00     0.014 A 
HETATM    5  C   UNL     1      40.553 -15.893   1.666  1.00  0.00     0.032 A 
HETATM    6  C   UNL     1      41.486 -15.062   2.287  1.00  0.00     0.053 A 
ENDROOT
BRANCH   6   7
HETATM    7  N   UNL     1      42.259 -15.496   3.387  1.00  0.00    -0.308 N 
HETATM    8  C   UNL     1      41.770 -16.010   4.554  1.00  0.00     0.321 C 
HETATM    9  O   UNL     1      40.613 -15.870   4.936  1.00  0.00    -0.247 OA
HETATM   10  N   UNL     1      42.671 -16.628   5.360  1.00  0.00    -0.339 N 
HETATM   11  H   UNL     1      42.224 -17.101   6.138  1.00  0.00     0.164 HD
HETATM   12  H   UNL     1      43.250 -15.308   3.330  1.00  0.00     0.170 HD
BRANCH  10  13
HETATM   13  C   UNL     1      43.995 -17.097   5.001  1.00  0.00     0.162 C 
BRANCH  13  14
HETATM   14  C   UNL     1      43.952 -18.472   4.394  1.00  0.00    -0.040 A 
HETATM   15  C   UNL     1      44.041 -19.609   5.210  1.00  0.00     0.009 A 
HETATM   16  C   UNL     1      43.995 -20.887   4.653  1.00  0.00     0.001 A 
HETATM   17  C   UNL     1      43.859 -21.045   3.276  1.00  0.00     0.000 A 
HETATM   18  C   UNL     1      43.765 -19.926   2.453  1.00  0.00     0.001 A 
HETATM   19  C   UNL     1      43.805 -18.645   3.008  1.00  0.00     0.009 A 
ENDBRANCH  13  14
ENDBRANCH  10  13
ENDBRANCH   6   7
BRANCH   1  20
HETATM   20  S   UNL     1      42.702 -12.592   2.694  1.00  0.00    -0.126 SA
BRANCH  20  21
HETATM   21  C   UNL     1      41.440 -11.978   3.883  1.00  0.00     0.107 C 
BRANCH  21  22
HETATM   22  C   UNL     1      40.640 -10.761   3.386  1.00  0.00     0.244 C 
BRANCH  22  23
HETATM   23  N   UNL     1      39.143 -10.941   3.552  1.00  0.00    -0.078 N 
HETATM   24  C   UNL     1      38.463  -9.772   4.204  1.00  0.00     0.269 C 
HETATM   25  H   UNL     1      39.019 -11.759   4.167  1.00  0.00     0.279 HD
HETATM   26  C   UNL     1      38.472 -11.316   2.255  1.00  0.00     0.269 C 
ENDBRANCH  22  23
ENDBRANCH  21  22
ENDBRANCH  20  21
ENDBRANCH   1  20
BRANCH   3  27
HETATM   27  C   UNL     1      39.417 -13.737  -1.219  1.00  0.00     0.010 A 
HETATM   28  C   UNL     1      38.978 -12.445  -1.598  1.00  0.00     0.152 A 
HETATM   29  N   UNL     1      38.348 -12.436  -2.774  1.00  0.00    -0.187 NA
HETATM   30  N   UNL     1      38.406 -13.715  -3.174  1.00  0.00    -0.289 N 
HETATM   31  H   UNL     1      37.998 -13.957  -4.072  1.00  0.00     0.188 HD
HETATM   32  C   UNL     1      39.021 -14.536  -2.271  1.00  0.00     0.123 A 
ENDBRANCH   3  27
TORSDOF 8
ENDMDL
MODEL 5
REMARK VINA RESULT:      -7.8      2.481      7.029
REMARK  8 active torsions:
REMARK  status: ('A' for Active; 'I' for Inactive)
REMARK    1  A    between atoms: N_2  and  C_5 
REMARK    2  A    between atoms: C_5  and  C_6 
REMARK    3  A    between atoms: C_6  and  S_7 
REMARK    4  A    between atoms: S_7  and  C_8 
REMARK    5  A    between atoms: C_10  and  C_25 
REMARK    6  A    between atoms: C_13  and  N_14 
REMARK       I    between atoms: N_14  and  C_15 
REMARK       I    between atoms: C_15  and  N_17 
REMARK    7  A    between atoms: N_17  and  C_18 
REMARK    8  A    between atoms: C_18  and  C_19 
ROOT
HETATM    1  C   UNL     1      42.188 -15.767   4.048  1.00  0.00     0.028 A 
HETATM    2  C   UNL     1      42.623 -17.086   4.237  1.00  0.00     0.033 A 
HETATM    3  C   UNL     1      43.186 -17.814   3.180  1.00  0.00    -0.022 A 
HETATM    4  C   UNL     1      43.312 -17.193   1.931  1.00  0.00     0.014 A 
HETATM    5  C   UNL     1      42.863 -15.882   1.731  1.00  0.00     0.032 A 
HETATM    6  C   UNL     1      42.280 -15.168   2.779  1.00  0.00     0.053 A 
ENDROOT
BRANCH   6   7
HETATM    7  N   UNL     1      41.734 -13.878   2.593  1.00  0.00    -0.308 N 
HETATM    8  C   UNL     1      42.446 -12.722   2.453  1.00  0.00     0.321 C 
HETATM    9  O   UNL     1      43.620 -12.591   2.786  1.00  0.00    -0.247 OA
HETATM   10  N   UNL     1      41.755 -11.643   2.001  1.00  0.00    -0.339 N 
HETATM   11  H   UNL     1      42.366 -10.860   1.792  1.00  0.00     0.164 HD
HETATM   12  H   UNL     1      40.729 -13.809   2.675  1.00  0.00     0.170 HD
BRANCH  10  13
HETATM   13  C   UNL     1      40.463 -11.641   1.343  1.00  0.00     0.162 C 
BRANCH  13  14
HETATM   14  C   UNL     1      40.562 -12.114  -0.080  1.00  0.00    -0.040 A 
HETATM   15  C   UNL     1      40.082 -13.382  -0.439  1.00  0.00     0.009 A 
HETATM   16  C   UNL     1      40.165 -13.823  -1.760  1.00  0.00     0.001 A 
HETATM   17  C   UNL     1      40.727 -13.005  -2.737  1.00  0.00     0.000 A 
HETATM   18  C   UNL     1      41.204 -11.741  -2.396  1.00  0.00     0.001 A 
HETATM   19  C   UNL     1      41.117 -11.295  -1.076  1.00  0.00     0.009 A 
ENDBRANCH  13  14
ENDBRANCH  10  13
ENDBRANCH   6   7
BRANCH   1  20
HETATM   20  S   UNL     1      41.676 -14.791   5.469  1.00  0.00    -0.126 SA
BRANCH  20  21
HETATM   21  C   UNL     1      43.324 -14.247   6.077  1.00  0.00     0.107 C 
BRANCH  21  22
HETATM   22  C   UNL     1      43.336 -12.844   6.710  1.00  0.00     0.244 C 
BRANCH  22  23
HETATM   23  N   UNL     1      43.775 -11.769   5.735  1.00  0.00    -0.078 N 
HETATM   24  C   UNL     1      42.855 -10.583   5.690  1.00  0.00     0.269 C 
HETATM   25  H   UNL     1      43.768 -12.207   4.802  1.00  0.00     0.279 HD
HETATM   26  C   UNL     1      45.205 -11.348   5.965  1.00  0.00     0.269 C 
ENDBRANCH  22  23
ENDBRANCH  21  22
ENDBRANCH  20  21
ENDBRANCH   1  20
BRANCH   3  27
HETATM   27  C   UNL     1      43.633 -19.182   3.396  1.00  0.00     0.010 A 
HETATM   28  C   UNL     1      43.590 -20.313   2.546  1.00  0.00     0.152 A 
HETATM   29  N   UNL     1      44.076 -21.414   3.122  1.00  0.00    -0.187 NA
HETATM   30  N   UNL     1      44.465 -20.992   4.335  1.00  0.00    -0.289 N 
HETATM   31  H   UNL     1      44.892 -21.664   4.965  1.00  0.00     0.188 HD
HETATM   32  C   UNL     1      44.206 -19.667   4.553  1.00  0.00     0.123 A 
ENDBRANCH   3  27
TORSDOF 8
ENDMDL
MODEL 6
REMARK VINA RESULT:      -7.5      2.105      2.948
REMARK  8 active torsions:
REMARK  status: ('A' for Active; 'I' for Inactive)
REMARK    1  A    between atoms: N_2  and  C_5 
REMARK    2  A    between atoms: C_5  and  C_6 
REMARK    3  A    between atoms: C_6  and  S_7 
REMARK    4  A    between atoms: S_7  and  C_8 
REMARK    5  A    between atoms: C_10  and  C_25 
REMARK    6  A    between atoms: C_13  and  N_14 
REMARK       I    between atoms: N_14  and  C_15 
REMARK       I    between atoms: C_15  and  N_17 
REMARK    7  A    between atoms: N_17  and  C_18 
REMARK    8  A    between atoms: C_18  and  C_19 
ROOT
HETATM    1  C   UNL     1      40.749 -12.666   0.440  1.00  0.00     0.028 A 
HETATM    2  C   UNL     1      40.186 -11.785  -0.493  1.00  0.00     0.033 A 
HETATM    3  C   UNL     1      39.429 -12.266  -1.570  1.00  0.00    -0.022 A 
HETATM    4  C   UNL     1      39.242 -13.649  -1.691  1.00  0.00     0.014 A 
HETATM    5  C   UNL     1      39.818 -14.536  -0.773  1.00  0.00     0.032 A 
HETATM    6  C   UNL     1      40.592 -14.055   0.284  1.00  0.00     0.053 A 
ENDROOT
BRANCH   6   7
HETATM    7  N   UNL     1      41.262 -14.922   1.176  1.00  0.00    -0.308 N 
HETATM    8  C   UNL     1      40.667 -15.822   2.013  1.00  0.00     0.321 C 
HETATM    9  O   UNL     1      39.486 -15.781   2.341  1.00  0.00    -0.247 OA
HETATM   10  N   UNL     1      41.485 -16.751   2.572  1.00  0.00    -0.339 N 
HETATM   11  H   UNL     1      40.964 -17.465   3.072  1.00  0.00     0.164 HD
HETATM   12  H   UNL     1      42.258 -14.779   1.263  1.00  0.00     0.170 HD
BRANCH  10  13
HETATM   13  C   UNL     1      42.822 -17.114   2.147  1.00  0.00     0.162 C 
BRANCH  13  14
HETATM   14  C   UNL     1      43.305 -18.361   2.833  1.00  0.00    -0.040 A 
HETATM   15  C   UNL     1      43.793 -18.303   4.146  1.00  0.00     0.009 A 
HETATM   16  C   UNL     1      44.237 -19.458   4.790  1.00  0.00     0.001 A 
HETATM   17  C   UNL     1      44.197 -20.685   4.131  1.00  0.00     0.000 A 
HETATM   18  C   UNL     1      43.711 -20.759   2.828  1.00  0.00     0.001 A 
HETATM   19  C   UNL     1      43.262 -19.605   2.183  1.00  0.00     0.009 A 
ENDBRANCH  13  14
ENDBRANCH  10  13
ENDBRANCH   6   7
BRANCH   1  20
HETATM   20  S   UNL     1      41.525 -12.011   1.924  1.00  0.00    -0.126 SA
BRANCH  20  21
HETATM   21  C   UNL     1      40.026 -11.449   2.830  1.00  0.00     0.107 C 
BRANCH  21  22
HETATM   22  C   UNL     1      39.166 -12.590   3.403  1.00  0.00     0.244 C 
BRANCH  22  23
HETATM   23  N   UNL     1      39.420 -12.826   4.879  1.00  0.00    -0.078 N 
HETATM   24  C   UNL     1      40.518 -13.813   5.153  1.00  0.00     0.269 C 
HETATM   25  H   UNL     1      38.546 -13.214   5.263  1.00  0.00     0.279 HD
HETATM   26  C   UNL     1      39.642 -11.535   5.627  1.00  0.00     0.269 C 
ENDBRANCH  22  23
ENDBRANCH  21  22
ENDBRANCH  20  21
ENDBRANCH   1  20
BRANCH   3  27
HETATM   27  C   UNL     1      38.851 -11.335  -2.526  1.00  0.00     0.010 A 
HETATM   28  C   UNL     1      39.465 -10.376  -3.369  1.00  0.00     0.152 A 
HETATM   29  N   UNL     1      38.584  -9.681  -4.091  1.00  0.00    -0.187 NA
HETATM   30  N   UNL     1      37.401 -10.209  -3.742  1.00  0.00    -0.289 N 
HETATM   31  H   UNL     1      36.563  -9.845  -4.184  1.00  0.00     0.188 HD
HETATM   32  C   UNL     1      37.507 -11.190  -2.796  1.00  0.00     0.123 A 
ENDBRANCH   3  27
TORSDOF 8
ENDMDL
MODEL 7
REMARK VINA RESULT:      -7.4      3.071      8.288
REMARK  8 active torsions:
REMARK  status: ('A' for Active; 'I' for Inactive)
REMARK    1  A    between atoms: N_2  and  C_5 
REMARK    2  A    between atoms: C_5  and  C_6 
REMARK    3  A    between atoms: C_6  and  S_7 
REMARK    4  A    between atoms: S_7  and  C_8 
REMARK    5  A    between atoms: C_10  and  C_25 
REMARK    6  A    between atoms: C_13  and  N_14 
REMARK       I    between atoms: N_14  and  C_15 
REMARK       I    between atoms: C_15  and  N_17 
REMARK    7  A    between atoms: N_17  and  C_18 
REMARK    8  A    between atoms: C_18  and  C_19 
ROOT
HETATM    1  C   UNL     1      42.773 -13.823   5.115  1.00  0.00     0.028 A 
HETATM    2  C   UNL     1      42.784 -14.963   4.302  1.00  0.00     0.033 A 
HETATM    3  C   UNL     1      43.412 -16.142   4.727  1.00  0.00    -0.022 A 
HETATM    4  C   UNL     1      44.022 -16.158   5.987  1.00  0.00     0.014 A 
HETATM    5  C   UNL     1      44.030 -15.016   6.798  1.00  0.00     0.032 A 
HETATM    6  C   UNL     1      43.426 -13.836   6.360  1.00  0.00     0.053 A 
ENDROOT
BRANCH   6   7
HETATM    7  N   UNL     1      43.492 -12.639   7.109  1.00  0.00    -0.308 N 
HETATM    8  C   UNL     1      44.437 -11.664   6.975  1.00  0.00     0.321 C 
HETATM    9  O   UNL     1      45.524 -11.829   6.430  1.00  0.00    -0.247 OA
HETATM   10  N   UNL     1      44.164 -10.478   7.578  1.00  0.00    -0.339 N 
HETATM   11  H   UNL     1      44.837  -9.760   7.329  1.00  0.00     0.164 HD
HETATM   12  H   UNL     1      42.835 -12.563   7.874  1.00  0.00     0.170 HD
BRANCH  10  13
HETATM   13  C   UNL     1      42.877 -10.010   8.053  1.00  0.00     0.162 C 
BRANCH  13  14
HETATM   14  C   UNL     1      42.985  -9.361   9.405  1.00  0.00    -0.040 A 
HETATM   15  C   UNL     1      43.380 -10.113  10.521  1.00  0.00     0.009 A 
HETATM   16  C   UNL     1      43.489  -9.515  11.776  1.00  0.00     0.001 A 
HETATM   17  C   UNL     1      43.205  -8.159  11.932  1.00  0.00     0.000 A 
HETATM   18  C   UNL     1      42.816  -7.399  10.832  1.00  0.00     0.001 A 
HETATM   19  C   UNL     1      42.711  -7.995   9.573  1.00  0.00     0.009 A 
ENDBRANCH  13  14
ENDBRANCH  10  13
ENDBRANCH   6   7
BRANCH   1  20
HETATM   20  S   UNL     1      41.776 -12.403   4.638  1.00  0.00    -0.126 SA
BRANCH  20  21
HETATM   21  C   UNL     1      40.519 -13.249   3.595  1.00  0.00     0.107 C 
BRANCH  21  22
HETATM   22  C   UNL     1      40.589 -12.891   2.100  1.00  0.00     0.244 C 
BRANCH  22  23
HETATM   23  N   UNL     1      39.674 -13.753   1.252  1.00  0.00    -0.078 N 
HETATM   24  C   UNL     1      39.551 -13.284  -0.169  1.00  0.00     0.269 C 
HETATM   25  H   UNL     1      38.741 -13.693   1.684  1.00  0.00     0.279 HD
HETATM   26  C   UNL     1      40.050 -15.212   1.319  1.00  0.00     0.269 C 
ENDBRANCH  22  23
ENDBRANCH  21  22
ENDBRANCH  20  21
ENDBRANCH   1  20
BRANCH   3  27
HETATM   27  C   UNL     1      43.411 -17.317   3.869  1.00  0.00     0.010 A 
HETATM   28  C   UNL     1      44.144 -18.526   3.957  1.00  0.00     0.152 A 
HETATM   29  N   UNL     1      43.888 -19.361   2.949  1.00  0.00    -0.187 NA
HETATM   30  N   UNL     1      42.965 -18.711   2.224  1.00  0.00    -0.289 N 
HETATM   31  H   UNL     1      42.594 -19.167   1.396  1.00  0.00     0.188 HD
HETATM   32  C   UNL     1      42.659 -17.476   2.724  1.00  0.00     0.123 A 
ENDBRANCH   3  27
TORSDOF 8
ENDMDL
MODEL 8
REMARK VINA RESULT:      -7.3      2.372      6.621
REMARK  8 active torsions:
REMARK  status: ('A' for Active; 'I' for Inactive)
REMARK    1  A    between atoms: N_2  and  C_5 
REMARK    2  A    between atoms: C_5  and  C_6 
REMARK    3  A    between atoms: C_6  and  S_7 
REMARK    4  A    between atoms: S_7  and  C_8 
REMARK    5  A    between atoms: C_10  and  C_25 
REMARK    6  A    between atoms: C_13  and  N_14 
REMARK       I    between atoms: N_14  and  C_15 
REMARK       I    between atoms: C_15  and  N_17 
REMARK    7  A    between atoms: N_17  and  C_18 
REMARK    8  A    between atoms: C_18  and  C_19 
ROOT
HETATM    1  C   UNL     1      42.739 -11.852   5.375  1.00  0.00     0.028 A 
HETATM    2  C   UNL     1      42.678 -10.551   5.892  1.00  0.00     0.033 A 
HETATM    3  C   UNL     1      43.267 -10.241   7.126  1.00  0.00    -0.022 A 
HETATM    4  C   UNL     1      43.925 -11.258   7.828  1.00  0.00     0.014 A 
HETATM    5  C   UNL     1      43.974 -12.564   7.325  1.00  0.00     0.032 A 
HETATM    6  C   UNL     1      43.365 -12.876   6.109  1.00  0.00     0.053 A 
ENDROOT
BRANCH   6   7
HETATM    7  N   UNL     1      43.315 -14.198   5.614  1.00  0.00    -0.308 N 
HETATM    8  C   UNL     1      42.307 -15.094   5.827  1.00  0.00     0.321 C 
HETATM    9  O   UNL     1      41.476 -14.994   6.724  1.00  0.00    -0.247 OA
HETATM   10  N   UNL     1      42.311 -16.199   5.038  1.00  0.00    -0.339 N 
HETATM   11  H   UNL     1      41.468 -16.752   5.153  1.00  0.00     0.164 HD
HETATM   12  H   UNL     1      44.151 -14.526   5.150  1.00  0.00     0.170 HD
BRANCH  10  13
HETATM   13  C   UNL     1      43.036 -16.390   3.797  1.00  0.00     0.162 C 
BRANCH  13  14
HETATM   14  C   UNL     1      43.308 -17.845   3.530  1.00  0.00    -0.040 A 
HETATM   15  C   UNL     1      42.951 -18.416   2.300  1.00  0.00     0.009 A 
HETATM   16  C   UNL     1      43.206 -19.763   2.043  1.00  0.00     0.001 A 
HETATM   17  C   UNL     1      43.821 -20.555   3.011  1.00  0.00     0.000 A 
HETATM   18  C   UNL     1      44.185 -20.000   4.236  1.00  0.00     0.001 A 
HETATM   19  C   UNL     1      43.935 -18.651   4.493  1.00  0.00     0.009 A 
ENDBRANCH  13  14
ENDBRANCH  10  13
ENDBRANCH   6   7
BRANCH   1  20
HETATM   20  S   UNL     1      42.169 -12.167   3.699  1.00  0.00    -0.126 SA
BRANCH  20  21
HETATM   21  C   UNL     1      40.409 -12.575   4.046  1.00  0.00     0.107 C 
BRANCH  21  22
HETATM   22  C   UNL     1      39.857 -13.753   3.225  1.00  0.00     0.244 C 
BRANCH  22  23
HETATM   23  N   UNL     1      39.128 -13.300   1.974  1.00  0.00    -0.078 N 
HETATM   24  C   UNL     1      38.568 -11.910   2.073  1.00  0.00     0.269 C 
HETATM   25  H   UNL     1      38.337 -13.949   1.852  1.00  0.00     0.279 HD
HETATM   26  C   UNL     1      39.973 -13.467   0.736  1.00  0.00     0.269 C 
ENDBRANCH  22  23
ENDBRANCH  21  22
ENDBRANCH  20  21
ENDBRANCH   1  20
BRANCH   3  27
HETATM   27  C   UNL     1      43.195  -8.884   7.645  1.00  0.00     0.010 A 
HETATM   28  C   UNL     1      44.030  -8.199   8.562  1.00  0.00     0.152 A 
HETATM   29  N   UNL     1      43.613  -6.958   8.816  1.00  0.00    -0.187 NA
HETATM   30  N   UNL     1      42.527  -6.823   8.040  1.00  0.00    -0.289 N 
HETATM   31  H   UNL     1      42.036  -5.935   8.050  1.00  0.00     0.188 HD
HETATM   32  C   UNL     1      42.226  -7.954   7.333  1.00  0.00     0.123 A 
ENDBRANCH   3  27
TORSDOF 8
ENDMDL
MODEL 9
REMARK VINA RESULT:      -7.1      1.760      5.596
REMARK  8 active torsions:
REMARK  status: ('A' for Active; 'I' for Inactive)
REMARK    1  A    between atoms: N_2  and  C_5 
REMARK    2  A    between atoms: C_5  and  C_6 
REMARK    3  A    between atoms: C_6  and  S_7 
REMARK    4  A    between atoms: S_7  and  C_8 
REMARK    5  A    between atoms: C_10  and  C_25 
REMARK    6  A    between atoms: C_13  and  N_14 
REMARK       I    between atoms: N_14  and  C_15 
REMARK       I    between atoms: C_15  and  N_17 
REMARK    7  A    between atoms: N_17  and  C_18 
REMARK    8  A    between atoms: C_18  and  C_19 
ROOT
HETATM    1  C   UNL     1      41.622 -14.253   1.603  1.00  0.00     0.028 A 
HETATM    2  C   UNL     1      40.928 -14.591   0.433  1.00  0.00     0.033 A 
HETATM    3  C   UNL     1      39.876 -13.793  -0.034  1.00  0.00    -0.022 A 
HETATM    4  C   UNL     1      39.535 -12.643   0.691  1.00  0.00     0.014 A 
HETATM    5  C   UNL     1      40.213 -12.309   1.870  1.00  0.00     0.032 A 
HETATM    6  C   UNL     1      41.244 -13.121   2.346  1.00  0.00     0.053 A 
ENDROOT
BRANCH   6   7
HETATM    7  N   UNL     1      41.889 -12.866   3.577  1.00  0.00    -0.308 N 
HETATM    8  C   UNL     1      41.381 -13.134   4.815  1.00  0.00     0.321 C 
HETATM    9  O   UNL     1      40.191 -13.326   5.045  1.00  0.00    -0.247 OA
HETATM   10  N   UNL     1      42.261 -13.083   5.848  1.00  0.00    -0.339 N 
HETATM   11  H   UNL     1      41.853 -13.421   6.714  1.00  0.00     0.164 HD
HETATM   12  H   UNL     1      42.755 -12.348   3.521  1.00  0.00     0.170 HD
BRANCH  10  13
HETATM   13  C   UNL     1      43.709 -13.109   5.770  1.00  0.00     0.162 C 
BRANCH  13  14
HETATM   14  C   UNL     1      44.335 -12.099   6.691  1.00  0.00    -0.040 A 
HETATM   15  C   UNL     1      43.646 -11.660   7.832  1.00  0.00     0.009 A 
HETATM   16  C   UNL     1      44.224 -10.728   8.693  1.00  0.00     0.001 A 
HETATM   17  C   UNL     1      45.496 -10.224   8.428  1.00  0.00     0.000 A 
HETATM   18  C   UNL     1      46.194 -10.654   7.302  1.00  0.00     0.001 A 
HETATM   19  C   UNL     1      45.619 -11.591   6.440  1.00  0.00     0.009 A 
ENDBRANCH  13  14
ENDBRANCH  10  13
ENDBRANCH   6   7
BRANCH   1  20
HETATM   20  S   UNL     1      43.101 -15.171   2.053  1.00  0.00    -0.126 SA
BRANCH  20  21
HETATM   21  C   UNL     1      42.324 -16.605   2.905  1.00  0.00     0.107 C 
BRANCH  21  22
HETATM   22  C   UNL     1      43.040 -17.040   4.195  1.00  0.00     0.244 C 
BRANCH  22  23
HETATM   23  N   UNL     1      43.964 -18.224   3.978  1.00  0.00    -0.078 N 
HETATM   24  C   UNL     1      44.052 -19.145   5.160  1.00  0.00     0.269 C 
HETATM   25  H   UNL     1      44.902 -17.830   3.816  1.00  0.00     0.279 HD
HETATM   26  C   UNL     1      43.627 -18.978   2.716  1.00  0.00     0.269 C 
ENDBRANCH  22  23
ENDBRANCH  21  22
ENDBRANCH  20  21
ENDBRANCH   1  20
BRANCH   3  27
HETATM   27  C   UNL     1      39.169 -14.160  -1.251  1.00  0.00     0.010 A 
HETATM   28  C   UNL     1      38.379 -13.380  -2.132  1.00  0.00     0.152 A 
HETATM   29  N   UNL     1      37.866 -14.093  -3.136  1.00  0.00    -0.187 NA
HETATM   30  N   UNL     1      38.348 -15.328  -2.927  1.00  0.00    -0.289 N 
HETATM   31  H   UNL     1      38.103 -16.058  -3.589  1.00  0.00     0.188 HD
HETATM   32  C   UNL     1      39.119 -15.423  -1.803  1.00  0.00     0.123 A 
ENDBRANCH   3  27
TORSDOF 8
ENDMDL
MODEL 10
REMARK VINA RESULT:      -7.1      2.722      7.237
REMARK  8 active torsions:
REMARK  status: ('A' for Active; 'I' for Inactive)
REMARK    1  A    between atoms: N_2  and  C_5 
REMARK    2  A    between atoms: C_5  and  C_6 
REMARK    3  A    between atoms: C_6  and  S_7 
REMARK    4  A    between atoms: S_7  and  C_8 
REMARK    5  A    between atoms: C_10  and  C_25 
REMARK    6  A    between atoms: C_13  and  N_14 
REMARK       I    between atoms: N_14  and  C_15 
REMARK       I    between atoms: C_15  and  N_17 
REMARK    7  A    between atoms: N_17  and  C_18 
REMARK    8  A    between atoms: C_18  and  C_19 
ROOT
HETATM    1  C   UNL     1      42.371 -15.571   4.053  1.00  0.00     0.028 A 
HETATM    2  C   UNL     1      42.752 -16.904   4.260  1.00  0.00     0.033 A 
HETATM    3  C   UNL     1      43.243 -17.682   3.203  1.00  0.00    -0.022 A 
HETATM    4  C   UNL     1      43.350 -17.098   1.935  1.00  0.00     0.014 A 
HETATM    5  C   UNL     1      42.955 -15.772   1.718  1.00  0.00     0.032 A 
HETATM    6  C   UNL     1      42.443 -15.007   2.767  1.00  0.00     0.053 A 
ENDROOT
BRANCH   6   7
HETATM    7  N   UNL     1      41.950 -13.698   2.568  1.00  0.00    -0.308 N 
HETATM    8  C   UNL     1      40.653 -13.364   2.304  1.00  0.00     0.321 C 
HETATM    9  O   UNL     1      39.810 -14.153   1.889  1.00  0.00    -0.247 OA
HETATM   10  N   UNL     1      40.335 -12.050   2.430  1.00  0.00    -0.339 N 
HETATM   11  H   UNL     1      39.336 -11.891   2.353  1.00  0.00     0.164 HD
HETATM   12  H   UNL     1      42.647 -12.968   2.518  1.00  0.00     0.170 HD
BRANCH  10  13
HETATM   13  C   UNL     1      41.095 -11.024   3.117  1.00  0.00     0.162 C 
BRANCH  13  14
HETATM   14  C   UNL     1      40.414 -10.581   4.383  1.00  0.00    -0.040 A 
HETATM   15  C   UNL     1      40.455  -9.235   4.773  1.00  0.00     0.009 A 
HETATM   16  C   UNL     1      39.820  -8.817   5.943  1.00  0.00     0.001 A 
HETATM   17  C   UNL     1      39.137  -9.737   6.735  1.00  0.00     0.000 A 
HETATM   18  C   UNL     1      39.084 -11.077   6.358  1.00  0.00     0.001 A 
HETATM   19  C   UNL     1      39.714 -11.497   5.184  1.00  0.00     0.009 A 
ENDBRANCH  13  14
ENDBRANCH  10  13
ENDBRANCH   6   7
BRANCH   1  20
HETATM   20  S   UNL     1      41.956 -14.538   5.466  1.00  0.00    -0.126 SA
BRANCH  20  21
HETATM   21  C   UNL     1      43.616 -14.405   6.246  1.00  0.00     0.107 C 
BRANCH  21  22
HETATM   22  C   UNL     1      43.881 -13.062   6.950  1.00  0.00     0.244 C 
BRANCH  22  23
HETATM   23  N   UNL     1      43.330 -11.880   6.175  1.00  0.00    -0.078 N 
HETATM   24  C   UNL     1      43.012 -10.690   7.034  1.00  0.00     0.269 C 
HETATM   25  H   UNL     1      42.450 -12.203   5.747  1.00  0.00     0.279 HD
HETATM   26  C   UNL     1      44.219 -11.501   5.017  1.00  0.00     0.269 C 
ENDBRANCH  22  23
ENDBRANCH  21  22
ENDBRANCH  20  21
ENDBRANCH   1  20
BRANCH   3  27
HETATM   27  C   UNL     1      43.635 -19.063   3.439  1.00  0.00     0.010 A 
HETATM   28  C   UNL     1      43.626 -20.186   2.575  1.00  0.00     0.152 A 
HETATM   29  N   UNL     1      44.036 -21.305   3.175  1.00  0.00    -0.187 NA
HETATM   30  N   UNL     1      44.343 -20.904   4.418  1.00  0.00    -0.289 N 
HETATM   31  H   UNL     1      44.703 -21.593   5.071  1.00  0.00     0.188 HD
HETATM   32  C   UNL     1      44.104 -19.574   4.630  1.00  0.00     0.123 A 
ENDBRANCH   3  27
TORSDOF 8
ENDMDL
