MODEL 1
REMARK VINA RESULT:      -8.6      0.000      0.000
REMARK  6 active torsions:
REMARK  status: ('A' for Active; 'I' for Inactive)
REMARK    1  A    between atoms: C_4  and  C_5 
REMARK    2  A    between atoms: C_7  and  C_8 
REMARK    3  A    between atoms: C_11  and  C_12 
REMARK       I    between atoms: C_12  and  N_13 
REMARK    4  A    between atoms: N_13  and  C_14 
REMARK    5  A    between atoms: C_14  and  C_15 
REMARK    6  A    between atoms: C_18  and  N_19 
REMARK       I    between atoms: N_19  and  C_20 
REMARK       I    between atoms: C_20  and  N_21 
ROOT
HETATM    1  C   UNL     1      40.764 -13.268   3.111  1.00  0.00     0.273 C 
HETATM    2  N   UNL     1      41.426 -12.454   2.221  1.00  0.00    -0.351 N 
HETATM    3  O   UNL     1      39.571 -13.136   3.372  1.00  0.00    -0.266 OA
HETATM    4  H   UNL     1      42.383 -12.698   1.988  1.00  0.00     0.163 HD
ENDROOT
BRANCH   1   5
HETATM    5  C   UNL     1      41.618 -14.291   3.702  1.00  0.00     0.157 A 
HETATM    6  C   UNL     1      42.437 -14.181   4.810  1.00  0.00     0.094 A 
HETATM    7  O   UNL     1      43.063 -15.386   4.982  1.00  0.00    -0.293 OA
HETATM    8  C   UNL     1      42.593 -16.177   3.971  1.00  0.00     0.180 A 
HETATM    9  N   UNL     1      41.717 -15.581   3.183  1.00  0.00    -0.216 NA
BRANCH   6  10
HETATM   10  C   UNL     1      42.653 -12.982   5.717  1.00  0.00     0.046 A 
HETATM   11  C   UNL     1      43.731 -13.086   6.777  1.00  0.00     0.012 A 
HETATM   12  C   UNL     1      43.956 -12.221   5.585  1.00  0.00     0.012 A 
ENDBRANCH   6  10
BRANCH   8  13
HETATM   13  C   UNL     1      43.129 -17.534   3.904  1.00  0.00     0.017 A 
HETATM   14  C   UNL     1      43.686 -18.166   5.028  1.00  0.00     0.016 A 
HETATM   15  C   UNL     1      44.203 -19.462   4.939  1.00  0.00     0.001 A 
HETATM   16  C   UNL     1      44.171 -20.142   3.724  1.00  0.00     0.000 A 
HETATM   17  C   UNL     1      43.622 -19.531   2.599  1.00  0.00     0.001 A 
HETATM   18  C   UNL     1      43.104 -18.236   2.689  1.00  0.00     0.016 A 
ENDBRANCH   8  13
ENDBRANCH   1   5
BRANCH   2  19
HETATM   19  C   UNL     1      40.722 -11.423   1.504  1.00  0.00     0.161 C 
BRANCH  19  20
HETATM   20  C   UNL     1      40.150 -11.888   0.191  1.00  0.00    -0.040 A 
HETATM   21  C   UNL     1      41.007 -12.194  -0.872  1.00  0.00     0.011 A 
HETATM   22  C   UNL     1      40.508 -12.699  -2.078  1.00  0.00     0.030 A 
HETATM   23  C   UNL     1      39.141 -12.916  -2.242  1.00  0.00     0.035 A 
HETATM   24  C   UNL     1      38.278 -12.605  -1.185  1.00  0.00     0.030 A 
HETATM   25  C   UNL     1      38.776 -12.106   0.024  1.00  0.00     0.011 A 
BRANCH  23  26
HETATM   26  N   UNL     1      38.569 -13.433  -3.421  1.00  0.00    -0.314 N 
HETATM   27  C   UNL     1      38.277 -14.741  -3.702  1.00  0.00     0.296 C 
HETATM   28  N   UNL     1      37.787 -14.889  -4.967  1.00  0.00    -0.254 NA
HETATM   29  O   UNL     1      38.388 -15.721  -2.980  1.00  0.00    -0.254 OA
HETATM   30  H   UNL     1      38.236 -14.349  -5.693  1.00  0.00     0.128 HD
HETATM   31  H   UNL     1      37.649 -15.864  -5.209  1.00  0.00     0.128 HD
HETATM   32  H   UNL     1      38.198 -12.765  -4.079  1.00  0.00     0.170 HD
ENDBRANCH  23  26
ENDBRANCH  19  20
ENDBRANCH   2  19
TORSDOF 6
ENDMDL
MODEL 2
REMARK VINA RESULT:      -8.3      3.508      7.938
REMARK  6 active torsions:
REMARK  status: ('A' for Active; 'I' for Inactive)
REMARK    1  A    between atoms: C_4  and  C_5 
REMARK    2  A    between atoms: C_7  and  C_8 
REMARK    3  A    between atoms: C_11  and  C_12 
REMARK       I    between atoms: C_12  and  N_13 
REMARK    4  A    between atoms: N_13  and  C_14 
REMARK    5  A    between atoms: C_14  and  C_15 
REMARK    6  A    between atoms: C_18  and  N_19 
REMARK       I    between atoms: N_19  and  C_20 
REMARK       I    between atoms: C_20  and  N_21 
ROOT
HETATM    1  C   UNL     1      42.269 -13.317   3.282  1.00  0.00     0.273 C 
HETATM    2  N   UNL     1      43.562 -12.900   3.498  1.00  0.00    -0.351 N 
HETATM    3  O   UNL     1      41.303 -12.564   3.369  1.00  0.00    -0.266 OA
HETATM    4  H   UNL     1      44.305 -13.563   3.304  1.00  0.00     0.163 HD
ENDROOT
BRANCH   1   5
HETATM    5  C   UNL     1      42.169 -14.732   2.942  1.00  0.00     0.157 A 
HETATM    6  C   UNL     1      41.231 -15.350   2.136  1.00  0.00     0.094 A 
HETATM    7  O   UNL     1      41.518 -16.688   2.121  1.00  0.00    -0.293 OA
HETATM    8  C   UNL     1      42.621 -16.823   2.918  1.00  0.00     0.180 A 
HETATM    9  N   UNL     1      43.063 -15.687   3.425  1.00  0.00    -0.216 NA
BRANCH   6  10
HETATM   10  C   UNL     1      40.074 -14.728   1.376  1.00  0.00     0.046 A 
HETATM   11  C   UNL     1      40.405 -13.783   0.239  1.00  0.00     0.012 A 
HETATM   12  C   UNL     1      39.872 -15.140  -0.068  1.00  0.00     0.012 A 
ENDBRANCH   6  10
BRANCH   8  13
HETATM   13  C   UNL     1      43.130 -18.180   3.098  1.00  0.00     0.017 A 
HETATM   14  C   UNL     1      43.044 -19.145   2.082  1.00  0.00     0.016 A 
HETATM   15  C   UNL     1      43.529 -20.441   2.280  1.00  0.00     0.001 A 
HETATM   16  C   UNL     1      44.105 -20.790   3.499  1.00  0.00     0.000 A 
HETATM   17  C   UNL     1      44.199 -19.846   4.519  1.00  0.00     0.001 A 
HETATM   18  C   UNL     1      43.715 -18.550   4.319  1.00  0.00     0.016 A 
ENDBRANCH   8  13
ENDBRANCH   1   5
BRANCH   2  19
HETATM   19  C   UNL     1      43.849 -11.520   3.792  1.00  0.00     0.161 C 
BRANCH  19  20
HETATM   20  C   UNL     1      43.822 -11.200   5.263  1.00  0.00    -0.040 A 
HETATM   21  C   UNL     1      42.712 -10.548   5.813  1.00  0.00     0.011 A 
HETATM   22  C   UNL     1      42.627 -10.306   7.188  1.00  0.00     0.030 A 
HETATM   23  C   UNL     1      43.648 -10.718   8.044  1.00  0.00     0.035 A 
HETATM   24  C   UNL     1      44.764 -11.363   7.499  1.00  0.00     0.030 A 
HETATM   25  C   UNL     1      44.847 -11.614   6.124  1.00  0.00     0.011 A 
BRANCH  23  26
HETATM   26  N   UNL     1      43.625 -10.519   9.438  1.00  0.00    -0.314 N 
HETATM   27  C   UNL     1      43.830  -9.347  10.116  1.00  0.00     0.296 C 
HETATM   28  N   UNL     1      43.798  -9.533  11.468  1.00  0.00    -0.254 NA
HETATM   29  O   UNL     1      44.012  -8.225   9.666  1.00  0.00    -0.254 OA
HETATM   30  H   UNL     1      44.257 -10.359  11.823  1.00  0.00     0.128 HD
HETATM   31  H   UNL     1      44.033  -8.685  11.973  1.00  0.00     0.128 HD
HETATM   32  H   UNL     1      43.282 -11.281  10.002  1.00  0.00     0.170 HD
ENDBRANCH  23  26
ENDBRANCH  19  20
ENDBRANCH   2  19
TORSDOF 6
ENDMDL
MODEL 3
REMARK VINA RESULT:      -8.2      4.500      7.970
REMARK  6 active torsions:
REMARK  status: ('A' for Active; 'I' for Inactive)
REMARK    1  A    between atoms: C_4  and  C_5 
REMARK    2  A    between atoms: C_7  and  C_8 
REMARK    3  A    between atoms: C_11  and  C_12 
REMARK       I    between atoms: C_12  and  N_13 
REMARK    4  A    between atoms: N_13  and  C_14 
REMARK    5  A    between atoms: C_14  and  C_15 
REMARK    6  A    between atoms: C_18  and  N_19 
REMARK       I    between atoms: N_19  and  C_20 
REMARK       I    between atoms: C_20  and  N_21 
ROOT
HETATM    1  C   UNL     1      43.268 -11.841   4.027  1.00  0.00     0.273 C 
HETATM    2  N   UNL     1      42.701 -13.091   3.923  1.00  0.00    -0.351 N 
HETATM    3  O   UNL     1      43.972 -11.355   3.147  1.00  0.00    -0.266 OA
HETATM    4  H   UNL     1      42.051 -13.371   4.650  1.00  0.00     0.163 HD
ENDROOT
BRANCH   1   5
HETATM    5  C   UNL     1      42.945 -11.165   5.279  1.00  0.00     0.157 A 
HETATM    6  C   UNL     1      41.823 -10.416   5.577  1.00  0.00     0.094 A 
HETATM    7  O   UNL     1      41.960  -9.960   6.860  1.00  0.00    -0.293 OA
HETATM    8  C   UNL     1      43.162 -10.456   7.286  1.00  0.00     0.180 A 
HETATM    9  N   UNL     1      43.789 -11.194   6.388  1.00  0.00    -0.216 NA
BRANCH   6  10
HETATM   10  C   UNL     1      40.621 -10.114   4.700  1.00  0.00     0.046 A 
HETATM   11  C   UNL     1      39.668 -11.252   4.396  1.00  0.00     0.012 A 
HETATM   12  C   UNL     1      39.247 -10.175   5.336  1.00  0.00     0.012 A 
ENDBRANCH   6  10
BRANCH   8  13
HETATM   13  C   UNL     1      43.573 -10.091   8.639  1.00  0.00     0.017 A 
HETATM   14  C   UNL     1      42.647  -9.664   9.605  1.00  0.00     0.016 A 
HETATM   15  C   UNL     1      43.064  -9.310  10.891  1.00  0.00     0.001 A 
HETATM   16  C   UNL     1      44.413  -9.376  11.228  1.00  0.00     0.000 A 
HETATM   17  C   UNL     1      45.346  -9.797  10.283  1.00  0.00     0.001 A 
HETATM   18  C   UNL     1      44.928 -10.153   8.998  1.00  0.00     0.016 A 
ENDBRANCH   8  13
ENDBRANCH   1   5
BRANCH   2  19
HETATM   19  C   UNL     1      42.872 -13.877   2.729  1.00  0.00     0.161 C 
BRANCH  19  20
HETATM   20  C   UNL     1      43.090 -15.342   3.001  1.00  0.00    -0.040 A 
HETATM   21  C   UNL     1      43.146 -16.247   1.933  1.00  0.00     0.011 A 
HETATM   22  C   UNL     1      43.421 -17.602   2.150  1.00  0.00     0.030 A 
HETATM   23  C   UNL     1      43.655 -18.078   3.439  1.00  0.00     0.035 A 
HETATM   24  C   UNL     1      43.593 -17.180   4.511  1.00  0.00     0.030 A 
HETATM   25  C   UNL     1      43.325 -15.823   4.295  1.00  0.00     0.011 A 
BRANCH  23  26
HETATM   26  N   UNL     1      43.950 -19.424   3.732  1.00  0.00    -0.314 N 
HETATM   27  C   UNL     1      43.750 -20.515   2.928  1.00  0.00     0.296 C 
HETATM   28  N   UNL     1      44.093 -21.676   3.558  1.00  0.00    -0.254 NA
HETATM   29  O   UNL     1      43.338 -20.552   1.778  1.00  0.00    -0.254 OA
HETATM   30  H   UNL     1      43.827 -21.762   4.528  1.00  0.00     0.128 HD
HETATM   31  H   UNL     1      43.868 -22.492   2.999  1.00  0.00     0.128 HD
HETATM   32  H   UNL     1      44.498 -19.601   4.560  1.00  0.00     0.170 HD
ENDBRANCH  23  26
ENDBRANCH  19  20
ENDBRANCH   2  19
TORSDOF 6
ENDMDL
MODEL 4
REMARK VINA RESULT:      -8.2      1.923      2.037
REMARK  6 active torsions:
REMARK  status: ('A' for Active; 'I' for Inactive)
REMARK    1  A    between atoms: C_4  and  C_5 
REMARK    2  A    between atoms: C_7  and  C_8 
REMARK    3  A    between atoms: C_11  and  C_12 
REMARK       I    between atoms: C_12  and  N_13 
REMARK    4  A    between atoms: N_13  and  C_14 
REMARK    5  A    between atoms: C_14  and  C_15 
REMARK    6  A    between atoms: C_18  and  N_19 
REMARK       I    between atoms: N_19  and  C_20 
REMARK       I    between atoms: C_20  and  N_21 
ROOT
HETATM    1  C   UNL     1      42.894 -13.320   2.912  1.00  0.00     0.273 C 
HETATM    2  N   UNL     1      41.742 -13.132   2.183  1.00  0.00    -0.351 N 
HETATM    3  O   UNL     1      43.754 -12.453   3.031  1.00  0.00    -0.266 OA
HETATM    4  H   UNL     1      41.039 -13.863   2.223  1.00  0.00     0.163 HD
ENDROOT
BRANCH   1   5
HETATM    5  C   UNL     1      42.981 -14.643   3.521  1.00  0.00     0.157 A 
HETATM    6  C   UNL     1      42.891 -14.971   4.861  1.00  0.00     0.094 A 
HETATM    7  O   UNL     1      43.050 -16.326   4.965  1.00  0.00    -0.293 OA
HETATM    8  C   UNL     1      43.228 -16.762   3.681  1.00  0.00     0.180 A 
HETATM    9  N   UNL     1      43.183 -15.803   2.775  1.00  0.00    -0.216 NA
BRANCH   6  10
HETATM   10  C   UNL     1      42.658 -14.056   6.050  1.00  0.00     0.046 A 
HETATM   11  C   UNL     1      43.145 -14.525   7.406  1.00  0.00     0.012 A 
HETATM   12  C   UNL     1      43.869 -13.427   6.707  1.00  0.00     0.012 A 
ENDBRANCH   6  10
BRANCH   8  13
HETATM   13  C   UNL     1      43.451 -18.195   3.507  1.00  0.00     0.017 A 
HETATM   14  C   UNL     1      43.951 -18.999   4.544  1.00  0.00     0.016 A 
HETATM   15  C   UNL     1      44.167 -20.366   4.351  1.00  0.00     0.001 A 
HETATM   16  C   UNL     1      43.886 -20.948   3.117  1.00  0.00     0.000 A 
HETATM   17  C   UNL     1      43.390 -20.166   2.076  1.00  0.00     0.001 A 
HETATM   18  C   UNL     1      43.173 -18.799   2.271  1.00  0.00     0.016 A 
ENDBRANCH   8  13
ENDBRANCH   1   5
BRANCH   2  19
HETATM   19  C   UNL     1      41.467 -11.865   1.557  1.00  0.00     0.161 C 
BRANCH  19  20
HETATM   20  C   UNL     1      40.376 -11.930   0.522  1.00  0.00    -0.040 A 
HETATM   21  C   UNL     1      40.686 -12.301  -0.792  1.00  0.00     0.011 A 
HETATM   22  C   UNL     1      39.683 -12.442  -1.758  1.00  0.00     0.030 A 
HETATM   23  C   UNL     1      38.346 -12.224  -1.426  1.00  0.00     0.035 A 
HETATM   24  C   UNL     1      38.031 -11.846  -0.115  1.00  0.00     0.030 A 
HETATM   25  C   UNL     1      39.033 -11.712   0.853  1.00  0.00     0.011 A 
BRANCH  23  26
HETATM   26  N   UNL     1      37.284 -12.359  -2.339  1.00  0.00    -0.314 N 
HETATM   27  C   UNL     1      36.610 -11.359  -2.988  1.00  0.00     0.296 C 
HETATM   28  N   UNL     1      35.592 -11.849  -3.755  1.00  0.00    -0.254 NA
HETATM   29  O   UNL     1      36.821 -10.155  -2.965  1.00  0.00    -0.254 OA
HETATM   30  H   UNL     1      35.040 -12.593  -3.353  1.00  0.00     0.128 HD
HETATM   31  H   UNL     1      35.039 -11.107  -4.170  1.00  0.00     0.128 HD
HETATM   32  H   UNL     1      37.081 -13.290  -2.670  1.00  0.00     0.170 HD
ENDBRANCH  23  26
ENDBRANCH  19  20
ENDBRANCH   2  19
TORSDOF 6
ENDMDL
MODEL 5
REMARK VINA RESULT:      -8.0      3.038      3.946
REMARK  6 active torsions:
REMARK  status: ('A' for Active; 'I' for Inactive)
REMARK    1  A    between atoms: C_4  and  C_5 
REMARK    2  A    between atoms: C_7  and  C_8 
REMARK    3  A    between atoms: C_11  and  C_12 
REMARK       I    between atoms: C_12  and  N_13 
REMARK    4  A    between atoms: N_13  and  C_14 
REMARK    5  A    between atoms: C_14  and  C_15 
REMARK    6  A    between atoms: C_18  and  N_19 
REMARK       I    between atoms: N_19  and  C_20 
REMARK       I    between atoms: C_20  and  N_21 
ROOT
HETATM    1  C   UNL     1      40.579 -14.517   1.106  1.00  0.00     0.273 C 
HETATM    2  N   UNL     1      40.839 -14.365  -0.237  1.00  0.00    -0.351 N 
HETATM    3  O   UNL     1      39.566 -14.077   1.641  1.00  0.00    -0.266 OA
HETATM    4  H   UNL     1      41.648 -14.849  -0.613  1.00  0.00     0.163 HD
ENDROOT
BRANCH   1   5
HETATM    5  C   UNL     1      41.622 -15.248   1.816  1.00  0.00     0.157 A 
HETATM    6  C   UNL     1      42.783 -14.748   2.375  1.00  0.00     0.094 A 
HETATM    7  O   UNL     1      43.467 -15.801   2.918  1.00  0.00    -0.293 OA
HETATM    8  C   UNL     1      42.688 -16.897   2.667  1.00  0.00     0.180 A 
HETATM    9  N   UNL     1      41.567 -16.625   2.024  1.00  0.00    -0.216 NA
BRANCH   6  10
HETATM   10  C   UNL     1      43.274 -13.312   2.420  1.00  0.00     0.046 A 
HETATM   11  C   UNL     1      42.270 -12.235   2.777  1.00  0.00     0.012 A 
HETATM   12  C   UNL     1      43.314 -12.619   3.767  1.00  0.00     0.012 A 
ENDBRANCH   6  10
BRANCH   8  13
HETATM   13  C   UNL     1      43.207 -18.183   3.126  1.00  0.00     0.017 A 
HETATM   14  C   UNL     1      43.746 -18.348   4.412  1.00  0.00     0.016 A 
HETATM   15  C   UNL     1      44.247 -19.585   4.826  1.00  0.00     0.001 A 
HETATM   16  C   UNL     1      44.217 -20.674   3.959  1.00  0.00     0.000 A 
HETATM   17  C   UNL     1      43.687 -20.529   2.679  1.00  0.00     0.001 A 
HETATM   18  C   UNL     1      43.184 -19.292   2.266  1.00  0.00     0.016 A 
ENDBRANCH   8  13
ENDBRANCH   1   5
BRANCH   2  19
HETATM   19  C   UNL     1      39.889 -13.714  -1.100  1.00  0.00     0.161 C 
BRANCH  19  20
HETATM   20  C   UNL     1      40.299 -12.323  -1.504  1.00  0.00    -0.040 A 
HETATM   21  C   UNL     1      40.611 -11.377  -0.521  1.00  0.00     0.011 A 
HETATM   22  C   UNL     1      41.067 -10.100  -0.867  1.00  0.00     0.030 A 
HETATM   23  C   UNL     1      41.227  -9.745  -2.206  1.00  0.00     0.035 A 
HETATM   24  C   UNL     1      40.909 -10.684  -3.194  1.00  0.00     0.030 A 
HETATM   25  C   UNL     1      40.461 -11.965  -2.849  1.00  0.00     0.011 A 
BRANCH  23  26
HETATM   26  N   UNL     1      41.692  -8.485  -2.629  1.00  0.00    -0.314 N 
HETATM   27  C   UNL     1      42.801  -7.814  -2.187  1.00  0.00     0.296 C 
HETATM   28  N   UNL     1      42.915  -6.585  -2.771  1.00  0.00    -0.254 NA
HETATM   29  O   UNL     1      43.649  -8.183  -1.388  1.00  0.00    -0.254 OA
HETATM   30  H   UNL     1      42.063  -6.053  -2.877  1.00  0.00     0.128 HD
HETATM   31  H   UNL     1      43.686  -6.052  -2.384  1.00  0.00     0.128 HD
HETATM   32  H   UNL     1      41.253  -8.087  -3.445  1.00  0.00     0.170 HD
ENDBRANCH  23  26
ENDBRANCH  19  20
ENDBRANCH   2  19
TORSDOF 6
ENDMDL
MODEL 6
REMARK VINA RESULT:      -8.0      3.769      4.827
REMARK  6 active torsions:
REMARK  status: ('A' for Active; 'I' for Inactive)
REMARK    1  A    between atoms: C_4  and  C_5 
REMARK    2  A    between atoms: C_7  and  C_8 
REMARK    3  A    between atoms: C_11  and  C_12 
REMARK       I    between atoms: C_12  and  N_13 
REMARK    4  A    between atoms: N_13  and  C_14 
REMARK    5  A    between atoms: C_14  and  C_15 
REMARK    6  A    between atoms: C_18  and  N_19 
REMARK       I    between atoms: N_19  and  C_20 
REMARK       I    between atoms: C_20  and  N_21 
ROOT
HETATM    1  C   UNL     1      40.208 -14.255  -0.356  1.00  0.00     0.273 C 
HETATM    2  N   UNL     1      40.873 -13.143  -0.821  1.00  0.00    -0.351 N 
HETATM    3  O   UNL     1      39.303 -14.798  -0.982  1.00  0.00    -0.266 OA
HETATM    4  H   UNL     1      41.675 -12.822  -0.289  1.00  0.00     0.163 HD
ENDROOT
BRANCH   1   5
HETATM    5  C   UNL     1      40.689 -14.712   0.942  1.00  0.00     0.157 A 
HETATM    6  C   UNL     1      40.336 -14.246   2.195  1.00  0.00     0.094 A 
HETATM    7  O   UNL     1      41.053 -14.957   3.117  1.00  0.00    -0.293 OA
HETATM    8  C   UNL     1      41.811 -15.828   2.383  1.00  0.00     0.180 A 
HETATM    9  N   UNL     1      41.625 -15.737   1.079  1.00  0.00    -0.216 NA
BRANCH   6  10
HETATM   10  C   UNL     1      39.345 -13.155   2.557  1.00  0.00     0.046 A 
HETATM   11  C   UNL     1      39.546 -12.429   3.872  1.00  0.00     0.012 A 
HETATM   12  C   UNL     1      39.847 -11.726   2.594  1.00  0.00     0.012 A 
ENDBRANCH   6  10
BRANCH   8  13
HETATM   13  C   UNL     1      42.706 -16.704   3.135  1.00  0.00     0.017 A 
HETATM   14  C   UNL     1      43.072 -16.427   4.462  1.00  0.00     0.016 A 
HETATM   15  C   UNL     1      43.938 -17.274   5.159  1.00  0.00     0.001 A 
HETATM   16  C   UNL     1      44.451 -18.409   4.537  1.00  0.00     0.000 A 
HETATM   17  C   UNL     1      44.099 -18.701   3.221  1.00  0.00     0.001 A 
HETATM   18  C   UNL     1      43.231 -17.854   2.526  1.00  0.00     0.016 A 
ENDBRANCH   8  13
ENDBRANCH   1   5
BRANCH   2  19
HETATM   19  C   UNL     1      40.562 -12.589  -2.113  1.00  0.00     0.161 C 
BRANCH  19  20
HETATM   20  C   UNL     1      40.966 -11.146  -2.261  1.00  0.00    -0.040 A 
HETATM   21  C   UNL     1      40.572 -10.425  -3.394  1.00  0.00     0.011 A 
HETATM   22  C   UNL     1      40.869  -9.064  -3.523  1.00  0.00     0.030 A 
HETATM   23  C   UNL     1      41.561  -8.393  -2.516  1.00  0.00     0.035 A 
HETATM   24  C   UNL     1      41.964  -9.109  -1.383  1.00  0.00     0.030 A 
HETATM   25  C   UNL     1      41.661 -10.469  -1.250  1.00  0.00     0.011 A 
BRANCH  23  26
HETATM   26  N   UNL     1      41.883  -7.023  -2.571  1.00  0.00    -0.314 N 
HETATM   27  C   UNL     1      42.693  -6.393  -3.478  1.00  0.00     0.296 C 
HETATM   28  N   UNL     1      42.835  -5.066  -3.193  1.00  0.00    -0.254 NA
HETATM   29  O   UNL     1      43.252  -6.862  -4.458  1.00  0.00    -0.254 OA
HETATM   30  H   UNL     1      42.952  -4.821  -2.221  1.00  0.00     0.128 HD
HETATM   31  H   UNL     1      43.499  -4.614  -3.812  1.00  0.00     0.128 HD
HETATM   32  H   UNL     1      41.357  -6.406  -1.972  1.00  0.00     0.170 HD
ENDBRANCH  23  26
ENDBRANCH  19  20
ENDBRANCH   2  19
TORSDOF 6
ENDMDL
MODEL 7
REMARK VINA RESULT:      -7.9      3.688      5.911
REMARK  6 active torsions:
REMARK  status: ('A' for Active; 'I' for Inactive)
REMARK    1  A    between atoms: C_4  and  C_5 
REMARK    2  A    between atoms: C_7  and  C_8 
REMARK    3  A    between atoms: C_11  and  C_12 
REMARK       I    between atoms: C_12  and  N_13 
REMARK    4  A    between atoms: N_13  and  C_14 
REMARK    5  A    between atoms: C_14  and  C_15 
REMARK    6  A    between atoms: C_18  and  N_19 
REMARK       I    between atoms: N_19  and  C_20 
REMARK       I    between atoms: C_20  and  N_21 
ROOT
HETATM    1  C   UNL     1      42.893 -13.346   3.886  1.00  0.00     0.273 C 
HETATM    2  N   UNL     1      42.156 -13.198   5.039  1.00  0.00    -0.351 N 
HETATM    3  O   UNL     1      43.542 -12.430   3.389  1.00  0.00    -0.266 OA
HETATM    4  H   UNL     1      41.735 -14.032   5.434  1.00  0.00     0.163 HD
ENDROOT
BRANCH   1   5
HETATM    5  C   UNL     1      42.822 -14.690   3.325  1.00  0.00     0.157 A 
HETATM    6  C   UNL     1      42.202 -15.095   2.158  1.00  0.00     0.094 A 
HETATM    7  O   UNL     1      42.377 -16.447   2.045  1.00  0.00    -0.293 OA
HETATM    8  C   UNL     1      43.099 -16.805   3.150  1.00  0.00     0.180 A 
HETATM    9  N   UNL     1      43.406 -15.795   3.944  1.00  0.00    -0.216 NA
BRANCH   6  10
HETATM   10  C   UNL     1      41.451 -14.255   1.140  1.00  0.00     0.046 A 
HETATM   11  C   UNL     1      40.286 -14.899   0.418  1.00  0.00     0.012 A 
HETATM   12  C   UNL     1      40.021 -13.867   1.459  1.00  0.00     0.012 A 
ENDBRANCH   6  10
BRANCH   8  13
HETATM   13  C   UNL     1      43.407 -18.225   3.294  1.00  0.00     0.017 A 
HETATM   14  C   UNL     1      43.914 -18.757   4.490  1.00  0.00     0.016 A 
HETATM   15  C   UNL     1      44.211 -20.118   4.602  1.00  0.00     0.001 A 
HETATM   16  C   UNL     1      44.006 -20.966   3.516  1.00  0.00     0.000 A 
HETATM   17  C   UNL     1      43.504 -20.457   2.320  1.00  0.00     0.001 A 
HETATM   18  C   UNL     1      43.206 -19.096   2.211  1.00  0.00     0.016 A 
ENDBRANCH   8  13
ENDBRANCH   1   5
BRANCH   2  19
HETATM   19  C   UNL     1      42.156 -11.949   5.755  1.00  0.00     0.161 C 
BRANCH  19  20
HETATM   20  C   UNL     1      40.959 -11.085   5.456  1.00  0.00    -0.040 A 
HETATM   21  C   UNL     1      41.064 -10.055   4.514  1.00  0.00     0.011 A 
HETATM   22  C   UNL     1      39.950  -9.285   4.161  1.00  0.00     0.030 A 
HETATM   23  C   UNL     1      38.706  -9.534   4.739  1.00  0.00     0.035 A 
HETATM   24  C   UNL     1      38.597 -10.558   5.687  1.00  0.00     0.030 A 
HETATM   25  C   UNL     1      39.709 -11.334   6.035  1.00  0.00     0.011 A 
BRANCH  23  26
HETATM   26  N   UNL     1      37.540  -8.810   4.425  1.00  0.00    -0.314 N 
HETATM   27  C   UNL     1      36.997  -7.762   5.120  1.00  0.00     0.296 C 
HETATM   28  N   UNL     1      35.825  -7.338   4.563  1.00  0.00    -0.254 NA
HETATM   29  O   UNL     1      37.431  -7.197   6.113  1.00  0.00    -0.254 OA
HETATM   30  H   UNL     1      35.193  -8.055   4.237  1.00  0.00     0.128 HD
HETATM   31  H   UNL     1      35.377  -6.620   5.121  1.00  0.00     0.128 HD
HETATM   32  H   UNL     1      37.131  -8.974   3.518  1.00  0.00     0.170 HD
ENDBRANCH  23  26
ENDBRANCH  19  20
ENDBRANCH   2  19
TORSDOF 6
ENDMDL
MODEL 8
REMARK VINA RESULT:      -7.9      5.510      9.727
REMARK  6 active torsions:
REMARK  status: ('A' for Active; 'I' for Inactive)
REMARK    1  A    between atoms: C_4  and  C_5 
REMARK    2  A    between atoms: C_7  and  C_8 
REMARK    3  A    between atoms: C_11  and  C_12 
REMARK       I    between atoms: C_12  and  N_13 
REMARK    4  A    between atoms: N_13  and  C_14 
REMARK    5  A    between atoms: C_14  and  C_15 
REMARK    6  A    between atoms: C_18  and  N_19 
REMARK       I    between atoms: N_19  and  C_20 
REMARK       I    between atoms: C_20  and  N_21 
ROOT
HETATM    1  C   UNL     1      42.797 -10.250   7.473  1.00  0.00     0.273 C 
HETATM    2  N   UNL     1      42.649 -11.599   7.245  1.00  0.00    -0.351 N 
HETATM    3  O   UNL     1      42.599  -9.403   6.606  1.00  0.00    -0.266 OA
HETATM    4  H   UNL     1      42.733 -12.219   8.044  1.00  0.00     0.163 HD
ENDROOT
BRANCH   1   5
HETATM    5  C   UNL     1      43.208  -9.937   8.837  1.00  0.00     0.157 A 
HETATM    6  C   UNL     1      44.466 -10.056   9.396  1.00  0.00     0.094 A 
HETATM    7  O   UNL     1      44.375  -9.668  10.705  1.00  0.00    -0.293 OA
HETATM    8  C   UNL     1      43.062  -9.328  10.883  1.00  0.00     0.180 A 
HETATM    9  N   UNL     1      42.320  -9.455   9.798  1.00  0.00    -0.216 NA
BRANCH   6  10
HETATM   10  C   UNL     1      45.756 -10.519   8.743  1.00  0.00     0.046 A 
HETATM   11  C   UNL     1      45.811 -10.539   7.229  1.00  0.00     0.012 A 
HETATM   12  C   UNL     1      46.569  -9.496   7.976  1.00  0.00     0.012 A 
ENDBRANCH   6  10
BRANCH   8  13
HETATM   13  C   UNL     1      42.679  -8.895  12.224  1.00  0.00     0.017 A 
HETATM   14  C   UNL     1      43.374  -7.882  12.903  1.00  0.00     0.016 A 
HETATM   15  C   UNL     1      42.997  -7.491  14.191  1.00  0.00     0.001 A 
HETATM   16  C   UNL     1      41.918  -8.110  14.818  1.00  0.00     0.000 A 
HETATM   17  C   UNL     1      41.216  -9.118  14.160  1.00  0.00     0.001 A 
HETATM   18  C   UNL     1      41.594  -9.506  12.872  1.00  0.00     0.016 A 
ENDBRANCH   8  13
ENDBRANCH   1   5
BRANCH   2  19
HETATM   19  C   UNL     1      42.197 -12.082   5.967  1.00  0.00     0.161 C 
BRANCH  19  20
HETATM   20  C   UNL     1      42.616 -13.500   5.678  1.00  0.00    -0.040 A 
HETATM   21  C   UNL     1      42.163 -14.136   4.516  1.00  0.00     0.011 A 
HETATM   22  C   UNL     1      42.595 -15.425   4.185  1.00  0.00     0.030 A 
HETATM   23  C   UNL     1      43.495 -16.102   5.006  1.00  0.00     0.035 A 
HETATM   24  C   UNL     1      43.946 -15.474   6.173  1.00  0.00     0.030 A 
HETATM   25  C   UNL     1      43.520 -14.181   6.502  1.00  0.00     0.011 A 
BRANCH  23  26
HETATM   26  N   UNL     1      43.983 -17.394   4.730  1.00  0.00    -0.314 N 
HETATM   27  C   UNL     1      43.842 -18.519   5.499  1.00  0.00     0.296 C 
HETATM   28  N   UNL     1      44.498 -19.587   4.956  1.00  0.00    -0.254 NA
HETATM   29  O   UNL     1      43.221 -18.660   6.541  1.00  0.00    -0.254 OA
HETATM   30  H   UNL     1      45.410 -19.406   4.562  1.00  0.00     0.128 HD
HETATM   31  H   UNL     1      44.467 -20.399   5.563  1.00  0.00     0.128 HD
HETATM   32  H   UNL     1      44.352 -17.555   3.806  1.00  0.00     0.170 HD
ENDBRANCH  23  26
ENDBRANCH  19  20
ENDBRANCH   2  19
TORSDOF 6
ENDMDL
MODEL 9
REMARK VINA RESULT:      -7.7      3.373      8.935
REMARK  6 active torsions:
REMARK  status: ('A' for Active; 'I' for Inactive)
REMARK    1  A    between atoms: C_4  and  C_5 
REMARK    2  A    between atoms: C_7  and  C_8 
REMARK    3  A    between atoms: C_11  and  C_12 
REMARK       I    between atoms: C_12  and  N_13 
REMARK    4  A    between atoms: N_13  and  C_14 
REMARK    5  A    between atoms: C_14  and  C_15 
REMARK    6  A    between atoms: C_18  and  N_19 
REMARK       I    between atoms: N_19  and  C_20 
REMARK       I    between atoms: C_20  and  N_21 
ROOT
HETATM    1  C   UNL     1      40.889 -12.158   1.317  1.00  0.00     0.273 C 
HETATM    2  N   UNL     1      42.121 -12.428   1.868  1.00  0.00    -0.351 N 
HETATM    3  O   UNL     1      39.839 -12.568   1.803  1.00  0.00    -0.266 OA
HETATM    4  H   UNL     1      42.926 -11.964   1.461  1.00  0.00     0.163 HD
ENDROOT
BRANCH   1   5
HETATM    5  C   UNL     1      40.964 -11.343   0.110  1.00  0.00     0.157 A 
HETATM    6  C   UNL     1      40.371 -11.580  -1.116  1.00  0.00     0.094 A 
HETATM    7  O   UNL     1      40.734 -10.560  -1.954  1.00  0.00    -0.293 OA
HETATM    8  C   UNL     1      41.531  -9.746  -1.197  1.00  0.00     0.180 A 
HETATM    9  N   UNL     1      41.693 -10.156   0.047  1.00  0.00    -0.216 NA
BRANCH   6  10
HETATM   10  C   UNL     1      39.472 -12.731  -1.530  1.00  0.00     0.046 A 
HETATM   11  C   UNL     1      39.358 -13.039  -3.009  1.00  0.00     0.012 A 
HETATM   12  C   UNL     1      40.125 -13.961  -2.126  1.00  0.00     0.012 A 
ENDBRANCH   6  10
BRANCH   8  13
HETATM   13  C   UNL     1      42.085  -8.574  -1.869  1.00  0.00     0.017 A 
HETATM   14  C   UNL     1      41.770  -8.265  -3.202  1.00  0.00     0.016 A 
HETATM   15  C   UNL     1      42.321  -7.143  -3.828  1.00  0.00     0.001 A 
HETATM   16  C   UNL     1      43.195  -6.315  -3.129  1.00  0.00     0.000 A 
HETATM   17  C   UNL     1      43.520  -6.605  -1.805  1.00  0.00     0.001 A 
HETATM   18  C   UNL     1      42.967  -7.726  -1.180  1.00  0.00     0.016 A 
ENDBRANCH   8  13
ENDBRANCH   1   5
BRANCH   2  19
HETATM   19  C   UNL     1      42.229 -13.175   3.094  1.00  0.00     0.161 C 
BRANCH  19  20
HETATM   20  C   UNL     1      42.383 -14.658   2.881  1.00  0.00    -0.040 A 
HETATM   21  C   UNL     1      43.224 -15.132   1.868  1.00  0.00     0.011 A 
HETATM   22  C   UNL     1      43.443 -16.503   1.695  1.00  0.00     0.030 A 
HETATM   23  C   UNL     1      42.831 -17.429   2.539  1.00  0.00     0.035 A 
HETATM   24  C   UNL     1      41.983 -16.962   3.550  1.00  0.00     0.030 A 
HETATM   25  C   UNL     1      41.769 -15.590   3.728  1.00  0.00     0.011 A 
BRANCH  23  26
HETATM   26  N   UNL     1      43.015 -18.821   2.434  1.00  0.00    -0.314 N 
HETATM   27  C   UNL     1      43.824 -19.616   3.201  1.00  0.00     0.296 C 
HETATM   28  N   UNL     1      43.806 -20.914   2.780  1.00  0.00    -0.254 NA
HETATM   29  O   UNL     1      44.504 -19.306   4.169  1.00  0.00    -0.254 OA
HETATM   30  H   UNL     1      43.820 -21.066   1.781  1.00  0.00     0.128 HD
HETATM   31  H   UNL     1      44.467 -21.488   3.291  1.00  0.00     0.128 HD
HETATM   32  H   UNL     1      42.382 -19.320   1.827  1.00  0.00     0.170 HD
ENDBRANCH  23  26
ENDBRANCH  19  20
ENDBRANCH   2  19
TORSDOF 6
ENDMDL
MODEL 10
REMARK VINA RESULT:      -7.7     15.442     17.412
REMARK  6 active torsions:
REMARK  status: ('A' for Active; 'I' for Inactive)
REMARK    1  A    between atoms: C_4  and  C_5 
REMARK    2  A    between atoms: C_7  and  C_8 
REMARK    3  A    between atoms: C_11  and  C_12 
REMARK       I    between atoms: C_12  and  N_13 
REMARK    4  A    between atoms: N_13  and  C_14 
REMARK    5  A    between atoms: C_14  and  C_15 
REMARK    6  A    between atoms: C_18  and  N_19 
REMARK       I    between atoms: N_19  and  C_20 
REMARK       I    between atoms: C_20  and  N_21 
ROOT
HETATM    1  C   UNL     1      47.356 -28.834   1.119  1.00  0.00     0.273 C 
HETATM    2  N   UNL     1      46.486 -29.521   0.304  1.00  0.00    -0.351 N 
HETATM    3  O   UNL     1      47.148 -27.684   1.495  1.00  0.00    -0.266 OA
HETATM    4  H   UNL     1      46.686 -30.500   0.128  1.00  0.00     0.163 HD
ENDROOT
BRANCH   1   5
HETATM    5  C   UNL     1      48.536 -29.609   1.486  1.00  0.00     0.157 A 
HETATM    6  C   UNL     1      49.569 -30.027   0.668  1.00  0.00     0.094 A 
HETATM    7  O   UNL     1      50.444 -30.741   1.441  1.00  0.00    -0.293 OA
HETATM    8  C   UNL     1      49.903 -30.723   2.698  1.00  0.00     0.180 A 
HETATM    9  N   UNL     1      48.771 -30.051   2.788  1.00  0.00    -0.216 NA
BRANCH   6  10
HETATM   10  C   UNL     1      49.766 -29.777  -0.816  1.00  0.00     0.046 A 
HETATM   11  C   UNL     1      50.710 -30.695  -1.566  1.00  0.00     0.012 A 
HETATM   12  C   UNL     1      49.242 -30.818  -1.785  1.00  0.00     0.012 A 
ENDBRANCH   6  10
BRANCH   8  13
HETATM   13  C   UNL     1      50.638 -31.449   3.731  1.00  0.00     0.017 A 
HETATM   14  C   UNL     1      50.846 -32.836   3.657  1.00  0.00     0.016 A 
HETATM   15  C   UNL     1      51.543 -33.511   4.662  1.00  0.00     0.001 A 
HETATM   16  C   UNL     1      52.040 -32.808   5.757  1.00  0.00     0.000 A 
HETATM   17  C   UNL     1      51.844 -31.432   5.848  1.00  0.00     0.001 A 
HETATM   18  C   UNL     1      51.148 -30.757   4.840  1.00  0.00     0.016 A 
ENDBRANCH   8  13
ENDBRANCH   1   5
BRANCH   2  19
HETATM   19  C   UNL     1      45.243 -28.925  -0.111  1.00  0.00     0.161 C 
BRANCH  19  20
HETATM   20  C   UNL     1      44.920 -29.158  -1.563  1.00  0.00    -0.040 A 
HETATM   21  C   UNL     1      45.390 -28.263  -2.532  1.00  0.00     0.011 A 
HETATM   22  C   UNL     1      45.169 -28.495  -3.895  1.00  0.00     0.030 A 
HETATM   23  C   UNL     1      44.481 -29.631  -4.317  1.00  0.00     0.035 A 
HETATM   24  C   UNL     1      44.003 -30.526  -3.352  1.00  0.00     0.030 A 
HETATM   25  C   UNL     1      44.230 -30.300  -1.989  1.00  0.00     0.011 A 
BRANCH  23  26
HETATM   26  N   UNL     1      44.233 -29.936  -5.669  1.00  0.00    -0.314 N 
HETATM   27  C   UNL     1      44.634 -31.048  -6.360  1.00  0.00     0.296 C 
HETATM   28  N   UNL     1      44.271 -30.985  -7.675  1.00  0.00    -0.254 NA
HETATM   29  O   UNL     1      45.230 -32.031  -5.946  1.00  0.00    -0.254 OA
HETATM   30  H   UNL     1      44.380 -30.091  -8.132  1.00  0.00     0.128 HD
HETATM   31  H   UNL     1      44.638 -31.766  -8.207  1.00  0.00     0.128 HD
HETATM   32  H   UNL     1      43.569 -29.351  -6.154  1.00  0.00     0.170 HD
ENDBRANCH  23  26
ENDBRANCH  19  20
ENDBRANCH   2  19
TORSDOF 6
ENDMDL
