MODEL 1
REMARK VINA RESULT:      -8.4      0.000      0.000
REMARK  3 active torsions:
REMARK  status: ('A' for Active; 'I' for Inactive)
REMARK    1  A    between atoms: C_11  and  N_12 
REMARK       I    between atoms: N_12  and  C_13 
REMARK    2  A    between atoms: C_13  and  C_14 
REMARK    3  A    between atoms: C_18  and  C_19 
ROOT
HETATM    1  N   UNL     1      41.658 -13.060   2.086  1.00  0.00    -0.351 N 
HETATM    2  C   UNL     1      42.835 -13.163   2.813  1.00  0.00     0.272 C 
HETATM    3  O   UNL     1      43.620 -12.235   2.966  1.00  0.00    -0.266 OA
HETATM    4  H   UNL     1      41.280 -13.989   1.890  1.00  0.00     0.163 HD
ENDROOT
BRANCH   1   5
HETATM    5  C   UNL     1      41.358 -11.941   1.218  1.00  0.00     0.089 C 
HETATM    6  C   UNL     1      40.150 -11.097   1.648  1.00  0.00     0.063 C 
HETATM    7  C   UNL     1      38.787 -11.771   1.457  1.00  0.00     0.121 C 
HETATM    8  N   UNL     1      38.691 -12.329   0.050  1.00  0.00    -0.059 N 
HETATM    9  C   UNL     1      38.472 -12.862   2.485  1.00  0.00     0.046 C 
HETATM   10  C   UNL     1      37.678 -10.703   1.565  1.00  0.00     0.046 C 
HETATM   11  C   UNL     1      39.851 -13.091  -0.554  1.00  0.00     0.121 C 
HETATM   12  H   UNL     1      38.494 -11.532  -0.572  1.00  0.00     0.279 HD
HETATM   13  H   UNL     1      37.843 -12.911  -0.012  1.00  0.00     0.279 HD
HETATM   14  C   UNL     1      39.809 -14.557  -0.109  1.00  0.00     0.046 C 
HETATM   15  C   UNL     1      39.624 -13.070  -2.081  1.00  0.00     0.046 C 
HETATM   16  C   UNL     1      41.180 -12.383  -0.237  1.00  0.00     0.063 C 
ENDBRANCH   1   5
BRANCH   2  17
HETATM   17  C   UNL     1      43.030 -14.502   3.384  1.00  0.00     0.146 A 
HETATM   18  N   UNL     1      43.100 -14.690   4.718  1.00  0.00    -0.169 NA
HETATM   19  N   UNL     1      43.289 -16.020   4.840  1.00  0.00    -0.277 N 
HETATM   20  H   UNL     1      43.401 -16.408   5.770  1.00  0.00     0.189 HD
HETATM   21  C   UNL     1      43.324 -16.701   3.650  1.00  0.00     0.063 A 
HETATM   22  C   UNL     1      43.168 -15.725   2.686  1.00  0.00     0.071 A 
BRANCH  21  23
HETATM   23  C   UNL     1      43.515 -18.149   3.544  1.00  0.00    -0.008 A 
HETATM   24  C   UNL     1      43.222 -18.841   2.360  1.00  0.00     0.014 A 
HETATM   25  C   UNL     1      43.409 -20.224   2.275  1.00  0.00     0.001 A 
HETATM   26  C   UNL     1      43.894 -20.932   3.371  1.00  0.00     0.000 A 
HETATM   27  C   UNL     1      44.194 -20.259   4.552  1.00  0.00     0.001 A 
HETATM   28  C   UNL     1      44.007 -18.877   4.637  1.00  0.00     0.014 A 
ENDBRANCH  21  23
ENDBRANCH   2  17
TORSDOF 3
ENDMDL
MODEL 2
REMARK VINA RESULT:      -8.4      2.950      4.566
REMARK  3 active torsions:
REMARK  status: ('A' for Active; 'I' for Inactive)
REMARK    1  A    between atoms: C_11  and  N_12 
REMARK       I    between atoms: N_12  and  C_13 
REMARK    2  A    between atoms: C_13  and  C_14 
REMARK    3  A    between atoms: C_18  and  C_19 
ROOT
HETATM    1  N   UNL     1      43.191 -13.048   3.717  1.00  0.00    -0.351 N 
HETATM    2  C   UNL     1      42.752 -13.665   2.555  1.00  0.00     0.272 C 
HETATM    3  O   UNL     1      42.220 -13.064   1.630  1.00  0.00    -0.266 OA
HETATM    4  H   UNL     1      43.384 -13.747   4.438  1.00  0.00     0.163 HD
ENDROOT
BRANCH   1   5
HETATM    5  C   UNL     1      42.836 -11.692   4.077  1.00  0.00     0.089 C 
HETATM    6  C   UNL     1      43.661 -11.092   5.225  1.00  0.00     0.063 C 
HETATM    7  C   UNL     1      43.361 -11.671   6.612  1.00  0.00     0.121 C 
HETATM    8  N   UNL     1      41.864 -11.666   6.849  1.00  0.00    -0.059 N 
HETATM    9  C   UNL     1      43.933 -13.073   6.848  1.00  0.00     0.046 C 
HETATM   10  C   UNL     1      43.964 -10.742   7.686  1.00  0.00     0.046 C 
HETATM   11  C   UNL     1      40.913 -12.125   5.765  1.00  0.00     0.121 C 
HETATM   12  H   UNL     1      41.606 -10.698   7.090  1.00  0.00     0.279 HD
HETATM   13  H   UNL     1      41.669 -12.198   7.710  1.00  0.00     0.279 HD
HETATM   14  C   UNL     1      40.781 -13.652   5.792  1.00  0.00     0.046 C 
HETATM   15  C   UNL     1      39.533 -11.540   6.135  1.00  0.00     0.046 C 
HETATM   16  C   UNL     1      41.345 -11.562   4.400  1.00  0.00     0.063 C 
ENDBRANCH   1   5
BRANCH   2  17
HETATM   17  C   UNL     1      43.005 -15.111   2.553  1.00  0.00     0.146 A 
HETATM   18  N   UNL     1      43.133 -15.797   1.398  1.00  0.00    -0.169 NA
HETATM   19  N   UNL     1      43.341 -17.065   1.806  1.00  0.00    -0.277 N 
HETATM   20  H   UNL     1      43.442 -17.789   1.102  1.00  0.00     0.189 HD
HETATM   21  C   UNL     1      43.376 -17.227   3.168  1.00  0.00     0.063 A 
HETATM   22  C   UNL     1      43.146 -15.963   3.673  1.00  0.00     0.071 A 
BRANCH  21  23
HETATM   23  C   UNL     1      43.592 -18.514   3.832  1.00  0.00    -0.008 A 
HETATM   24  C   UNL     1      43.655 -18.615   5.230  1.00  0.00     0.014 A 
HETATM   25  C   UNL     1      43.863 -19.852   5.848  1.00  0.00     0.001 A 
HETATM   26  C   UNL     1      44.007 -21.002   5.079  1.00  0.00     0.000 A 
HETATM   27  C   UNL     1      43.942 -20.920   3.691  1.00  0.00     0.001 A 
HETATM   28  C   UNL     1      43.734 -19.684   3.072  1.00  0.00     0.014 A 
ENDBRANCH  21  23
ENDBRANCH   2  17
TORSDOF 3
ENDMDL
MODEL 3
REMARK VINA RESULT:      -8.2      2.081      3.052
REMARK  3 active torsions:
REMARK  status: ('A' for Active; 'I' for Inactive)
REMARK    1  A    between atoms: C_11  and  N_12 
REMARK       I    between atoms: N_12  and  C_13 
REMARK    2  A    between atoms: C_13  and  C_14 
REMARK    3  A    between atoms: C_18  and  C_19 
ROOT
HETATM    1  N   UNL     1      39.975 -12.820   0.215  1.00  0.00    -0.351 N 
HETATM    2  C   UNL     1      39.963 -13.281   1.523  1.00  0.00     0.272 C 
HETATM    3  O   UNL     1      39.084 -13.006   2.330  1.00  0.00    -0.266 OA
HETATM    4  H   UNL     1      40.895 -12.969  -0.205  1.00  0.00     0.163 HD
ENDROOT
BRANCH   1   5
HETATM    5  C   UNL     1      39.107 -11.763  -0.260  1.00  0.00     0.089 C 
HETATM    6  C   UNL     1      37.826 -12.244  -0.956  1.00  0.00     0.063 C 
HETATM    7  C   UNL     1      38.033 -12.866  -2.340  1.00  0.00     0.121 C 
HETATM    8  N   UNL     1      38.895 -11.947  -3.184  1.00  0.00    -0.059 N 
HETATM    9  C   UNL     1      38.627 -14.279  -2.316  1.00  0.00     0.046 C 
HETATM   10  C   UNL     1      36.673 -12.953  -3.063  1.00  0.00     0.046 C 
HETATM   11  C   UNL     1      40.135 -11.306  -2.598  1.00  0.00     0.121 C 
HETATM   12  H   UNL     1      38.283 -11.185  -3.510  1.00  0.00     0.279 HD
HETATM   13  H   UNL     1      39.155 -12.446  -4.047  1.00  0.00     0.279 HD
HETATM   14  C   UNL     1      41.319 -12.276  -2.679  1.00  0.00     0.046 C 
HETATM   15  C   UNL     1      40.463 -10.106  -3.513  1.00  0.00     0.046 C 
HETATM   16  C   UNL     1      39.850 -10.788  -1.178  1.00  0.00     0.063 C 
ENDBRANCH   1   5
BRANCH   2  17
HETATM   17  C   UNL     1      41.113 -14.141   1.828  1.00  0.00     0.146 A 
HETATM   18  N   UNL     1      42.378 -13.721   1.614  1.00  0.00    -0.169 NA
HETATM   19  N   UNL     1      43.129 -14.772   2.000  1.00  0.00    -0.277 N 
HETATM   20  H   UNL     1      44.137 -14.705   1.905  1.00  0.00     0.189 HD
HETATM   21  C   UNL     1      42.412 -15.842   2.473  1.00  0.00     0.063 A 
HETATM   22  C   UNL     1      41.092 -15.453   2.358  1.00  0.00     0.071 A 
BRANCH  21  23
HETATM   23  C   UNL     1      43.021 -17.086   2.948  1.00  0.00    -0.008 A 
HETATM   24  C   UNL     1      42.935 -18.273   2.206  1.00  0.00     0.014 A 
HETATM   25  C   UNL     1      43.521 -19.453   2.674  1.00  0.00     0.001 A 
HETATM   26  C   UNL     1      44.202 -19.461   3.888  1.00  0.00     0.000 A 
HETATM   27  C   UNL     1      44.300 -18.290   4.634  1.00  0.00     0.001 A 
HETATM   28  C   UNL     1      43.715 -17.111   4.167  1.00  0.00     0.014 A 
ENDBRANCH  21  23
ENDBRANCH   2  17
TORSDOF 3
ENDMDL
MODEL 4
REMARK VINA RESULT:      -8.1      2.685      3.444
REMARK  3 active torsions:
REMARK  status: ('A' for Active; 'I' for Inactive)
REMARK    1  A    between atoms: C_11  and  N_12 
REMARK       I    between atoms: N_12  and  C_13 
REMARK    2  A    between atoms: C_13  and  C_14 
REMARK    3  A    between atoms: C_18  and  C_19 
ROOT
HETATM    1  N   UNL     1      42.625 -13.059   5.621  1.00  0.00    -0.351 N 
HETATM    2  C   UNL     1      43.413 -13.668   6.586  1.00  0.00     0.272 C 
HETATM    3  O   UNL     1      43.960 -13.059   7.497  1.00  0.00    -0.266 OA
HETATM    4  H   UNL     1      42.465 -13.698   4.839  1.00  0.00     0.163 HD
ENDROOT
BRANCH   1   5
HETATM    5  C   UNL     1      42.576 -11.625   5.426  1.00  0.00     0.089 C 
HETATM    6  C   UNL     1      41.301 -10.947   5.946  1.00  0.00     0.063 C 
HETATM    7  C   UNL     1      40.037 -11.226   5.126  1.00  0.00     0.121 C 
HETATM    8  N   UNL     1      40.322 -10.980   3.657  1.00  0.00    -0.059 N 
HETATM    9  C   UNL     1      39.450 -12.627   5.327  1.00  0.00     0.046 C 
HETATM   10  C   UNL     1      38.945 -10.210   5.522  1.00  0.00     0.046 C 
HETATM   11  C   UNL     1      41.598 -11.494   3.026  1.00  0.00     0.121 C 
HETATM   12  H   UNL     1      40.304  -9.959   3.520  1.00  0.00     0.279 HD
HETATM   13  H   UNL     1      39.519 -11.320   3.109  1.00  0.00     0.279 HD
HETATM   14  C   UNL     1      41.429 -12.961   2.614  1.00  0.00     0.046 C 
HETATM   15  C   UNL     1      41.792 -10.674   1.732  1.00  0.00     0.046 C 
HETATM   16  C   UNL     1      42.795 -11.244   3.960  1.00  0.00     0.063 C 
ENDBRANCH   1   5
BRANCH   2  17
HETATM   17  C   UNL     1      43.511 -15.121   6.400  1.00  0.00     0.146 A 
HETATM   18  N   UNL     1      43.582 -15.958   7.457  1.00  0.00    -0.169 NA
HETATM   19  N   UNL     1      43.669 -17.178   6.887  1.00  0.00    -0.277 N 
HETATM   20  H   UNL     1      43.762 -17.987   7.492  1.00  0.00     0.189 HD
HETATM   21  C   UNL     1      43.635 -17.170   5.516  1.00  0.00     0.063 A 
HETATM   22  C   UNL     1      43.544 -15.834   5.179  1.00  0.00     0.071 A 
BRANCH  21  23
HETATM   23  C   UNL     1      43.712 -18.377   4.691  1.00  0.00    -0.008 A 
HETATM   24  C   UNL     1      43.956 -19.636   5.258  1.00  0.00     0.014 A 
HETATM   25  C   UNL     1      44.027 -20.779   4.456  1.00  0.00     0.001 A 
HETATM   26  C   UNL     1      43.853 -20.679   3.079  1.00  0.00     0.000 A 
HETATM   27  C   UNL     1      43.605 -19.437   2.501  1.00  0.00     0.001 A 
HETATM   28  C   UNL     1      43.534 -18.294   3.302  1.00  0.00     0.014 A 
ENDBRANCH  21  23
ENDBRANCH   2  17
TORSDOF 3
ENDMDL
MODEL 5
REMARK VINA RESULT:      -7.8      5.625      7.851
REMARK  3 active torsions:
REMARK  status: ('A' for Active; 'I' for Inactive)
REMARK    1  A    between atoms: C_11  and  N_12 
REMARK       I    between atoms: N_12  and  C_13 
REMARK    2  A    between atoms: C_13  and  C_14 
REMARK    3  A    between atoms: C_18  and  C_19 
ROOT
HETATM    1  N   UNL     1      43.071 -12.256   5.107  1.00  0.00    -0.351 N 
HETATM    2  C   UNL     1      44.253 -11.544   5.245  1.00  0.00     0.272 C 
HETATM    3  O   UNL     1      45.009 -11.299   4.313  1.00  0.00    -0.266 OA
HETATM    4  H   UNL     1      42.721 -12.544   6.023  1.00  0.00     0.163 HD
ENDROOT
BRANCH   1   5
HETATM    5  C   UNL     1      42.733 -13.007   3.916  1.00  0.00     0.089 C 
HETATM    6  C   UNL     1      41.534 -12.462   3.128  1.00  0.00     0.063 C 
HETATM    7  C   UNL     1      40.170 -12.669   3.796  1.00  0.00     0.121 C 
HETATM    8  N   UNL     1      40.031 -14.117   4.224  1.00  0.00    -0.059 N 
HETATM    9  C   UNL     1      39.898 -11.735   4.980  1.00  0.00     0.046 C 
HETATM   10  C   UNL     1      39.057 -12.426   2.755  1.00  0.00     0.046 C 
HETATM   11  C   UNL     1      41.175 -14.826   4.915  1.00  0.00     0.121 C 
HETATM   12  H   UNL     1      39.807 -14.656   3.376  1.00  0.00     0.279 HD
HETATM   13  H   UNL     1      39.185 -14.204   4.807  1.00  0.00     0.279 HD
HETATM   14  C   UNL     1      41.159 -14.516   6.416  1.00  0.00     0.046 C 
HETATM   15  C   UNL     1      40.896 -16.336   4.757  1.00  0.00     0.046 C 
HETATM   16  C   UNL     1      42.508 -14.490   4.225  1.00  0.00     0.063 C 
ENDBRANCH   1   5
BRANCH   2  17
HETATM   17  C   UNL     1      44.492 -11.111   6.627  1.00  0.00     0.146 A 
HETATM   18  N   UNL     1      45.733 -11.116   7.158  1.00  0.00    -0.169 NA
HETATM   19  N   UNL     1      45.540 -10.671   8.416  1.00  0.00    -0.277 N 
HETATM   20  H   UNL     1      46.342 -10.613   9.035  1.00  0.00     0.189 HD
HETATM   21  C   UNL     1      44.239 -10.357   8.716  1.00  0.00     0.063 A 
HETATM   22  C   UNL     1      43.537 -10.649   7.564  1.00  0.00     0.071 A 
BRANCH  21  23
HETATM   23  C   UNL     1      43.801  -9.853  10.019  1.00  0.00    -0.008 A 
HETATM   24  C   UNL     1      43.602  -8.483  10.244  1.00  0.00     0.014 A 
HETATM   25  C   UNL     1      43.185  -8.018  11.495  1.00  0.00     0.001 A 
HETATM   26  C   UNL     1      42.957  -8.915  12.534  1.00  0.00     0.000 A 
HETATM   27  C   UNL     1      43.145 -10.279  12.325  1.00  0.00     0.001 A 
HETATM   28  C   UNL     1      43.563 -10.744  11.076  1.00  0.00     0.014 A 
ENDBRANCH  21  23
ENDBRANCH   2  17
TORSDOF 3
ENDMDL
MODEL 6
REMARK VINA RESULT:      -7.8      4.408      6.944
REMARK  3 active torsions:
REMARK  status: ('A' for Active; 'I' for Inactive)
REMARK    1  A    between atoms: C_11  and  N_12 
REMARK       I    between atoms: N_12  and  C_13 
REMARK    2  A    between atoms: C_13  and  C_14 
REMARK    3  A    between atoms: C_18  and  C_19 
ROOT
HETATM    1  N   UNL     1      42.688 -13.371   3.403  1.00  0.00    -0.351 N 
HETATM    2  C   UNL     1      42.782 -11.994   3.538  1.00  0.00     0.272 C 
HETATM    3  O   UNL     1      42.930 -11.229   2.593  1.00  0.00    -0.266 OA
HETATM    4  H   UNL     1      42.803 -13.825   4.311  1.00  0.00     0.163 HD
ENDROOT
BRANCH   1   5
HETATM    5  C   UNL     1      43.014 -14.071   2.178  1.00  0.00     0.089 C 
HETATM    6  C   UNL     1      41.938 -13.994   1.085  1.00  0.00     0.063 C 
HETATM    7  C   UNL     1      40.672 -14.811   1.362  1.00  0.00     0.121 C 
HETATM    8  N   UNL     1      41.058 -16.222   1.761  1.00  0.00    -0.059 N 
HETATM    9  C   UNL     1      39.740 -14.197   2.411  1.00  0.00     0.046 C 
HETATM   10  C   UNL     1      39.865 -14.947   0.054  1.00  0.00     0.046 C 
HETATM   11  C   UNL     1      42.180 -16.461   2.748  1.00  0.00     0.121 C 
HETATM   12  H   UNL     1      41.306 -16.718   0.893  1.00  0.00     0.279 HD
HETATM   13  H   UNL     1      40.213 -16.709   2.094  1.00  0.00     0.279 HD
HETATM   14  C   UNL     1      41.655 -16.338   4.183  1.00  0.00     0.046 C 
HETATM   15  C   UNL     1      42.618 -17.927   2.546  1.00  0.00     0.046 C 
HETATM   16  C   UNL     1      43.370 -15.537   2.440  1.00  0.00     0.063 C 
ENDBRANCH   1   5
BRANCH   2  17
HETATM   17  C   UNL     1      42.677 -11.556   4.936  1.00  0.00     0.146 A 
HETATM   18  N   UNL     1      41.484 -11.502   5.564  1.00  0.00    -0.169 NA
HETATM   19  N   UNL     1      41.797 -11.054   6.797  1.00  0.00    -0.277 N 
HETATM   20  H   UNL     1      41.045 -10.902   7.460  1.00  0.00     0.189 HD
HETATM   21  C   UNL     1      43.136 -10.837   7.001  1.00  0.00     0.063 A 
HETATM   22  C   UNL     1      43.726 -11.148   5.792  1.00  0.00     0.071 A 
BRANCH  21  23
HETATM   23  C   UNL     1      43.701 -10.355   8.263  1.00  0.00    -0.008 A 
HETATM   24  C   UNL     1      42.895  -9.769   9.250  1.00  0.00     0.014 A 
HETATM   25  C   UNL     1      43.451  -9.313  10.449  1.00  0.00     0.001 A 
HETATM   26  C   UNL     1      44.817  -9.439  10.678  1.00  0.00     0.000 A 
HETATM   27  C   UNL     1      45.631 -10.023   9.711  1.00  0.00     0.001 A 
HETATM   28  C   UNL     1      45.076 -10.478   8.512  1.00  0.00     0.014 A 
ENDBRANCH  21  23
ENDBRANCH   2  17
TORSDOF 3
ENDMDL
MODEL 7
REMARK VINA RESULT:      -7.7      2.153      3.281
REMARK  3 active torsions:
REMARK  status: ('A' for Active; 'I' for Inactive)
REMARK    1  A    between atoms: C_11  and  N_12 
REMARK       I    between atoms: N_12  and  C_13 
REMARK    2  A    between atoms: C_13  and  C_14 
REMARK    3  A    between atoms: C_18  and  C_19 
ROOT
HETATM    1  N   UNL     1      38.700 -12.605   1.872  1.00  0.00    -0.351 N 
HETATM    2  C   UNL     1      39.302 -13.075   3.030  1.00  0.00     0.272 C 
HETATM    3  O   UNL     1      39.199 -12.523   4.118  1.00  0.00    -0.266 OA
HETATM    4  H   UNL     1      39.098 -13.069   1.053  1.00  0.00     0.163 HD
ENDROOT
BRANCH   1   5
HETATM    5  C   UNL     1      38.112 -11.287   1.764  1.00  0.00     0.089 C 
HETATM    6  C   UNL     1      37.097 -11.125   0.623  1.00  0.00     0.063 C 
HETATM    7  C   UNL     1      37.700 -11.108  -0.785  1.00  0.00     0.121 C 
HETATM    8  N   UNL     1      38.853 -10.124  -0.830  1.00  0.00    -0.059 N 
HETATM    9  C   UNL     1      38.151 -12.480  -1.296  1.00  0.00     0.046 C 
HETATM   10  C   UNL     1      36.646 -10.572  -1.777  1.00  0.00     0.046 C 
HETATM   11  C   UNL     1      39.876 -10.089   0.285  1.00  0.00     0.121 C 
HETATM   12  H   UNL     1      38.437  -9.184  -0.891  1.00  0.00     0.279 HD
HETATM   13  H   UNL     1      39.343 -10.239  -1.729  1.00  0.00     0.279 HD
HETATM   14  C   UNL     1      40.949 -11.158   0.049  1.00  0.00     0.046 C 
HETATM   15  C   UNL     1      40.569  -8.713   0.181  1.00  0.00     0.046 C 
HETATM   16  C   UNL     1      39.181 -10.196   1.653  1.00  0.00     0.063 C 
ENDBRANCH   1   5
BRANCH   2  17
HETATM   17  C   UNL     1      40.066 -14.310   2.808  1.00  0.00     0.146 A 
HETATM   18  N   UNL     1      39.818 -15.105   1.746  1.00  0.00    -0.169 NA
HETATM   19  N   UNL     1      40.697 -16.116   1.897  1.00  0.00    -0.277 N 
HETATM   20  H   UNL     1      40.684 -16.871   1.220  1.00  0.00     0.189 HD
HETATM   21  C   UNL     1      41.514 -16.001   2.993  1.00  0.00     0.063 A 
HETATM   22  C   UNL     1      41.109 -14.833   3.607  1.00  0.00     0.071 A 
BRANCH  21  23
HETATM   23  C   UNL     1      42.543 -16.980   3.350  1.00  0.00    -0.008 A 
HETATM   24  C   UNL     1      43.201 -16.932   4.587  1.00  0.00     0.014 A 
HETATM   25  C   UNL     1      44.182 -17.874   4.912  1.00  0.00     0.001 A 
HETATM   26  C   UNL     1      44.515 -18.876   4.006  1.00  0.00     0.000 A 
HETATM   27  C   UNL     1      43.868 -18.940   2.776  1.00  0.00     0.001 A 
HETATM   28  C   UNL     1      42.888 -17.999   2.450  1.00  0.00     0.014 A 
ENDBRANCH  21  23
ENDBRANCH   2  17
TORSDOF 3
ENDMDL
MODEL 8
REMARK VINA RESULT:      -7.5      7.624      9.354
REMARK  3 active torsions:
REMARK  status: ('A' for Active; 'I' for Inactive)
REMARK    1  A    between atoms: C_11  and  N_12 
REMARK       I    between atoms: N_12  and  C_13 
REMARK    2  A    between atoms: C_13  and  C_14 
REMARK    3  A    between atoms: C_18  and  C_19 
ROOT
HETATM    1  N   UNL     1      43.694  -8.739   9.937  1.00  0.00    -0.351 N 
HETATM    2  C   UNL     1      44.488  -8.535   8.819  1.00  0.00     0.272 C 
HETATM    3  O   UNL     1      45.003  -7.459   8.541  1.00  0.00    -0.266 OA
HETATM    4  H   UNL     1      43.186  -9.622   9.855  1.00  0.00     0.163 HD
ENDROOT
BRANCH   1   5
HETATM    5  C   UNL     1      43.173  -7.659  10.748  1.00  0.00     0.089 C 
HETATM    6  C   UNL     1      43.215  -7.909  12.262  1.00  0.00     0.063 C 
HETATM    7  C   UNL     1      42.210  -8.945  12.776  1.00  0.00     0.121 C 
HETATM    8  N   UNL     1      40.831  -8.625  12.233  1.00  0.00    -0.059 N 
HETATM    9  C   UNL     1      42.582 -10.398  12.461  1.00  0.00     0.046 C 
HETATM   10  C   UNL     1      42.100  -8.822  14.311  1.00  0.00     0.046 C 
HETATM   11  C   UNL     1      40.647  -8.249  10.778  1.00  0.00     0.121 C 
HETATM   12  H   UNL     1      40.464  -7.845  12.798  1.00  0.00     0.279 HD
HETATM   13  H   UNL     1      40.203  -9.412  12.456  1.00  0.00     0.279 HD
HETATM   14  C   UNL     1      40.551  -9.513   9.915  1.00  0.00     0.046 C 
HETATM   15  C   UNL     1      39.281  -7.533  10.695  1.00  0.00     0.046 C 
HETATM   16  C   UNL     1      41.750  -7.274  10.334  1.00  0.00     0.063 C 
ENDBRANCH   1   5
BRANCH   2  17
HETATM   17  C   UNL     1      44.650  -9.751   8.012  1.00  0.00     0.146 A 
HETATM   18  N   UNL     1      45.870 -10.168   7.613  1.00  0.00    -0.169 NA
HETATM   19  N   UNL     1      45.605 -11.284   6.904  1.00  0.00    -0.277 N 
HETATM   20  H   UNL     1      46.379 -11.774   6.468  1.00  0.00     0.189 HD
HETATM   21  C   UNL     1      44.276 -11.619   6.844  1.00  0.00     0.063 A 
HETATM   22  C   UNL     1      43.635 -10.622   7.553  1.00  0.00     0.071 A 
BRANCH  21  23
HETATM   23  C   UNL     1      43.761 -12.790   6.132  1.00  0.00    -0.008 A 
HETATM   24  C   UNL     1      43.258 -12.690   4.826  1.00  0.00     0.014 A 
HETATM   25  C   UNL     1      42.769 -13.818   4.161  1.00  0.00     0.001 A 
HETATM   26  C   UNL     1      42.778 -15.060   4.790  1.00  0.00     0.000 A 
HETATM   27  C   UNL     1      43.278 -15.176   6.084  1.00  0.00     0.001 A 
HETATM   28  C   UNL     1      43.767 -14.049   6.750  1.00  0.00     0.014 A 
ENDBRANCH  21  23
ENDBRANCH   2  17
TORSDOF 3
ENDMDL
MODEL 9
REMARK VINA RESULT:      -7.3      2.502      3.780
REMARK  3 active torsions:
REMARK  status: ('A' for Active; 'I' for Inactive)
REMARK    1  A    between atoms: C_11  and  N_12 
REMARK       I    between atoms: N_12  and  C_13 
REMARK    2  A    between atoms: C_13  and  C_14 
REMARK    3  A    between atoms: C_18  and  C_19 
ROOT
HETATM    1  N   UNL     1      40.620 -13.381  -0.667  1.00  0.00    -0.351 N 
HETATM    2  C   UNL     1      40.059 -14.585  -0.267  1.00  0.00     0.272 C 
HETATM    3  O   UNL     1      39.327 -15.260  -0.979  1.00  0.00    -0.266 OA
HETATM    4  H   UNL     1      40.995 -12.879   0.140  1.00  0.00     0.163 HD
ENDROOT
BRANCH   1   5
HETATM    5  C   UNL     1      40.198 -12.666  -1.853  1.00  0.00     0.089 C 
HETATM    6  C   UNL     1      41.035 -11.424  -2.189  1.00  0.00     0.063 C 
HETATM    7  C   UNL     1      40.834 -10.231  -1.248  1.00  0.00     0.121 C 
HETATM    8  N   UNL     1      39.351  -9.960  -1.084  1.00  0.00    -0.059 N 
HETATM    9  C   UNL     1      41.501 -10.388   0.122  1.00  0.00     0.046 C 
HETATM   10  C   UNL     1      41.426  -8.966  -1.905  1.00  0.00     0.046 C 
HETATM   11  C   UNL     1      38.383 -11.102  -0.858  1.00  0.00     0.121 C 
HETATM   12  H   UNL     1      39.045  -9.466  -1.935  1.00  0.00     0.279 HD
HETATM   13  H   UNL     1      39.228  -9.266  -0.333  1.00  0.00     0.279 HD
HETATM   14  C   UNL     1      38.346 -11.475   0.629  1.00  0.00     0.046 C 
HETATM   15  C   UNL     1      36.987 -10.553  -1.226  1.00  0.00     0.046 C 
HETATM   16  C   UNL     1      38.718 -12.281  -1.787  1.00  0.00     0.063 C 
ENDBRANCH   1   5
BRANCH   2  17
HETATM   17  C   UNL     1      40.447 -14.962   1.098  1.00  0.00     0.146 A 
HETATM   18  N   UNL     1      39.563 -14.912   2.116  1.00  0.00    -0.169 NA
HETATM   19  N   UNL     1      40.285 -15.314   3.181  1.00  0.00    -0.277 N 
HETATM   20  H   UNL     1      39.834 -15.334   4.090  1.00  0.00     0.189 HD
HETATM   21  C   UNL     1      41.587 -15.641   2.897  1.00  0.00     0.063 A 
HETATM   22  C   UNL     1      41.715 -15.406   1.542  1.00  0.00     0.071 A 
BRANCH  21  23
HETATM   23  C   UNL     1      42.549 -16.105   3.898  1.00  0.00    -0.008 A 
HETATM   24  C   UNL     1      43.220 -17.328   3.757  1.00  0.00     0.014 A 
HETATM   25  C   UNL     1      44.135 -17.757   4.722  1.00  0.00     0.001 A 
HETATM   26  C   UNL     1      44.395 -16.968   5.839  1.00  0.00     0.000 A 
HETATM   27  C   UNL     1      43.741 -15.748   5.991  1.00  0.00     0.001 A 
HETATM   28  C   UNL     1      42.825 -15.319   5.027  1.00  0.00     0.014 A 
ENDBRANCH  21  23
ENDBRANCH   2  17
TORSDOF 3
ENDMDL
MODEL 10
REMARK VINA RESULT:      -7.3      2.800      8.027
REMARK  3 active torsions:
REMARK  status: ('A' for Active; 'I' for Inactive)
REMARK    1  A    between atoms: C_11  and  N_12 
REMARK       I    between atoms: N_12  and  C_13 
REMARK    2  A    between atoms: C_13  and  C_14 
REMARK    3  A    between atoms: C_18  and  C_19 
ROOT
HETATM    1  N   UNL     1      40.692 -14.263   1.921  1.00  0.00    -0.351 N 
HETATM    2  C   UNL     1      39.776 -13.228   1.805  1.00  0.00     0.272 C 
HETATM    3  O   UNL     1      38.909 -12.994   2.638  1.00  0.00    -0.266 OA
HETATM    4  H   UNL     1      41.161 -14.423   1.027  1.00  0.00     0.163 HD
ENDROOT
BRANCH   1   5
HETATM    5  C   UNL     1      40.563 -15.330   2.891  1.00  0.00     0.089 C 
HETATM    6  C   UNL     1      40.963 -14.951   4.324  1.00  0.00     0.063 C 
HETATM    7  C   UNL     1      42.466 -14.759   4.549  1.00  0.00     0.121 C 
HETATM    8  N   UNL     1      43.218 -15.948   3.984  1.00  0.00    -0.059 N 
HETATM    9  C   UNL     1      43.030 -13.453   3.979  1.00  0.00     0.046 C 
HETATM   10  C   UNL     1      42.752 -14.758   6.066  1.00  0.00     0.046 C 
HETATM   11  C   UNL     1      42.860 -16.508   2.624  1.00  0.00     0.121 C 
HETATM   12  H   UNL     1      43.114 -16.714   4.665  1.00  0.00     0.279 HD
HETATM   13  H   UNL     1      44.226 -15.734   4.001  1.00  0.00     0.279 HD
HETATM   14  C   UNL     1      43.562 -15.705   1.522  1.00  0.00     0.046 C 
HETATM   15  C   UNL     1      43.439 -17.938   2.588  1.00  0.00     0.046 C 
HETATM   16  C   UNL     1      41.332 -16.582   2.462  1.00  0.00     0.063 C 
ENDBRANCH   1   5
BRANCH   2  17
HETATM   17  C   UNL     1      39.966 -12.441   0.580  1.00  0.00     0.146 A 
HETATM   18  N   UNL     1      39.304 -12.744  -0.556  1.00  0.00    -0.169 NA
HETATM   19  N   UNL     1      39.744 -11.821  -1.434  1.00  0.00    -0.277 N 
HETATM   20  H   UNL     1      39.402 -11.861  -2.389  1.00  0.00     0.189 HD
HETATM   21  C   UNL     1      40.643 -10.923  -0.915  1.00  0.00     0.063 A 
HETATM   22  C   UNL     1      40.809 -11.320   0.398  1.00  0.00     0.071 A 
BRANCH  21  23
HETATM   23  C   UNL     1      41.248  -9.836  -1.685  1.00  0.00    -0.008 A 
HETATM   24  C   UNL     1      40.861  -9.571  -3.007  1.00  0.00     0.014 A 
HETATM   25  C   UNL     1      41.450  -8.529  -3.729  1.00  0.00     0.001 A 
HETATM   26  C   UNL     1      42.430  -7.737  -3.140  1.00  0.00     0.000 A 
HETATM   27  C   UNL     1      42.822  -7.983  -1.827  1.00  0.00     0.001 A 
HETATM   28  C   UNL     1      42.234  -9.024  -1.105  1.00  0.00     0.014 A 
ENDBRANCH  21  23
ENDBRANCH   2  17
TORSDOF 3
ENDMDL
