MODEL 1
REMARK VINA RESULT:     -10.0      0.000      0.000
REMARK  8 active torsions:
REMARK  status: ('A' for Active; 'I' for Inactive)
REMARK    1  A    between atoms: C_4  and  C_5 
REMARK    2  A    between atoms: C_5  and  N_6 
REMARK    3  A    between atoms: C_5  and  C_33 
REMARK    4  A    between atoms: N_10  and  C_11 
REMARK    5  A    between atoms: C_13  and  N_14 
REMARK    6  A    between atoms: N_14  and  C_15 
REMARK    7  A    between atoms: C_22  and  N_23 
REMARK    8  A    between atoms: N_23  and  C_24 
ROOT
HETATM    1  C   UNL     1      43.221 -13.165   7.090  1.00  0.00     0.756 A 
HETATM    2  N   UNL     1      43.930 -12.575   8.005  1.00  0.00     0.131 NA
HETATM    3  C   UNL     1      44.182 -11.239   7.877  1.00  0.00     0.757 A 
HETATM    4  N   UNL     1      43.679 -10.602   6.787  1.00  0.00    -0.016 N 
HETATM    5  C   UNL     1      42.883 -11.237   5.900  1.00  0.00     0.735 A 
HETATM    6  N   UNL     1      42.622 -12.500   6.048  1.00  0.00     0.129 NA
HETATM    7  H   UNL     1      43.747  -9.598   6.773  1.00  0.00     0.203 HD
ENDROOT
BRANCH   1   8
HETATM    8  N   UNL     1      43.004 -14.535   7.171  1.00  0.00    -0.210 N 
HETATM    9  C   UNL     1      44.129 -15.450   6.940  1.00  0.00     0.169 C 
HETATM   10  C   UNL     1      44.288 -15.681   5.424  1.00  0.00     0.256 C 
HETATM   11  N   UNL     1      42.969 -16.223   4.849  1.00  0.00    -0.056 N 
HETATM   12  H   UNL     1      42.769 -17.086   5.363  1.00  0.00     0.281 HD
HETATM   13  C   UNL     1      41.792 -15.294   5.175  1.00  0.00     0.256 C 
HETATM   14  C   UNL     1      41.715 -15.072   6.703  1.00  0.00     0.169 C 
BRANCH  11  15
HETATM   15  C   UNL     1      43.101 -16.676   3.396  1.00  0.00     0.254 C 
BRANCH  15  16
HETATM   16  C   UNL     1      42.105 -16.056   2.420  1.00  0.00    -0.023 A 
HETATM   17  C   UNL     1      42.515 -14.958   1.634  1.00  0.00     0.009 A 
HETATM   18  C   UNL     1      41.633 -14.329   0.753  1.00  0.00     0.001 A 
HETATM   19  C   UNL     1      40.325 -14.785   0.632  1.00  0.00     0.000 A 
HETATM   20  C   UNL     1      39.900 -15.872   1.389  1.00  0.00     0.001 A 
HETATM   21  C   UNL     1      40.780 -16.501   2.274  1.00  0.00     0.009 A 
ENDBRANCH  15  16
BRANCH  15  22
HETATM   22  C   UNL     1      43.383 -18.174   3.293  1.00  0.00    -0.023 A 
HETATM   23  C   UNL     1      43.872 -18.845   4.436  1.00  0.00     0.009 A 
HETATM   24  C   UNL     1      44.120 -20.219   4.423  1.00  0.00     0.001 A 
HETATM   25  C   UNL     1      43.881 -20.953   3.267  1.00  0.00     0.000 A 
HETATM   26  C   UNL     1      43.402 -20.314   2.128  1.00  0.00     0.001 A 
HETATM   27  C   UNL     1      43.154 -18.939   2.139  1.00  0.00     0.009 A 
ENDBRANCH  15  22
ENDBRANCH  11  15
ENDBRANCH   1   8
BRANCH   3  28
HETATM   28  N   UNL     1      44.884 -10.731   8.838  1.00  0.00    -0.062 NA
BRANCH  28  29
HETATM   29  C   UNL     1      44.244 -10.054   9.884  1.00  0.00     0.076 A 
HETATM   30  C   UNL     1      43.989  -8.687   9.765  1.00  0.00     0.032 A 
HETATM   31  C   UNL     1      43.346  -7.994  10.793  1.00  0.00     0.002 A 
HETATM   32  C   UNL     1      42.950  -8.669  11.948  1.00  0.00     0.000 A 
HETATM   33  C   UNL     1      43.182 -10.038  12.067  1.00  0.00     0.002 A 
HETATM   34  C   UNL     1      43.815 -10.730  11.033  1.00  0.00     0.032 A 
ENDBRANCH  28  29
ENDBRANCH   3  28
BRANCH   5  35
HETATM   35  N   UNL     1      42.419 -10.432   4.893  1.00  0.00    -0.189 N 
HETATM   36  H   UNL     1      43.130  -9.989   4.324  1.00  0.00     0.184 HD
BRANCH  35  37
HETATM   37  C   UNL     1      41.201 -10.618   4.204  1.00  0.00     0.049 A 
HETATM   38  C   UNL     1      41.143 -11.269   2.964  1.00  0.00     0.030 A 
HETATM   39  C   UNL     1      39.927 -11.434   2.296  1.00  0.00     0.002 A 
HETATM   40  C   UNL     1      38.752 -10.938   2.855  1.00  0.00     0.000 A 
HETATM   41  C   UNL     1      38.793 -10.285   4.084  1.00  0.00     0.002 A 
HETATM   42  C   UNL     1      40.009 -10.130   4.756  1.00  0.00     0.030 A 
ENDBRANCH  35  37
ENDBRANCH   5  35
TORSDOF 8
ENDMDL
MODEL 2
REMARK VINA RESULT:     -10.0      0.286      4.904
REMARK  8 active torsions:
REMARK  status: ('A' for Active; 'I' for Inactive)
REMARK    1  A    between atoms: C_4  and  C_5 
REMARK    2  A    between atoms: C_5  and  N_6 
REMARK    3  A    between atoms: C_5  and  C_33 
REMARK    4  A    between atoms: N_10  and  C_11 
REMARK    5  A    between atoms: C_13  and  N_14 
REMARK    6  A    between atoms: N_14  and  C_15 
REMARK    7  A    between atoms: C_22  and  N_23 
REMARK    8  A    between atoms: N_23  and  C_24 
ROOT
HETATM    1  C   UNL     1      43.370 -13.025   6.933  1.00  0.00     0.756 A 
HETATM    2  N   UNL     1      43.046 -12.406   5.838  1.00  0.00     0.131 NA
HETATM    3  C   UNL     1      43.270 -11.061   5.756  1.00  0.00     0.757 A 
HETATM    4  N   UNL     1      43.816 -10.445   6.836  1.00  0.00    -0.016 N 
HETATM    5  C   UNL     1      44.207 -11.140   7.926  1.00  0.00     0.735 A 
HETATM    6  N   UNL     1      44.019 -12.422   7.982  1.00  0.00     0.129 NA
HETATM    7  H   UNL     1      44.108  -9.489   6.717  1.00  0.00     0.203 HD
ENDROOT
BRANCH   1   8
HETATM    8  N   UNL     1      43.093 -14.382   7.058  1.00  0.00    -0.210 N 
HETATM    9  C   UNL     1      44.176 -15.352   6.856  1.00  0.00     0.169 C 
HETATM   10  C   UNL     1      44.321 -15.639   5.349  1.00  0.00     0.256 C 
HETATM   11  N   UNL     1      42.979 -16.142   4.793  1.00  0.00    -0.056 N 
HETATM   12  H   UNL     1      42.742 -16.978   5.336  1.00  0.00     0.281 HD
HETATM   13  C   UNL     1      41.845 -15.152   5.089  1.00  0.00     0.256 C 
HETATM   14  C   UNL     1      41.781 -14.876   6.609  1.00  0.00     0.169 C 
BRANCH  11  15
HETATM   15  C   UNL     1      43.087 -16.647   3.356  1.00  0.00     0.254 C 
BRANCH  15  16
HETATM   16  C   UNL     1      42.076 -16.062   2.374  1.00  0.00    -0.023 A 
HETATM   17  C   UNL     1      42.476 -14.999   1.537  1.00  0.00     0.009 A 
HETATM   18  C   UNL     1      41.580 -14.402   0.647  1.00  0.00     0.001 A 
HETATM   19  C   UNL     1      40.269 -14.856   0.569  1.00  0.00     0.000 A 
HETATM   20  C   UNL     1      39.853 -15.910   1.377  1.00  0.00     0.001 A 
HETATM   21  C   UNL     1      40.747 -16.507   2.270  1.00  0.00     0.009 A 
ENDBRANCH  15  16
BRANCH  15  22
HETATM   22  C   UNL     1      43.368 -18.148   3.303  1.00  0.00    -0.023 A 
HETATM   23  C   UNL     1      43.844 -18.783   4.472  1.00  0.00     0.009 A 
HETATM   24  C   UNL     1      44.089 -20.157   4.504  1.00  0.00     0.001 A 
HETATM   25  C   UNL     1      43.860 -20.927   3.369  1.00  0.00     0.000 A 
HETATM   26  C   UNL     1      43.395 -20.324   2.206  1.00  0.00     0.001 A 
HETATM   27  C   UNL     1      43.149 -18.948   2.171  1.00  0.00     0.009 A 
ENDBRANCH  15  22
ENDBRANCH  11  15
ENDBRANCH   1   8
BRANCH   3  28
HETATM   28  N   UNL     1      42.930 -10.529   4.626  1.00  0.00    -0.062 NA
BRANCH  28  29
HETATM   29  C   UNL     1      41.624 -10.691   4.147  1.00  0.00     0.076 A 
HETATM   30  C   UNL     1      40.569 -10.038   4.788  1.00  0.00     0.032 A 
HETATM   31  C   UNL     1      39.260 -10.181   4.322  1.00  0.00     0.002 A 
HETATM   32  C   UNL     1      39.000 -10.976   3.206  1.00  0.00     0.000 A 
HETATM   33  C   UNL     1      40.049 -11.615   2.547  1.00  0.00     0.002 A 
HETATM   34  C   UNL     1      41.358 -11.461   3.009  1.00  0.00     0.032 A 
ENDBRANCH  28  29
ENDBRANCH   3  28
BRANCH   5  35
HETATM   35  N   UNL     1      44.788 -10.368   8.899  1.00  0.00    -0.189 N 
HETATM   36  H   UNL     1      45.572  -9.801   8.598  1.00  0.00     0.184 HD
BRANCH  35  37
HETATM   37  C   UNL     1      44.112  -9.823  10.011  1.00  0.00     0.049 A 
HETATM   38  C   UNL     1      43.757  -8.468  10.072  1.00  0.00     0.030 A 
HETATM   39  C   UNL     1      43.095  -7.948  11.187  1.00  0.00     0.002 A 
HETATM   40  C   UNL     1      42.789  -8.776  12.264  1.00  0.00     0.000 A 
HETATM   41  C   UNL     1      43.138 -10.123  12.222  1.00  0.00     0.002 A 
HETATM   42  C   UNL     1      43.791 -10.644  11.101  1.00  0.00     0.030 A 
ENDBRANCH  35  37
ENDBRANCH   5  35
TORSDOF 8
ENDMDL
MODEL 3
REMARK VINA RESULT:     -10.0      1.673      5.413
REMARK  8 active torsions:
REMARK  status: ('A' for Active; 'I' for Inactive)
REMARK    1  A    between atoms: C_4  and  C_5 
REMARK    2  A    between atoms: C_5  and  N_6 
REMARK    3  A    between atoms: C_5  and  C_33 
REMARK    4  A    between atoms: N_10  and  C_11 
REMARK    5  A    between atoms: C_13  and  N_14 
REMARK    6  A    between atoms: N_14  and  C_15 
REMARK    7  A    between atoms: C_22  and  N_23 
REMARK    8  A    between atoms: N_23  and  C_24 
ROOT
HETATM    1  C   UNL     1      42.380 -11.375   5.455  1.00  0.00     0.756 A 
HETATM    2  N   UNL     1      43.205 -10.609   6.102  1.00  0.00     0.131 NA
HETATM    3  C   UNL     1      43.811 -11.101   7.223  1.00  0.00     0.757 A 
HETATM    4  N   UNL     1      43.506 -12.368   7.603  1.00  0.00    -0.016 N 
HETATM    5  C   UNL     1      42.700 -13.156   6.858  1.00  0.00     0.735 A 
HETATM    6  N   UNL     1      42.154 -12.691   5.777  1.00  0.00     0.129 NA
HETATM    7  H   UNL     1      44.059 -12.770   8.341  1.00  0.00     0.203 HD
ENDROOT
BRANCH   1   8
HETATM    8  N   UNL     1      41.707 -10.873   4.347  1.00  0.00    -0.210 N 
HETATM    9  C   UNL     1      40.279 -11.174   4.182  1.00  0.00     0.169 C 
HETATM   10  C   UNL     1      40.129 -12.551   3.505  1.00  0.00     0.256 C 
HETATM   11  N   UNL     1      40.881 -12.547   2.164  1.00  0.00    -0.056 N 
HETATM   12  H   UNL     1      40.473 -11.786   1.613  1.00  0.00     0.281 HD
HETATM   13  C   UNL     1      42.351 -12.147   2.349  1.00  0.00     0.256 C 
HETATM   14  C   UNL     1      42.432 -10.781   3.067  1.00  0.00     0.169 C 
BRANCH  11  15
HETATM   15  C   UNL     1      40.612 -13.799   1.332  1.00  0.00     0.254 C 
BRANCH  15  16
HETATM   16  C   UNL     1      41.434 -15.029   1.708  1.00  0.00    -0.023 A 
HETATM   17  C   UNL     1      42.775 -15.110   1.277  1.00  0.00     0.009 A 
HETATM   18  C   UNL     1      43.560 -16.230   1.561  1.00  0.00     0.001 A 
HETATM   19  C   UNL     1      43.027 -17.289   2.286  1.00  0.00     0.000 A 
HETATM   20  C   UNL     1      41.710 -17.228   2.731  1.00  0.00     0.001 A 
HETATM   21  C   UNL     1      40.922 -16.109   2.446  1.00  0.00     0.009 A 
ENDBRANCH  15  16
BRANCH  15  22
HETATM   22  C   UNL     1      40.436 -13.467  -0.149  1.00  0.00    -0.023 A 
HETATM   23  C   UNL     1      39.822 -14.429  -0.982  1.00  0.00     0.009 A 
HETATM   24  C   UNL     1      39.600 -14.180  -2.338  1.00  0.00     0.001 A 
HETATM   25  C   UNL     1      39.982 -12.963  -2.889  1.00  0.00     0.000 A 
HETATM   26  C   UNL     1      40.591 -12.001  -2.089  1.00  0.00     0.001 A 
HETATM   27  C   UNL     1      40.815 -12.249  -0.732  1.00  0.00     0.009 A 
ENDBRANCH  15  22
ENDBRANCH  11  15
ENDBRANCH   1   8
BRANCH   3  28
HETATM   28  N   UNL     1      44.627 -10.275   7.797  1.00  0.00    -0.062 NA
BRANCH  28  29
HETATM   29  C   UNL     1      44.209  -9.554   8.923  1.00  0.00     0.076 A 
HETATM   30  C   UNL     1      44.474 -10.055  10.199  1.00  0.00     0.032 A 
HETATM   31  C   UNL     1      44.072  -9.350  11.335  1.00  0.00     0.002 A 
HETATM   32  C   UNL     1      43.404  -8.132  11.199  1.00  0.00     0.000 A 
HETATM   33  C   UNL     1      43.153  -7.614   9.930  1.00  0.00     0.002 A 
HETATM   34  C   UNL     1      43.566  -8.317   8.797  1.00  0.00     0.032 A 
ENDBRANCH  28  29
ENDBRANCH   3  28
BRANCH   5  35
HETATM   35  N   UNL     1      42.543 -14.423   7.359  1.00  0.00    -0.189 N 
HETATM   36  H   UNL     1      41.689 -14.586   7.878  1.00  0.00     0.184 HD
BRANCH  35  37
HETATM   37  C   UNL     1      43.059 -15.596   6.768  1.00  0.00     0.049 A 
HETATM   38  C   UNL     1      42.332 -16.794   6.742  1.00  0.00     0.030 A 
HETATM   39  C   UNL     1      42.866 -17.946   6.158  1.00  0.00     0.002 A 
HETATM   40  C   UNL     1      44.142 -17.918   5.603  1.00  0.00     0.000 A 
HETATM   41  C   UNL     1      44.880 -16.737   5.624  1.00  0.00     0.002 A 
HETATM   42  C   UNL     1      44.340 -15.582   6.199  1.00  0.00     0.030 A 
ENDBRANCH  35  37
ENDBRANCH   5  35
TORSDOF 8
ENDMDL
MODEL 4
REMARK VINA RESULT:     -10.0      1.816      4.810
REMARK  8 active torsions:
REMARK  status: ('A' for Active; 'I' for Inactive)
REMARK    1  A    between atoms: C_4  and  C_5 
REMARK    2  A    between atoms: C_5  and  N_6 
REMARK    3  A    between atoms: C_5  and  C_33 
REMARK    4  A    between atoms: N_10  and  C_11 
REMARK    5  A    between atoms: C_13  and  N_14 
REMARK    6  A    between atoms: N_14  and  C_15 
REMARK    7  A    between atoms: C_22  and  N_23 
REMARK    8  A    between atoms: N_23  and  C_24 
ROOT
HETATM    1  C   UNL     1      41.665 -11.263   5.057  1.00  0.00     0.756 A 
HETATM    2  N   UNL     1      42.523 -10.459   5.608  1.00  0.00     0.131 NA
HETATM    3  C   UNL     1      43.227 -10.898   6.693  1.00  0.00     0.757 A 
HETATM    4  N   UNL     1      42.981 -12.156   7.140  1.00  0.00    -0.016 N 
HETATM    5  C   UNL     1      42.135 -12.986   6.490  1.00  0.00     0.735 A 
HETATM    6  N   UNL     1      41.495 -12.571   5.441  1.00  0.00     0.129 NA
HETATM    7  H   UNL     1      43.601 -12.521   7.844  1.00  0.00     0.203 HD
ENDROOT
BRANCH   1   8
HETATM    8  N   UNL     1      40.895 -10.815   3.990  1.00  0.00    -0.210 N 
HETATM    9  C   UNL     1      39.642 -11.511   3.671  1.00  0.00     0.169 C 
HETATM   10  C   UNL     1      39.956 -12.730   2.783  1.00  0.00     0.256 C 
HETATM   11  N   UNL     1      40.700 -12.266   1.520  1.00  0.00    -0.056 N 
HETATM   12  H   UNL     1      40.084 -11.587   1.062  1.00  0.00     0.281 HD
HETATM   13  C   UNL     1      41.961 -11.467   1.876  1.00  0.00     0.256 C 
HETATM   14  C   UNL     1      41.583 -10.286   2.800  1.00  0.00     0.169 C 
BRANCH  11  15
HETATM   15  C   UNL     1      40.865 -13.379   0.488  1.00  0.00     0.254 C 
BRANCH  15  16
HETATM   16  C   UNL     1      39.774 -13.458  -0.576  1.00  0.00    -0.023 A 
HETATM   17  C   UNL     1      39.833 -14.490  -1.537  1.00  0.00     0.009 A 
HETATM   18  C   UNL     1      38.881 -14.585  -2.556  1.00  0.00     0.001 A 
HETATM   19  C   UNL     1      37.848 -13.659  -2.633  1.00  0.00     0.000 A 
HETATM   20  C   UNL     1      37.762 -12.639  -1.691  1.00  0.00     0.001 A 
HETATM   21  C   UNL     1      38.715 -12.539  -0.673  1.00  0.00     0.009 A 
ENDBRANCH  15  16
BRANCH  15  22
HETATM   22  C   UNL     1      41.350 -14.678   1.129  1.00  0.00    -0.023 A 
HETATM   23  C   UNL     1      42.743 -14.884   1.255  1.00  0.00     0.009 A 
HETATM   24  C   UNL     1      43.255 -16.033   1.860  1.00  0.00     0.001 A 
HETATM   25  C   UNL     1      42.388 -17.000   2.355  1.00  0.00     0.000 A 
HETATM   26  C   UNL     1      41.014 -16.821   2.240  1.00  0.00     0.001 A 
HETATM   27  C   UNL     1      40.498 -15.671   1.634  1.00  0.00     0.009 A 
ENDBRANCH  15  22
ENDBRANCH  11  15
ENDBRANCH   1   8
BRANCH   3  28
HETATM   28  N   UNL     1      44.068 -10.037   7.170  1.00  0.00    -0.062 NA
BRANCH  28  29
HETATM   29  C   UNL     1      44.044  -9.725   8.536  1.00  0.00     0.076 A 
HETATM   30  C   UNL     1      45.158 -10.010   9.327  1.00  0.00     0.032 A 
HETATM   31  C   UNL     1      45.158  -9.702  10.689  1.00  0.00     0.002 A 
HETATM   32  C   UNL     1      44.041  -9.099  11.267  1.00  0.00     0.000 A 
HETATM   33  C   UNL     1      42.932  -8.791  10.481  1.00  0.00     0.002 A 
HETATM   34  C   UNL     1      42.940  -9.092   9.118  1.00  0.00     0.032 A 
ENDBRANCH  28  29
ENDBRANCH   3  28
BRANCH   5  35
HETATM   35  N   UNL     1      42.047 -14.237   7.045  1.00  0.00    -0.189 N 
HETATM   36  H   UNL     1      41.166 -14.455   7.495  1.00  0.00     0.184 HD
BRANCH  35  37
HETATM   37  C   UNL     1      42.718 -15.382   6.568  1.00  0.00     0.049 A 
HETATM   38  C   UNL     1      42.034 -16.563   6.248  1.00  0.00     0.030 A 
HETATM   39  C   UNL     1      42.721 -17.688   5.785  1.00  0.00     0.002 A 
HETATM   40  C   UNL     1      44.106 -17.652   5.649  1.00  0.00     0.000 A 
HETATM   41  C   UNL     1      44.802 -16.489   5.967  1.00  0.00     0.002 A 
HETATM   42  C   UNL     1      44.112 -15.360   6.420  1.00  0.00     0.030 A 
ENDBRANCH  35  37
ENDBRANCH   5  35
TORSDOF 8
ENDMDL
MODEL 5
REMARK VINA RESULT:      -9.9      2.253      8.877
REMARK  8 active torsions:
REMARK  status: ('A' for Active; 'I' for Inactive)
REMARK    1  A    between atoms: C_4  and  C_5 
REMARK    2  A    between atoms: C_5  and  N_6 
REMARK    3  A    between atoms: C_5  and  C_33 
REMARK    4  A    between atoms: N_10  and  C_11 
REMARK    5  A    between atoms: C_13  and  N_14 
REMARK    6  A    between atoms: N_14  and  C_15 
REMARK    7  A    between atoms: C_22  and  N_23 
REMARK    8  A    between atoms: N_23  and  C_24 
ROOT
HETATM    1  C   UNL     1      41.076 -15.113   4.170  1.00  0.00     0.756 A 
HETATM    2  N   UNL     1      42.185 -15.766   3.994  1.00  0.00     0.131 NA
HETATM    3  C   UNL     1      42.457 -16.270   2.754  1.00  0.00     0.757 A 
HETATM    4  N   UNL     1      41.540 -16.065   1.773  1.00  0.00    -0.016 N 
HETATM    5  C   UNL     1      40.436 -15.315   1.980  1.00  0.00     0.735 A 
HETATM    6  N   UNL     1      40.202 -14.813   3.153  1.00  0.00     0.129 NA
HETATM    7  H   UNL     1      41.811 -16.313   0.835  1.00  0.00     0.203 HD
ENDROOT
BRANCH   1   8
HETATM    8  N   UNL     1      40.752 -14.644   5.438  1.00  0.00    -0.210 N 
HETATM    9  C   UNL     1      39.796 -13.537   5.567  1.00  0.00     0.169 C 
HETATM   10  C   UNL     1      40.545 -12.202   5.391  1.00  0.00     0.256 C 
HETATM   11  N   UNL     1      41.681 -12.112   6.422  1.00  0.00    -0.056 N 
HETATM   12  H   UNL     1      41.238 -12.201   7.342  1.00  0.00     0.281 HD
HETATM   13  C   UNL     1      42.621 -13.322   6.326  1.00  0.00     0.256 C 
HETATM   14  C   UNL     1      41.803 -14.626   6.470  1.00  0.00     0.169 C 
BRANCH  11  15
HETATM   15  C   UNL     1      42.341 -10.736   6.457  1.00  0.00     0.254 C 
BRANCH  15  16
HETATM   16  C   UNL     1      43.680 -10.665   7.185  1.00  0.00    -0.023 A 
HETATM   17  C   UNL     1      43.700 -10.262   8.537  1.00  0.00     0.009 A 
HETATM   18  C   UNL     1      44.901 -10.144   9.240  1.00  0.00     0.001 A 
HETATM   19  C   UNL     1      46.107 -10.431   8.612  1.00  0.00     0.000 A 
HETATM   20  C   UNL     1      46.113 -10.840   7.282  1.00  0.00     0.001 A 
HETATM   21  C   UNL     1      44.913 -10.956   6.576  1.00  0.00     0.009 A 
ENDBRANCH  15  16
BRANCH  15  22
HETATM   22  C   UNL     1      41.322  -9.624   6.701  1.00  0.00    -0.023 A 
HETATM   23  C   UNL     1      41.315  -8.516   5.824  1.00  0.00     0.009 A 
HETATM   24  C   UNL     1      40.389  -7.481   5.968  1.00  0.00     0.001 A 
HETATM   25  C   UNL     1      39.448  -7.532   6.989  1.00  0.00     0.000 A 
HETATM   26  C   UNL     1      39.437  -8.611   7.867  1.00  0.00     0.001 A 
HETATM   27  C   UNL     1      40.363  -9.649   7.724  1.00  0.00     0.009 A 
ENDBRANCH  15  22
ENDBRANCH  11  15
ENDBRANCH   1   8
BRANCH   3  28
HETATM   28  N   UNL     1      43.587 -16.894   2.666  1.00  0.00    -0.062 NA
BRANCH  28  29
HETATM   29  C   UNL     1      43.691 -18.214   3.125  1.00  0.00     0.076 A 
HETATM   30  C   UNL     1      43.425 -19.270   2.251  1.00  0.00     0.032 A 
HETATM   31  C   UNL     1      43.529 -20.593   2.686  1.00  0.00     0.002 A 
HETATM   32  C   UNL     1      43.904 -20.867   4.001  1.00  0.00     0.000 A 
HETATM   33  C   UNL     1      44.192 -19.820   4.875  1.00  0.00     0.002 A 
HETATM   34  C   UNL     1      44.098 -18.498   4.433  1.00  0.00     0.032 A 
ENDBRANCH  28  29
ENDBRANCH   3  28
BRANCH   5  35
HETATM   35  N   UNL     1      39.649 -15.164   0.868  1.00  0.00    -0.189 N 
HETATM   36  H   UNL     1      38.653 -15.272   1.019  1.00  0.00     0.184 HD
BRANCH  35  37
HETATM   37  C   UNL     1      39.951 -14.332  -0.231  1.00  0.00     0.049 A 
HETATM   38  C   UNL     1      40.646 -13.125  -0.077  1.00  0.00     0.030 A 
HETATM   39  C   UNL     1      40.927 -12.312  -1.179  1.00  0.00     0.002 A 
HETATM   40  C   UNL     1      40.503 -12.692  -2.450  1.00  0.00     0.000 A 
HETATM   41  C   UNL     1      39.807 -13.885  -2.619  1.00  0.00     0.002 A 
HETATM   42  C   UNL     1      39.537 -14.703  -1.517  1.00  0.00     0.030 A 
ENDBRANCH  35  37
ENDBRANCH   5  35
TORSDOF 8
ENDMDL
MODEL 6
REMARK VINA RESULT:      -9.7      2.414      9.566
REMARK  8 active torsions:
REMARK  status: ('A' for Active; 'I' for Inactive)
REMARK    1  A    between atoms: C_4  and  C_5 
REMARK    2  A    between atoms: C_5  and  N_6 
REMARK    3  A    between atoms: C_5  and  C_33 
REMARK    4  A    between atoms: N_10  and  C_11 
REMARK    5  A    between atoms: C_13  and  N_14 
REMARK    6  A    between atoms: N_14  and  C_15 
REMARK    7  A    between atoms: C_22  and  N_23 
REMARK    8  A    between atoms: N_23  and  C_24 
ROOT
HETATM    1  C   UNL     1      40.760 -14.879   3.973  1.00  0.00     0.756 A 
HETATM    2  N   UNL     1      40.078 -14.727   2.878  1.00  0.00     0.131 NA
HETATM    3  C   UNL     1      40.572 -15.256   1.720  1.00  0.00     0.757 A 
HETATM    4  N   UNL     1      41.763 -15.907   1.780  1.00  0.00    -0.016 N 
HETATM    5  C   UNL     1      42.402 -16.107   2.953  1.00  0.00     0.735 A 
HETATM    6  N   UNL     1      41.908 -15.629   4.053  1.00  0.00     0.129 NA
HETATM    7  H   UNL     1      42.049 -16.413   0.959  1.00  0.00     0.203 HD
ENDROOT
BRANCH   1   8
HETATM    8  N   UNL     1      40.304 -14.297   5.150  1.00  0.00    -0.210 N 
HETATM    9  C   UNL     1      39.486 -13.080   5.073  1.00  0.00     0.169 C 
HETATM   10  C   UNL     1      40.414 -11.854   4.963  1.00  0.00     0.256 C 
HETATM   11  N   UNL     1      41.377 -11.833   6.160  1.00  0.00    -0.056 N 
HETATM   12  H   UNL     1      40.788 -11.811   6.998  1.00  0.00     0.281 HD
HETATM   13  C   UNL     1      42.161 -13.148   6.271  1.00  0.00     0.256 C 
HETATM   14  C   UNL     1      41.175 -14.336   6.337  1.00  0.00     0.169 C 
BRANCH  11  15
HETATM   15  C   UNL     1      42.191 -10.543   6.241  1.00  0.00     0.254 C 
BRANCH  15  16
HETATM   16  C   UNL     1      43.632 -10.702   6.718  1.00  0.00    -0.023 A 
HETATM   17  C   UNL     1      43.953 -10.349   8.046  1.00  0.00     0.009 A 
HETATM   18  C   UNL     1      45.263 -10.439   8.522  1.00  0.00     0.001 A 
HETATM   19  C   UNL     1      46.279 -10.889   7.687  1.00  0.00     0.000 A 
HETATM   20  C   UNL     1      45.985 -11.253   6.377  1.00  0.00     0.001 A 
HETATM   21  C   UNL     1      44.676 -11.161   5.897  1.00  0.00     0.009 A 
ENDBRANCH  15  16
BRANCH  15  22
HETATM   22  C   UNL     1      41.364  -9.386   6.799  1.00  0.00    -0.023 A 
HETATM   23  C   UNL     1      41.602  -8.087   6.295  1.00  0.00     0.009 A 
HETATM   24  C   UNL     1      40.861  -6.989   6.735  1.00  0.00     0.001 A 
HETATM   25  C   UNL     1      39.863  -7.165   7.687  1.00  0.00     0.000 A 
HETATM   26  C   UNL     1      39.613  -8.433   8.201  1.00  0.00     0.001 A 
HETATM   27  C   UNL     1      40.354  -9.534   7.761  1.00  0.00     0.009 A 
ENDBRANCH  15  22
ENDBRANCH  11  15
ENDBRANCH   1   8
BRANCH   3  28
HETATM   28  N   UNL     1      39.822 -15.069   0.682  1.00  0.00    -0.062 NA
BRANCH  28  29
HETATM   29  C   UNL     1      40.185 -14.113  -0.276  1.00  0.00     0.076 A 
HETATM   30  C   UNL     1      39.911 -14.351  -1.624  1.00  0.00     0.032 A 
HETATM   31  C   UNL     1      40.258 -13.410  -2.595  1.00  0.00     0.002 A 
HETATM   32  C   UNL     1      40.881 -12.219  -2.219  1.00  0.00     0.000 A 
HETATM   33  C   UNL     1      41.140 -11.963  -0.874  1.00  0.00     0.002 A 
HETATM   34  C   UNL     1      40.781 -12.902   0.095  1.00  0.00     0.032 A 
ENDBRANCH  28  29
ENDBRANCH   3  28
BRANCH   5  35
HETATM   35  N   UNL     1      43.561 -16.830   2.839  1.00  0.00    -0.189 N 
HETATM   36  H   UNL     1      44.417 -16.315   3.006  1.00  0.00     0.184 HD
BRANCH  35  37
HETATM   37  C   UNL     1      43.687 -18.208   3.119  1.00  0.00     0.049 A 
HETATM   38  C   UNL     1      43.371 -19.190   2.170  1.00  0.00     0.030 A 
HETATM   39  C   UNL     1      43.495 -20.548   2.472  1.00  0.00     0.002 A 
HETATM   40  C   UNL     1      43.925 -20.943   3.736  1.00  0.00     0.000 A 
HETATM   41  C   UNL     1      44.239 -19.981   4.692  1.00  0.00     0.002 A 
HETATM   42  C   UNL     1      44.125 -18.622   4.384  1.00  0.00     0.030 A 
ENDBRANCH  35  37
ENDBRANCH   5  35
TORSDOF 8
ENDMDL
MODEL 7
REMARK VINA RESULT:      -9.5      2.122      8.107
REMARK  8 active torsions:
REMARK  status: ('A' for Active; 'I' for Inactive)
REMARK    1  A    between atoms: C_4  and  C_5 
REMARK    2  A    between atoms: C_5  and  N_6 
REMARK    3  A    between atoms: C_5  and  C_33 
REMARK    4  A    between atoms: N_10  and  C_11 
REMARK    5  A    between atoms: C_13  and  N_14 
REMARK    6  A    between atoms: N_14  and  C_15 
REMARK    7  A    between atoms: C_22  and  N_23 
REMARK    8  A    between atoms: N_23  and  C_24 
ROOT
HETATM    1  C   UNL     1      41.125 -15.234   4.228  1.00  0.00     0.756 A 
HETATM    2  N   UNL     1      42.225 -15.882   3.985  1.00  0.00     0.131 NA
HETATM    3  C   UNL     1      42.456 -16.322   2.713  1.00  0.00     0.757 A 
HETATM    4  N   UNL     1      41.512 -16.062   1.772  1.00  0.00    -0.016 N 
HETATM    5  C   UNL     1      40.419 -15.319   2.051  1.00  0.00     0.735 A 
HETATM    6  N   UNL     1      40.223 -14.877   3.256  1.00  0.00     0.129 NA
HETATM    7  H   UNL     1      41.754 -16.261   0.815  1.00  0.00     0.203 HD
ENDROOT
BRANCH   1   8
HETATM    8  N   UNL     1      40.843 -14.831   5.528  1.00  0.00    -0.210 N 
HETATM    9  C   UNL     1      39.805 -13.816   5.751  1.00  0.00     0.169 C 
HETATM   10  C   UNL     1      40.423 -12.416   5.574  1.00  0.00     0.256 C 
HETATM   11  N   UNL     1      41.610 -12.255   6.538  1.00  0.00    -0.056 N 
HETATM   12  H   UNL     1      41.234 -12.407   7.479  1.00  0.00     0.281 HD
HETATM   13  C   UNL     1      42.642 -13.374   6.346  1.00  0.00     0.256 C 
HETATM   14  C   UNL     1      41.951 -14.749   6.495  1.00  0.00     0.169 C 
BRANCH  11  15
HETATM   15  C   UNL     1      42.150 -10.827   6.578  1.00  0.00     0.254 C 
BRANCH  15  16
HETATM   16  C   UNL     1      41.618  -9.891   5.496  1.00  0.00    -0.023 A 
HETATM   17  C   UNL     1      40.847  -8.774   5.881  1.00  0.00     0.009 A 
HETATM   18  C   UNL     1      40.303  -7.907   4.929  1.00  0.00     0.001 A 
HETATM   19  C   UNL     1      40.524  -8.131   3.576  1.00  0.00     0.000 A 
HETATM   20  C   UNL     1      41.289  -9.220   3.172  1.00  0.00     0.001 A 
HETATM   21  C   UNL     1      41.831 -10.091   4.121  1.00  0.00     0.009 A 
ENDBRANCH  15  16
BRANCH  15  22
HETATM   22  C   UNL     1      43.644 -10.795   6.896  1.00  0.00    -0.023 A 
HETATM   23  C   UNL     1      44.045 -10.387   8.188  1.00  0.00     0.009 A 
HETATM   24  C   UNL     1      45.391 -10.365   8.558  1.00  0.00     0.001 A 
HETATM   25  C   UNL     1      46.365 -10.754   7.646  1.00  0.00     0.000 A 
HETATM   26  C   UNL     1      45.995 -11.157   6.368  1.00  0.00     0.001 A 
HETATM   27  C   UNL     1      44.648 -11.179   5.995  1.00  0.00     0.009 A 
ENDBRANCH  15  22
ENDBRANCH  11  15
ENDBRANCH   1   8
BRANCH   3  28
HETATM   28  N   UNL     1      43.580 -16.945   2.558  1.00  0.00    -0.062 NA
BRANCH  28  29
HETATM   29  C   UNL     1      43.696 -18.281   2.965  1.00  0.00     0.076 A 
HETATM   30  C   UNL     1      44.177 -18.571   4.244  1.00  0.00     0.032 A 
HETATM   31  C   UNL     1      44.295 -19.895   4.672  1.00  0.00     0.002 A 
HETATM   32  C   UNL     1      43.927 -20.938   3.823  1.00  0.00     0.000 A 
HETATM   33  C   UNL     1      43.427 -20.657   2.553  1.00  0.00     0.002 A 
HETATM   34  C   UNL     1      43.300 -19.332   2.132  1.00  0.00     0.032 A 
ENDBRANCH  28  29
ENDBRANCH   3  28
BRANCH   5  35
HETATM   35  N   UNL     1      39.600 -15.107   0.973  1.00  0.00    -0.189 N 
HETATM   36  H   UNL     1      38.606 -15.151   1.164  1.00  0.00     0.184 HD
BRANCH  35  37
HETATM   37  C   UNL     1      39.911 -14.286  -0.131  1.00  0.00     0.049 A 
HETATM   38  C   UNL     1      39.580 -14.651  -1.444  1.00  0.00     0.030 A 
HETATM   39  C   UNL     1      39.906 -13.826  -2.523  1.00  0.00     0.002 A 
HETATM   40  C   UNL     1      40.582 -12.628  -2.305  1.00  0.00     0.000 A 
HETATM   41  C   UNL     1      40.922 -12.253  -1.008  1.00  0.00     0.002 A 
HETATM   42  C   UNL     1      40.585 -13.074   0.072  1.00  0.00     0.030 A 
ENDBRANCH  35  37
ENDBRANCH   5  35
TORSDOF 8
ENDMDL
MODEL 8
REMARK VINA RESULT:      -9.4      2.982      6.848
REMARK  8 active torsions:
REMARK  status: ('A' for Active; 'I' for Inactive)
REMARK    1  A    between atoms: C_4  and  C_5 
REMARK    2  A    between atoms: C_5  and  N_6 
REMARK    3  A    between atoms: C_5  and  C_33 
REMARK    4  A    between atoms: N_10  and  C_11 
REMARK    5  A    between atoms: C_13  and  N_14 
REMARK    6  A    between atoms: N_14  and  C_15 
REMARK    7  A    between atoms: C_22  and  N_23 
REMARK    8  A    between atoms: N_23  and  C_24 
ROOT
HETATM    1  C   UNL     1      41.165 -12.749   4.133  1.00  0.00     0.756 A 
HETATM    2  N   UNL     1      42.154 -11.941   4.371  1.00  0.00     0.131 NA
HETATM    3  C   UNL     1      43.263 -12.431   4.999  1.00  0.00     0.757 A 
HETATM    4  N   UNL     1      43.263 -13.744   5.349  1.00  0.00    -0.016 N 
HETATM    5  C   UNL     1      42.245 -14.566   5.014  1.00  0.00     0.735 A 
HETATM    6  N   UNL     1      41.210 -14.098   4.388  1.00  0.00     0.129 NA
HETATM    7  H   UNL     1      44.133 -14.128   5.679  1.00  0.00     0.203 HD
ENDROOT
BRANCH   1   8
HETATM    8  N   UNL     1      40.004 -12.256   3.550  1.00  0.00    -0.210 N 
HETATM    9  C   UNL     1      39.221 -13.131   2.669  1.00  0.00     0.169 C 
HETATM   10  C   UNL     1      39.817 -13.082   1.249  1.00  0.00     0.256 C 
HETATM   11  N   UNL     1      39.838 -11.627   0.753  1.00  0.00    -0.056 N 
HETATM   12  H   UNL     1      38.868 -11.302   0.788  1.00  0.00     0.281 HD
HETATM   13  C   UNL     1      40.590 -10.714   1.731  1.00  0.00     0.256 C 
HETATM   14  C   UNL     1      39.969 -10.841   3.141  1.00  0.00     0.169 C 
BRANCH  11  15
HETATM   15  C   UNL     1      40.220 -11.511  -0.721  1.00  0.00     0.254 C 
BRANCH  15  16
HETATM   16  C   UNL     1      40.511 -10.097  -1.216  1.00  0.00    -0.023 A 
HETATM   17  C   UNL     1      41.846  -9.734  -1.496  1.00  0.00     0.009 A 
HETATM   18  C   UNL     1      42.172  -8.442  -1.915  1.00  0.00     0.001 A 
HETATM   19  C   UNL     1      41.174  -7.487  -2.072  1.00  0.00     0.000 A 
HETATM   20  C   UNL     1      39.850  -7.824  -1.812  1.00  0.00     0.001 A 
HETATM   21  C   UNL     1      39.521  -9.115  -1.389  1.00  0.00     0.009 A 
ENDBRANCH  15  16
BRANCH  15  22
HETATM   22  C   UNL     1      39.372 -12.429  -1.600  1.00  0.00    -0.023 A 
HETATM   23  C   UNL     1      40.007 -13.513  -2.246  1.00  0.00     0.009 A 
HETATM   24  C   UNL     1      39.287 -14.410  -3.037  1.00  0.00     0.001 A 
HETATM   25  C   UNL     1      37.916 -14.246  -3.197  1.00  0.00     0.000 A 
HETATM   26  C   UNL     1      37.269 -13.184  -2.573  1.00  0.00     0.001 A 
HETATM   27  C   UNL     1      37.988 -12.284  -1.781  1.00  0.00     0.009 A 
ENDBRANCH  15  22
ENDBRANCH  11  15
ENDBRANCH   1   8
BRANCH   3  28
HETATM   28  N   UNL     1      44.203 -11.561   5.184  1.00  0.00    -0.062 NA
BRANCH  28  29
HETATM   29  C   UNL     1      44.494 -11.117   6.481  1.00  0.00     0.076 A 
HETATM   30  C   UNL     1      43.449 -10.784   7.346  1.00  0.00     0.032 A 
HETATM   31  C   UNL     1      43.716 -10.345   8.644  1.00  0.00     0.002 A 
HETATM   32  C   UNL     1      45.035 -10.241   9.087  1.00  0.00     0.000 A 
HETATM   33  C   UNL     1      46.084 -10.590   8.238  1.00  0.00     0.002 A 
HETATM   34  C   UNL     1      45.812 -11.039   6.944  1.00  0.00     0.032 A 
ENDBRANCH  28  29
ENDBRANCH   3  28
BRANCH   5  35
HETATM   35  N   UNL     1      42.434 -15.870   5.396  1.00  0.00    -0.189 N 
HETATM   36  H   UNL     1      41.772 -16.227   6.074  1.00  0.00     0.184 HD
BRANCH  35  37
HETATM   37  C   UNL     1      42.984 -16.880   4.578  1.00  0.00     0.049 A 
HETATM   38  C   UNL     1      42.594 -17.048   3.243  1.00  0.00     0.030 A 
HETATM   39  C   UNL     1      43.146 -18.061   2.455  1.00  0.00     0.002 A 
HETATM   40  C   UNL     1      44.088 -18.931   2.998  1.00  0.00     0.000 A 
HETATM   41  C   UNL     1      44.484 -18.781   4.324  1.00  0.00     0.002 A 
HETATM   42  C   UNL     1      43.939 -17.759   5.108  1.00  0.00     0.030 A 
ENDBRANCH  35  37
ENDBRANCH   5  35
TORSDOF 8
ENDMDL
MODEL 9
REMARK VINA RESULT:      -9.4      1.815      6.308
REMARK  8 active torsions:
REMARK  status: ('A' for Active; 'I' for Inactive)
REMARK    1  A    between atoms: C_4  and  C_5 
REMARK    2  A    between atoms: C_5  and  N_6 
REMARK    3  A    between atoms: C_5  and  C_33 
REMARK    4  A    between atoms: N_10  and  C_11 
REMARK    5  A    between atoms: C_13  and  N_14 
REMARK    6  A    between atoms: N_14  and  C_15 
REMARK    7  A    between atoms: C_22  and  N_23 
REMARK    8  A    between atoms: N_23  and  C_24 
ROOT
HETATM    1  C   UNL     1      41.779 -10.555   4.845  1.00  0.00     0.756 A 
HETATM    2  N   UNL     1      42.463 -11.655   4.939  1.00  0.00     0.131 NA
HETATM    3  C   UNL     1      43.280 -11.827   6.020  1.00  0.00     0.757 A 
HETATM    4  N   UNL     1      43.336 -10.826   6.936  1.00  0.00    -0.016 N 
HETATM    5  C   UNL     1      42.550  -9.732   6.838  1.00  0.00     0.735 A 
HETATM    6  N   UNL     1      41.753  -9.592   5.824  1.00  0.00     0.129 NA
HETATM    7  H   UNL     1      43.825 -11.019   7.794  1.00  0.00     0.203 HD
ENDROOT
BRANCH   1   8
HETATM    8  N   UNL     1      40.989 -10.335   3.723  1.00  0.00    -0.210 N 
HETATM    9  C   UNL     1      39.615 -10.852   3.705  1.00  0.00     0.169 C 
HETATM   10  C   UNL     1      39.637 -12.327   3.257  1.00  0.00     0.256 C 
HETATM   11  N   UNL     1      40.316 -12.433   1.882  1.00  0.00    -0.056 N 
HETATM   12  H   UNL     1      39.776 -11.835   1.251  1.00  0.00     0.281 HD
HETATM   13  C   UNL     1      41.719 -11.811   1.902  1.00  0.00     0.256 C 
HETATM   14  C   UNL     1      41.631 -10.349   2.397  1.00  0.00     0.169 C 
BRANCH  11  15
HETATM   15  C   UNL     1      40.196 -13.827   1.270  1.00  0.00     0.254 C 
BRANCH  15  16
HETATM   16  C   UNL     1      41.177 -14.868   1.803  1.00  0.00    -0.023 A 
HETATM   17  C   UNL     1      42.488 -14.897   1.283  1.00  0.00     0.009 A 
HETATM   18  C   UNL     1      43.414 -15.853   1.707  1.00  0.00     0.001 A 
HETATM   19  C   UNL     1      43.055 -16.794   2.665  1.00  0.00     0.000 A 
HETATM   20  C   UNL     1      41.771 -16.779   3.201  1.00  0.00     0.001 A 
HETATM   21  C   UNL     1      40.842 -15.826   2.775  1.00  0.00     0.009 A 
ENDBRANCH  15  16
BRANCH  15  22
HETATM   22  C   UNL     1      39.949 -13.765  -0.236  1.00  0.00    -0.023 A 
HETATM   23  C   UNL     1      39.426 -14.910  -0.878  1.00  0.00     0.009 A 
HETATM   24  C   UNL     1      39.145 -14.913  -2.245  1.00  0.00     0.001 A 
HETATM   25  C   UNL     1      39.378 -13.770  -3.001  1.00  0.00     0.000 A 
HETATM   26  C   UNL     1      39.896 -12.631  -2.392  1.00  0.00     0.001 A 
HETATM   27  C   UNL     1      40.178 -12.627  -1.023  1.00  0.00     0.009 A 
ENDBRANCH  15  22
ENDBRANCH  11  15
ENDBRANCH   1   8
BRANCH   3  28
HETATM   28  N   UNL     1      43.913 -12.956   6.039  1.00  0.00    -0.062 NA
BRANCH  28  29
HETATM   29  C   UNL     1      43.209 -14.144   6.273  1.00  0.00     0.076 A 
HETATM   30  C   UNL     1      43.911 -15.341   6.430  1.00  0.00     0.032 A 
HETATM   31  C   UNL     1      43.230 -16.536   6.670  1.00  0.00     0.002 A 
HETATM   32  C   UNL     1      41.838 -16.539   6.760  1.00  0.00     0.000 A 
HETATM   33  C   UNL     1      41.130 -15.346   6.626  1.00  0.00     0.002 A 
HETATM   34  C   UNL     1      41.815 -14.151   6.396  1.00  0.00     0.032 A 
ENDBRANCH  28  29
ENDBRANCH   3  28
BRANCH   5  35
HETATM   35  N   UNL     1      42.694  -8.849   7.877  1.00  0.00    -0.189 N 
HETATM   36  H   UNL     1      42.292  -7.931   7.730  1.00  0.00     0.184 HD
BRANCH  35  37
HETATM   37  C   UNL     1      42.760  -9.207   9.240  1.00  0.00     0.049 A 
HETATM   38  C   UNL     1      43.980  -9.466   9.881  1.00  0.00     0.030 A 
HETATM   39  C   UNL     1      44.021  -9.827  11.230  1.00  0.00     0.002 A 
HETATM   40  C   UNL     1      42.838  -9.947  11.955  1.00  0.00     0.000 A 
HETATM   41  C   UNL     1      41.618  -9.698  11.333  1.00  0.00     0.002 A 
HETATM   42  C   UNL     1      41.579  -9.326   9.985  1.00  0.00     0.030 A 
ENDBRANCH  35  37
ENDBRANCH   5  35
TORSDOF 8
ENDMDL
MODEL 10
REMARK VINA RESULT:      -9.4      2.247      6.120
REMARK  8 active torsions:
REMARK  status: ('A' for Active; 'I' for Inactive)
REMARK    1  A    between atoms: C_4  and  C_5 
REMARK    2  A    between atoms: C_5  and  N_6 
REMARK    3  A    between atoms: C_5  and  C_33 
REMARK    4  A    between atoms: N_10  and  C_11 
REMARK    5  A    between atoms: C_13  and  N_14 
REMARK    6  A    between atoms: N_14  and  C_15 
REMARK    7  A    between atoms: C_22  and  N_23 
REMARK    8  A    between atoms: N_23  and  C_24 
ROOT
HETATM    1  C   UNL     1      40.283 -10.494   4.481  1.00  0.00     0.756 A 
HETATM    2  N   UNL     1      40.020 -11.704   4.874  1.00  0.00     0.131 NA
HETATM    3  C   UNL     1      40.408 -12.084   6.127  1.00  0.00     0.757 A 
HETATM    4  N   UNL     1      41.059 -11.170   6.892  1.00  0.00    -0.016 N 
HETATM    5  C   UNL     1      41.245  -9.899   6.473  1.00  0.00     0.735 A 
HETATM    6  N   UNL     1      40.844  -9.538   5.293  1.00  0.00     0.129 NA
HETATM    7  H   UNL     1      41.214 -11.409   7.858  1.00  0.00     0.203 HD
ENDROOT
BRANCH   1   8
HETATM    8  N   UNL     1      39.950 -10.107   3.189  1.00  0.00    -0.210 N 
HETATM    9  C   UNL     1      38.768 -10.698   2.549  1.00  0.00     0.169 C 
HETATM   10  C   UNL     1      39.157 -12.050   1.920  1.00  0.00     0.256 C 
HETATM   11  N   UNL     1      40.310 -11.839   0.927  1.00  0.00    -0.056 N 
HETATM   12  H   UNL     1      39.970 -11.163   0.236  1.00  0.00     0.281 HD
HETATM   13  C   UNL     1      41.504 -11.144   1.595  1.00  0.00     0.256 C 
HETATM   14  C   UNL     1      41.039  -9.818   2.239  1.00  0.00     0.169 C 
BRANCH  11  15
HETATM   15  C   UNL     1      40.619 -13.089   0.106  1.00  0.00     0.254 C 
BRANCH  15  16
HETATM   16  C   UNL     1      39.641 -13.392  -1.026  1.00  0.00    -0.023 A 
HETATM   17  C   UNL     1      38.486 -12.592  -1.161  1.00  0.00     0.009 A 
HETATM   18  C   UNL     1      37.540 -12.849  -2.155  1.00  0.00     0.001 A 
HETATM   19  C   UNL     1      37.728 -13.904  -3.041  1.00  0.00     0.000 A 
HETATM   20  C   UNL     1      38.864 -14.700  -2.935  1.00  0.00     0.001 A 
HETATM   21  C   UNL     1      39.811 -14.447  -1.938  1.00  0.00     0.009 A 
ENDBRANCH  15  16
BRANCH  15  22
HETATM   22  C   UNL     1      41.090 -14.244   0.988  1.00  0.00    -0.023 A 
HETATM   23  C   UNL     1      40.133 -15.189   1.423  1.00  0.00     0.009 A 
HETATM   24  C   UNL     1      40.499 -16.287   2.204  1.00  0.00     0.001 A 
HETATM   25  C   UNL     1      41.829 -16.468   2.563  1.00  0.00     0.000 A 
HETATM   26  C   UNL     1      42.789 -15.550   2.149  1.00  0.00     0.001 A 
HETATM   27  C   UNL     1      42.425 -14.449   1.368  1.00  0.00     0.009 A 
ENDBRANCH  15  22
ENDBRANCH  11  15
ENDBRANCH   1   8
BRANCH   3  28
HETATM   28  N   UNL     1      40.094 -13.300   6.440  1.00  0.00    -0.062 NA
BRANCH  28  29
HETATM   29  C   UNL     1      41.040 -14.323   6.290  1.00  0.00     0.076 A 
HETATM   30  C   UNL     1      42.376 -13.996   6.051  1.00  0.00     0.032 A 
HETATM   31  C   UNL     1      43.336 -14.999   5.904  1.00  0.00     0.002 A 
HETATM   32  C   UNL     1      42.963 -16.340   6.001  1.00  0.00     0.000 A 
HETATM   33  C   UNL     1      41.635 -16.676   6.260  1.00  0.00     0.002 A 
HETATM   34  C   UNL     1      40.680 -15.670   6.417  1.00  0.00     0.032 A 
ENDBRANCH  28  29
ENDBRANCH   3  28
BRANCH   5  35
HETATM   35  N   UNL     1      41.870  -9.096   7.391  1.00  0.00    -0.189 N 
HETATM   36  H   UNL     1      41.284  -8.398   7.833  1.00  0.00     0.184 HD
BRANCH  35  37
HETATM   37  C   UNL     1      42.962  -9.485   8.196  1.00  0.00     0.049 A 
HETATM   38  C   UNL     1      44.147  -9.992   7.645  1.00  0.00     0.030 A 
HETATM   39  C   UNL     1      45.212 -10.378   8.462  1.00  0.00     0.002 A 
HETATM   40  C   UNL     1      45.101 -10.276   9.846  1.00  0.00     0.000 A 
HETATM   41  C   UNL     1      43.930  -9.779  10.411  1.00  0.00     0.002 A 
HETATM   42  C   UNL     1      42.868  -9.382   9.591  1.00  0.00     0.030 A 
ENDBRANCH  35  37
ENDBRANCH   5  35
TORSDOF 8
ENDMDL
