MODEL 1
REMARK VINA RESULT:      -9.4      0.000      0.000
REMARK  5 active torsions:
REMARK  status: ('A' for Active; 'I' for Inactive)
REMARK    1  A    between atoms: C_9  and  N_10 
REMARK       I    between atoms: N_10  and  C_11 
REMARK    2  A    between atoms: C_11  and  C_12 
REMARK    3  A    between atoms: C_14  and  O_15 
REMARK    4  A    between atoms: O_15  and  C_16 
REMARK    5  A    between atoms: C_16  and  C_17 
ROOT
HETATM    1  C   UNL     1      43.638 -18.302   2.972  1.00  0.00    -0.013 A 
HETATM    2  C   UNL     1      43.932 -18.319   4.350  1.00  0.00     0.053 A 
HETATM    3  C   UNL     1      44.073 -17.102   5.103  1.00  0.00     0.100 C 
HETATM    4  N   UNL     1      44.169 -16.120   5.714  1.00  0.00    -0.191 NA
HETATM    5  C   UNL     1      44.088 -19.542   5.019  1.00  0.00     0.023 A 
HETATM    6  C   UNL     1      43.954 -20.747   4.327  1.00  0.00     0.002 A 
HETATM    7  C   UNL     1      43.667 -20.737   2.966  1.00  0.00     0.001 A 
HETATM    8  C   UNL     1      43.511 -19.526   2.291  1.00  0.00     0.011 A 
ENDROOT
BRANCH   1   9
HETATM    9  C   UNL     1      43.461 -17.005   2.214  1.00  0.00     0.216 C 
BRANCH   9  10
HETATM   10  O   UNL     1      42.065 -16.734   2.117  1.00  0.00    -0.347 OA
BRANCH  10  11
HETATM   11  C   UNL     1      41.693 -15.428   1.965  1.00  0.00     0.070 A 
HETATM   12  C   UNL     1      42.390 -14.523   2.770  1.00  0.00     0.053 A 
HETATM   13  C   UNL     1      42.117 -13.152   2.709  1.00  0.00     0.035 A 
HETATM   14  C   UNL     1      41.154 -12.681   1.809  1.00  0.00     0.017 A 
HETATM   15  C   UNL     1      40.457 -13.582   1.002  1.00  0.00     0.004 A 
HETATM   16  C   UNL     1      40.724 -14.951   1.081  1.00  0.00     0.037 A 
BRANCH  13  17
HETATM   17  C   UNL     1      42.914 -12.228   3.566  1.00  0.00     0.256 C 
HETATM   18  N   UNL     1      43.015 -12.590   4.901  1.00  0.00    -0.323 N 
HETATM   19  H   UNL     1      42.661 -13.503   5.156  1.00  0.00     0.169 HD
HETATM   20  O   UNL     1      43.419 -11.237   3.051  1.00  0.00    -0.267 OA
BRANCH  18  21
HETATM   21  C   UNL     1      43.582 -11.829   5.945  1.00  0.00     0.035 A 
HETATM   22  C   UNL     1      42.828 -11.060   6.836  1.00  0.00     0.039 A 
HETATM   23  C   UNL     1      43.476 -10.388   7.861  1.00  0.00    -0.022 A 
HETATM   24  C   UNL     1      42.864  -9.554   8.931  1.00  0.00     0.274 C 
HETATM   25  C   UNL     1      44.859 -10.471   8.024  1.00  0.00    -0.025 A 
HETATM   26  N   UNL     1      44.051  -8.926   9.654  1.00  0.00    -0.067 N 
HETATM   27  C   UNL     1      43.869  -8.791  11.124  1.00  0.00     0.270 C 
HETATM   28  H   UNL     1      44.160  -7.990   9.246  1.00  0.00     0.280 HD
HETATM   29  C   UNL     1      45.286  -9.714   9.235  1.00  0.00     0.273 C 
HETATM   30  C   UNL     1      45.629 -11.219   7.150  1.00  0.00     0.012 A 
HETATM   31  C   UNL     1      44.982 -11.893   6.105  1.00  0.00     0.030 A 
ENDBRANCH  18  21
ENDBRANCH  13  17
ENDBRANCH  10  11
ENDBRANCH   9  10
ENDBRANCH   1   9
TORSDOF 5
ENDMDL
MODEL 2
REMARK VINA RESULT:      -9.2      3.070     10.261
REMARK  5 active torsions:
REMARK  status: ('A' for Active; 'I' for Inactive)
REMARK    1  A    between atoms: C_9  and  N_10 
REMARK       I    between atoms: N_10  and  C_11 
REMARK    2  A    between atoms: C_11  and  C_12 
REMARK    3  A    between atoms: C_14  and  O_15 
REMARK    4  A    between atoms: O_15  and  C_16 
REMARK    5  A    between atoms: C_16  and  C_17 
ROOT
HETATM    1  C   UNL     1      42.422  -9.078  12.898  1.00  0.00    -0.013 A 
HETATM    2  C   UNL     1      41.270  -9.191  13.702  1.00  0.00     0.053 A 
HETATM    3  C   UNL     1      40.302 -10.232  13.484  1.00  0.00     0.100 C 
HETATM    4  N   UNL     1      39.530 -11.083  13.319  1.00  0.00    -0.191 NA
HETATM    5  C   UNL     1      41.050  -8.280  14.746  1.00  0.00     0.023 A 
HETATM    6  C   UNL     1      41.968  -7.259  14.996  1.00  0.00     0.002 A 
HETATM    7  C   UNL     1      43.105  -7.139  14.204  1.00  0.00     0.001 A 
HETATM    8  C   UNL     1      43.333  -8.039  13.162  1.00  0.00     0.011 A 
ENDROOT
BRANCH   1   9
HETATM    9  C   UNL     1      42.697 -10.040  11.764  1.00  0.00     0.216 C 
BRANCH   9  10
HETATM   10  O   UNL     1      42.720  -9.298  10.548  1.00  0.00    -0.347 OA
BRANCH  10  11
HETATM   11  C   UNL     1      43.764  -9.529   9.696  1.00  0.00     0.070 A 
HETATM   12  C   UNL     1      43.449 -10.321   8.589  1.00  0.00     0.053 A 
HETATM   13  C   UNL     1      44.422 -10.631   7.630  1.00  0.00     0.035 A 
HETATM   14  C   UNL     1      45.715 -10.115   7.771  1.00  0.00     0.017 A 
HETATM   15  C   UNL     1      46.032  -9.323   8.875  1.00  0.00     0.004 A 
HETATM   16  C   UNL     1      45.060  -9.032   9.837  1.00  0.00     0.037 A 
BRANCH  13  17
HETATM   17  C   UNL     1      44.022 -11.451   6.451  1.00  0.00     0.256 C 
HETATM   18  N   UNL     1      43.064 -12.422   6.696  1.00  0.00    -0.323 N 
HETATM   19  H   UNL     1      42.621 -12.409   7.606  1.00  0.00     0.169 HD
HETATM   20  O   UNL     1      44.550 -11.220   5.369  1.00  0.00    -0.267 OA
BRANCH  18  21
HETATM   21  C   UNL     1      42.618 -13.419   5.802  1.00  0.00     0.035 A 
HETATM   22  C   UNL     1      41.539 -13.246   4.931  1.00  0.00     0.039 A 
HETATM   23  C   UNL     1      41.211 -14.269   4.055  1.00  0.00    -0.022 A 
HETATM   24  C   UNL     1      40.133 -14.276   3.028  1.00  0.00     0.274 C 
HETATM   25  C   UNL     1      41.940 -15.458   4.020  1.00  0.00    -0.025 A 
HETATM   26  N   UNL     1      40.117 -15.706   2.497  1.00  0.00    -0.067 N 
HETATM   27  C   UNL     1      39.839 -15.814   1.041  1.00  0.00     0.270 C 
HETATM   28  H   UNL     1      39.370 -16.184   3.014  1.00  0.00     0.280 HD
HETATM   29  C   UNL     1      41.422 -16.354   2.947  1.00  0.00     0.273 C 
HETATM   30  C   UNL     1      43.007 -15.657   4.878  1.00  0.00     0.012 A 
HETATM   31  C   UNL     1      43.338 -14.631   5.774  1.00  0.00     0.030 A 
ENDBRANCH  18  21
ENDBRANCH  13  17
ENDBRANCH  10  11
ENDBRANCH   9  10
ENDBRANCH   1   9
TORSDOF 5
ENDMDL
MODEL 3
REMARK VINA RESULT:      -9.2      2.943     10.321
REMARK  5 active torsions:
REMARK  status: ('A' for Active; 'I' for Inactive)
REMARK    1  A    between atoms: C_9  and  N_10 
REMARK       I    between atoms: N_10  and  C_11 
REMARK    2  A    between atoms: C_11  and  C_12 
REMARK    3  A    between atoms: C_14  and  O_15 
REMARK    4  A    between atoms: O_15  and  C_16 
REMARK    5  A    between atoms: C_16  and  C_17 
ROOT
HETATM    1  C   UNL     1      42.090  -8.719  12.502  1.00  0.00    -0.013 A 
HETATM    2  C   UNL     1      41.273  -9.147  13.567  1.00  0.00     0.053 A 
HETATM    3  C   UNL     1      40.280 -10.171  13.388  1.00  0.00     0.100 C 
HETATM    4  N   UNL     1      39.490 -11.010  13.246  1.00  0.00    -0.191 NA
HETATM    5  C   UNL     1      41.423  -8.576  14.840  1.00  0.00     0.023 A 
HETATM    6  C   UNL     1      42.379  -7.584  15.060  1.00  0.00     0.002 A 
HETATM    7  C   UNL     1      43.187  -7.154  14.011  1.00  0.00     0.001 A 
HETATM    8  C   UNL     1      43.045  -7.715  12.741  1.00  0.00     0.011 A 
ENDROOT
BRANCH   1   9
HETATM    9  C   UNL     1      41.961  -9.310  11.116  1.00  0.00     0.216 C 
BRANCH   9  10
HETATM   10  O   UNL     1      42.922 -10.355  10.986  1.00  0.00    -0.347 OA
BRANCH  10  11
HETATM   11  C   UNL     1      43.873 -10.210  10.016  1.00  0.00     0.070 A 
HETATM   12  C   UNL     1      43.700 -11.034   8.901  1.00  0.00     0.053 A 
HETATM   13  C   UNL     1      44.597 -10.984   7.827  1.00  0.00     0.035 A 
HETATM   14  C   UNL     1      45.662 -10.075   7.861  1.00  0.00     0.017 A 
HETATM   15  C   UNL     1      45.836  -9.250   8.973  1.00  0.00     0.004 A 
HETATM   16  C   UNL     1      44.946  -9.318  10.049  1.00  0.00     0.037 A 
BRANCH  13  17
HETATM   17  C   UNL     1      44.346 -11.861   6.648  1.00  0.00     0.256 C 
HETATM   18  N   UNL     1      43.789 -13.099   6.932  1.00  0.00    -0.323 N 
HETATM   19  H   UNL     1      43.479 -13.254   7.883  1.00  0.00     0.169 HD
HETATM   20  O   UNL     1      44.636 -11.444   5.533  1.00  0.00    -0.267 OA
BRANCH  18  21
HETATM   21  C   UNL     1      43.585 -14.164   6.030  1.00  0.00     0.035 A 
HETATM   22  C   UNL     1      44.280 -15.375   6.099  1.00  0.00     0.039 A 
HETATM   23  C   UNL     1      43.970 -16.380   5.196  1.00  0.00    -0.022 A 
HETATM   24  C   UNL     1      44.557 -17.747   5.120  1.00  0.00     0.274 C 
HETATM   25  C   UNL     1      42.978 -16.210   4.230  1.00  0.00    -0.025 A 
HETATM   26  N   UNL     1      43.981 -18.341   3.839  1.00  0.00    -0.067 N 
HETATM   27  C   UNL     1      43.673 -19.793   3.923  1.00  0.00     0.270 C 
HETATM   28  H   UNL     1      44.699 -18.196   3.119  1.00  0.00     0.280 HD
HETATM   29  C   UNL     1      42.802 -17.461   3.440  1.00  0.00     0.273 C 
HETATM   30  C   UNL     1      42.282 -15.017   4.136  1.00  0.00     0.012 A 
HETATM   31  C   UNL     1      42.597 -13.993   5.040  1.00  0.00     0.030 A 
ENDBRANCH  18  21
ENDBRANCH  13  17
ENDBRANCH  10  11
ENDBRANCH   9  10
ENDBRANCH   1   9
TORSDOF 5
ENDMDL
MODEL 4
REMARK VINA RESULT:      -9.1      2.917      7.381
REMARK  5 active torsions:
REMARK  status: ('A' for Active; 'I' for Inactive)
REMARK    1  A    between atoms: C_9  and  N_10 
REMARK       I    between atoms: N_10  and  C_11 
REMARK    2  A    between atoms: C_11  and  C_12 
REMARK    3  A    between atoms: C_14  and  O_15 
REMARK    4  A    between atoms: O_15  and  C_16 
REMARK    5  A    between atoms: C_16  and  C_17 
ROOT
HETATM    1  C   UNL     1      42.805 -16.893   4.543  1.00  0.00    -0.013 A 
HETATM    2  C   UNL     1      42.127 -17.078   3.322  1.00  0.00     0.053 A 
HETATM    3  C   UNL     1      40.953 -16.317   2.991  1.00  0.00     0.100 C 
HETATM    4  N   UNL     1      40.015 -15.691   2.718  1.00  0.00    -0.191 NA
HETATM    5  C   UNL     1      42.600 -18.018   2.393  1.00  0.00     0.023 A 
HETATM    6  C   UNL     1      43.740 -18.773   2.671  1.00  0.00     0.002 A 
HETATM    7  C   UNL     1      44.412 -18.598   3.876  1.00  0.00     0.001 A 
HETATM    8  C   UNL     1      43.949 -17.666   4.808  1.00  0.00     0.011 A 
ENDROOT
BRANCH   1   9
HETATM    9  C   UNL     1      42.330 -15.890   5.570  1.00  0.00     0.216 C 
BRANCH   9  10
HETATM   10  O   UNL     1      43.462 -15.161   6.037  1.00  0.00    -0.347 OA
BRANCH  10  11
HETATM   11  C   UNL     1      43.509 -13.827   5.743  1.00  0.00     0.070 A 
HETATM   12  C   UNL     1      42.890 -13.471   4.542  1.00  0.00     0.053 A 
HETATM   13  C   UNL     1      42.857 -12.136   4.121  1.00  0.00     0.035 A 
HETATM   14  C   UNL     1      43.426 -11.145   4.930  1.00  0.00     0.017 A 
HETATM   15  C   UNL     1      44.045 -11.497   6.130  1.00  0.00     0.004 A 
HETATM   16  C   UNL     1      44.088 -12.835   6.535  1.00  0.00     0.037 A 
BRANCH  13  17
HETATM   17  C   UNL     1      42.152 -11.809   2.848  1.00  0.00     0.256 C 
HETATM   18  N   UNL     1      41.056 -12.604   2.551  1.00  0.00    -0.323 N 
HETATM   19  H   UNL     1      40.745 -13.243   3.271  1.00  0.00     0.169 HD
HETATM   20  O   UNL     1      42.573 -10.882   2.166  1.00  0.00    -0.267 OA
BRANCH  18  21
HETATM   21  C   UNL     1      40.308 -12.603   1.354  1.00  0.00     0.035 A 
HETATM   22  C   UNL     1      40.567 -13.462   0.283  1.00  0.00     0.039 A 
HETATM   23  C   UNL     1      39.741 -13.418  -0.830  1.00  0.00    -0.022 A 
HETATM   24  C   UNL     1      39.818 -14.264  -2.052  1.00  0.00     0.274 C 
HETATM   25  C   UNL     1      38.657 -12.543  -0.896  1.00  0.00    -0.025 A 
HETATM   26  N   UNL     1      38.790 -13.658  -3.003  1.00  0.00    -0.067 N 
HETATM   27  C   UNL     1      38.058 -14.654  -3.828  1.00  0.00     0.270 C 
HETATM   28  H   UNL     1      39.322 -13.038  -3.626  1.00  0.00     0.280 HD
HETATM   29  C   UNL     1      37.901 -12.748  -2.164  1.00  0.00     0.273 C 
HETATM   30  C   UNL     1      38.384 -11.677   0.149  1.00  0.00     0.012 A 
HETATM   31  C   UNL     1      39.221 -11.709   1.272  1.00  0.00     0.030 A 
ENDBRANCH  18  21
ENDBRANCH  13  17
ENDBRANCH  10  11
ENDBRANCH   9  10
ENDBRANCH   1   9
TORSDOF 5
ENDMDL
MODEL 5
REMARK VINA RESULT:      -8.8      2.925      6.184
REMARK  5 active torsions:
REMARK  status: ('A' for Active; 'I' for Inactive)
REMARK    1  A    between atoms: C_9  and  N_10 
REMARK       I    between atoms: N_10  and  C_11 
REMARK    2  A    between atoms: C_11  and  C_12 
REMARK    3  A    between atoms: C_14  and  O_15 
REMARK    4  A    between atoms: O_15  and  C_16 
REMARK    5  A    between atoms: C_16  and  C_17 
ROOT
HETATM    1  C   UNL     1      42.968 -14.429   4.329  1.00  0.00    -0.013 A 
HETATM    2  C   UNL     1      43.030 -15.837   4.327  1.00  0.00     0.053 A 
HETATM    3  C   UNL     1      42.951 -16.594   5.547  1.00  0.00     0.100 C 
HETATM    4  N   UNL     1      42.870 -17.205   6.531  1.00  0.00    -0.191 NA
HETATM    5  C   UNL     1      43.164 -16.532   3.116  1.00  0.00     0.023 A 
HETATM    6  C   UNL     1      43.238 -15.837   1.909  1.00  0.00     0.002 A 
HETATM    7  C   UNL     1      43.182 -14.446   1.903  1.00  0.00     0.001 A 
HETATM    8  C   UNL     1      43.049 -13.746   3.103  1.00  0.00     0.011 A 
ENDROOT
BRANCH   1   9
HETATM    9  C   UNL     1      42.822 -13.643   5.613  1.00  0.00     0.216 C 
BRANCH   9  10
HETATM   10  O   UNL     1      43.169 -12.287   5.345  1.00  0.00    -0.347 OA
BRANCH  10  11
HETATM   11  C   UNL     1      43.986 -11.663   6.246  1.00  0.00     0.070 A 
HETATM   12  C   UNL     1      43.318 -10.987   7.270  1.00  0.00     0.053 A 
HETATM   13  C   UNL     1      44.033 -10.311   8.267  1.00  0.00     0.035 A 
HETATM   14  C   UNL     1      45.433 -10.340   8.250  1.00  0.00     0.017 A 
HETATM   15  C   UNL     1      46.102 -11.015   7.229  1.00  0.00     0.004 A 
HETATM   16  C   UNL     1      45.382 -11.674   6.228  1.00  0.00     0.037 A 
BRANCH  13  17
HETATM   17  C   UNL     1      43.270  -9.635   9.355  1.00  0.00     0.256 C 
HETATM   18  N   UNL     1      43.768  -9.817  10.636  1.00  0.00    -0.323 N 
HETATM   19  H   UNL     1      44.668 -10.273  10.716  1.00  0.00     0.169 HD
HETATM   20  O   UNL     1      42.280  -8.977   9.056  1.00  0.00    -0.267 OA
BRANCH  18  21
HETATM   21  C   UNL     1      43.165  -9.413  11.846  1.00  0.00     0.035 A 
HETATM   22  C   UNL     1      43.534  -8.259  12.543  1.00  0.00     0.039 A 
HETATM   23  C   UNL     1      42.845  -7.922  13.698  1.00  0.00    -0.022 A 
HETATM   24  C   UNL     1      43.049  -6.727  14.561  1.00  0.00     0.274 C 
HETATM   25  C   UNL     1      41.791  -8.704  14.170  1.00  0.00    -0.025 A 
HETATM   26  N   UNL     1      42.151  -6.969  15.770  1.00  0.00    -0.067 N 
HETATM   27  C   UNL     1      41.503  -5.743  16.306  1.00  0.00     0.270 C 
HETATM   28  H   UNL     1      42.762  -7.365  16.494  1.00  0.00     0.280 HD
HETATM   29  C   UNL     1      41.185  -8.083  15.382  1.00  0.00     0.273 C 
HETATM   30  C   UNL     1      41.413  -9.856  13.503  1.00  0.00     0.012 A 
HETATM   31  C   UNL     1      42.111 -10.209  12.340  1.00  0.00     0.030 A 
ENDBRANCH  18  21
ENDBRANCH  13  17
ENDBRANCH  10  11
ENDBRANCH   9  10
ENDBRANCH   1   9
TORSDOF 5
ENDMDL
MODEL 6
REMARK VINA RESULT:      -8.6      2.359      3.979
REMARK  5 active torsions:
REMARK  status: ('A' for Active; 'I' for Inactive)
REMARK    1  A    between atoms: C_9  and  N_10 
REMARK       I    between atoms: N_10  and  C_11 
REMARK    2  A    between atoms: C_11  and  C_12 
REMARK    3  A    between atoms: C_14  and  O_15 
REMARK    4  A    between atoms: O_15  and  C_16 
REMARK    5  A    between atoms: C_16  and  C_17 
ROOT
HETATM    1  C   UNL     1      42.509 -16.755   4.339  1.00  0.00    -0.013 A 
HETATM    2  C   UNL     1      42.192 -16.991   2.986  1.00  0.00     0.053 A 
HETATM    3  C   UNL     1      41.162 -16.246   2.315  1.00  0.00     0.100 C 
HETATM    4  N   UNL     1      40.341 -15.632   1.770  1.00  0.00    -0.191 NA
HETATM    5  C   UNL     1      42.893 -17.967   2.261  1.00  0.00     0.023 A 
HETATM    6  C   UNL     1      43.905 -18.708   2.872  1.00  0.00     0.002 A 
HETATM    7  C   UNL     1      44.221 -18.483   4.208  1.00  0.00     0.001 A 
HETATM    8  C   UNL     1      43.529 -17.515   4.939  1.00  0.00     0.011 A 
ENDROOT
BRANCH   1   9
HETATM    9  C   UNL     1      41.779 -15.712   5.155  1.00  0.00     0.216 C 
BRANCH   9  10
HETATM   10  O   UNL     1      42.748 -14.849   5.743  1.00  0.00    -0.347 OA
BRANCH  10  11
HETATM   11  C   UNL     1      42.826 -13.574   5.257  1.00  0.00     0.070 A 
HETATM   12  C   UNL     1      42.771 -12.573   6.230  1.00  0.00     0.053 A 
HETATM   13  C   UNL     1      42.848 -11.222   5.872  1.00  0.00     0.035 A 
HETATM   14  C   UNL     1      43.012 -10.874   4.526  1.00  0.00     0.017 A 
HETATM   15  C   UNL     1      43.068 -11.872   3.552  1.00  0.00     0.004 A 
HETATM   16  C   UNL     1      42.973 -13.218   3.915  1.00  0.00     0.037 A 
BRANCH  13  17
HETATM   17  C   UNL     1      42.819 -10.197   6.955  1.00  0.00     0.256 C 
HETATM   18  N   UNL     1      43.247 -10.631   8.200  1.00  0.00    -0.323 N 
HETATM   19  H   UNL     1      43.664 -11.552   8.245  1.00  0.00     0.169 HD
HETATM   20  O   UNL     1      42.432  -9.066   6.682  1.00  0.00    -0.267 OA
BRANCH  18  21
HETATM   21  C   UNL     1      43.186  -9.915   9.415  1.00  0.00     0.035 A 
HETATM   22  C   UNL     1      41.987  -9.540  10.028  1.00  0.00     0.039 A 
HETATM   23  C   UNL     1      42.033  -8.883  11.248  1.00  0.00    -0.022 A 
HETATM   24  C   UNL     1      40.884  -8.433  12.081  1.00  0.00     0.274 C 
HETATM   25  C   UNL     1      43.246  -8.598  11.876  1.00  0.00    -0.025 A 
HETATM   26  N   UNL     1      41.520  -7.619  13.204  1.00  0.00    -0.067 N 
HETATM   27  C   UNL     1      40.854  -7.773  14.524  1.00  0.00     0.270 C 
HETATM   28  H   UNL     1      41.449  -6.638  12.909  1.00  0.00     0.280 HD
HETATM   29  C   UNL     1      43.008  -7.952  13.197  1.00  0.00     0.273 C 
HETATM   30  C   UNL     1      44.446  -8.952  11.284  1.00  0.00     0.012 A 
HETATM   31  C   UNL     1      44.408  -9.608  10.046  1.00  0.00     0.030 A 
ENDBRANCH  18  21
ENDBRANCH  13  17
ENDBRANCH  10  11
ENDBRANCH   9  10
ENDBRANCH   1   9
TORSDOF 5
ENDMDL
MODEL 7
REMARK VINA RESULT:      -8.6      4.066      7.323
REMARK  5 active torsions:
REMARK  status: ('A' for Active; 'I' for Inactive)
REMARK    1  A    between atoms: C_9  and  N_10 
REMARK       I    between atoms: N_10  and  C_11 
REMARK    2  A    between atoms: C_11  and  C_12 
REMARK    3  A    between atoms: C_14  and  O_15 
REMARK    4  A    between atoms: O_15  and  C_16 
REMARK    5  A    between atoms: C_16  and  C_17 
ROOT
HETATM    1  C   UNL     1      43.721 -18.344   4.487  1.00  0.00    -0.013 A 
HETATM    2  C   UNL     1      43.602 -18.506   3.092  1.00  0.00     0.053 A 
HETATM    3  C   UNL     1      43.370 -17.384   2.224  1.00  0.00     0.100 C 
HETATM    4  N   UNL     1      43.199 -16.476   1.521  1.00  0.00    -0.191 NA
HETATM    5  C   UNL     1      43.717 -19.782   2.522  1.00  0.00     0.023 A 
HETATM    6  C   UNL     1      43.949 -20.897   3.328  1.00  0.00     0.002 A 
HETATM    7  C   UNL     1      44.064 -20.746   4.706  1.00  0.00     0.001 A 
HETATM    8  C   UNL     1      43.950 -19.480   5.284  1.00  0.00     0.011 A 
ENDROOT
BRANCH   1   9
HETATM    9  C   UNL     1      43.604 -16.986   5.142  1.00  0.00     0.216 C 
BRANCH   9  10
HETATM   10  O   UNL     1      42.304 -16.878   5.714  1.00  0.00    -0.347 OA
BRANCH  10  11
HETATM   11  C   UNL     1      41.604 -15.732   5.459  1.00  0.00     0.070 A 
HETATM   12  C   UNL     1      41.292 -15.525   4.113  1.00  0.00     0.053 A 
HETATM   13  C   UNL     1      40.570 -14.395   3.711  1.00  0.00     0.035 A 
HETATM   14  C   UNL     1      40.131 -13.479   4.675  1.00  0.00     0.017 A 
HETATM   15  C   UNL     1      40.440 -13.684   6.020  1.00  0.00     0.004 A 
HETATM   16  C   UNL     1      41.176 -14.806   6.412  1.00  0.00     0.037 A 
BRANCH  13  17
HETATM   17  C   UNL     1      40.235 -14.241   2.266  1.00  0.00     0.256 C 
HETATM   18  N   UNL     1      40.367 -12.959   1.755  1.00  0.00    -0.323 N 
HETATM   19  H   UNL     1      40.801 -12.270   2.356  1.00  0.00     0.169 HD
HETATM   20  O   UNL     1      39.876 -15.231   1.638  1.00  0.00    -0.267 OA
BRANCH  18  21
HETATM   21  C   UNL     1      39.983 -12.513   0.473  1.00  0.00     0.035 A 
HETATM   22  C   UNL     1      38.723 -11.977   0.189  1.00  0.00     0.039 A 
HETATM   23  C   UNL     1      38.460 -11.520  -1.093  1.00  0.00    -0.022 A 
HETATM   24  C   UNL     1      37.210 -10.884  -1.592  1.00  0.00     0.274 C 
HETATM   25  C   UNL     1      39.426 -11.577  -2.098  1.00  0.00    -0.025 A 
HETATM   26  N   UNL     1      37.418 -10.758  -3.098  1.00  0.00    -0.067 N 
HETATM   27  C   UNL     1      36.848  -9.521  -3.693  1.00  0.00     0.270 C 
HETATM   28  H   UNL     1      36.947 -11.572  -3.511  1.00  0.00     0.280 HD
HETATM   29  C   UNL     1      38.907 -10.961  -3.352  1.00  0.00     0.273 C 
HETATM   30  C   UNL     1      40.677 -12.111  -1.844  1.00  0.00     0.012 A 
HETATM   31  C   UNL     1      40.947 -12.585  -0.553  1.00  0.00     0.030 A 
ENDBRANCH  18  21
ENDBRANCH  13  17
ENDBRANCH  10  11
ENDBRANCH   9  10
ENDBRANCH   1   9
TORSDOF 5
ENDMDL
MODEL 8
REMARK VINA RESULT:      -8.4      2.037      3.278
REMARK  5 active torsions:
REMARK  status: ('A' for Active; 'I' for Inactive)
REMARK    1  A    between atoms: C_9  and  N_10 
REMARK       I    between atoms: N_10  and  C_11 
REMARK    2  A    between atoms: C_11  and  C_12 
REMARK    3  A    between atoms: C_14  and  O_15 
REMARK    4  A    between atoms: O_15  and  C_16 
REMARK    5  A    between atoms: C_16  and  C_17 
ROOT
HETATM    1  C   UNL     1      42.203 -16.608   4.162  1.00  0.00    -0.013 A 
HETATM    2  C   UNL     1      43.225 -17.168   4.955  1.00  0.00     0.053 A 
HETATM    3  C   UNL     1      43.391 -16.802   6.335  1.00  0.00     0.100 C 
HETATM    4  N   UNL     1      43.515 -16.518   7.454  1.00  0.00    -0.191 NA
HETATM    5  C   UNL     1      44.104 -18.111   4.401  1.00  0.00     0.023 A 
HETATM    6  C   UNL     1      43.974 -18.500   3.068  1.00  0.00     0.002 A 
HETATM    7  C   UNL     1      42.969 -17.948   2.279  1.00  0.00     0.001 A 
HETATM    8  C   UNL     1      42.090 -17.008   2.819  1.00  0.00     0.011 A 
ENDROOT
BRANCH   1   9
HETATM    9  C   UNL     1      41.234 -15.590   4.721  1.00  0.00     0.216 C 
BRANCH   9  10
HETATM   10  O   UNL     1      41.102 -14.535   3.772  1.00  0.00    -0.347 OA
BRANCH  10  11
HETATM   11  C   UNL     1      41.935 -13.460   3.914  1.00  0.00     0.070 A 
HETATM   12  C   UNL     1      41.709 -12.693   5.060  1.00  0.00     0.053 A 
HETATM   13  C   UNL     1      42.496 -11.568   5.334  1.00  0.00     0.035 A 
HETATM   14  C   UNL     1      43.539 -11.228   4.465  1.00  0.00     0.017 A 
HETATM   15  C   UNL     1      43.768 -11.993   3.320  1.00  0.00     0.004 A 
HETATM   16  C   UNL     1      42.967 -13.105   3.044  1.00  0.00     0.037 A 
BRANCH  13  17
HETATM   17  C   UNL     1      42.233 -10.805   6.588  1.00  0.00     0.256 C 
HETATM   18  N   UNL     1      43.358 -10.435   7.309  1.00  0.00    -0.323 N 
HETATM   19  H   UNL     1      44.256 -10.591   6.868  1.00  0.00     0.169 HD
HETATM   20  O   UNL     1      41.072 -10.559   6.893  1.00  0.00    -0.267 OA
BRANCH  18  21
HETATM   21  C   UNL     1      43.389  -9.841   8.589  1.00  0.00     0.035 A 
HETATM   22  C   UNL     1      42.659  -8.697   8.924  1.00  0.00     0.039 A 
HETATM   23  C   UNL     1      42.717  -8.219  10.224  1.00  0.00    -0.022 A 
HETATM   24  C   UNL     1      41.994  -7.050  10.796  1.00  0.00     0.274 C 
HETATM   25  C   UNL     1      43.480  -8.860  11.201  1.00  0.00    -0.025 A 
HETATM   26  N   UNL     1      42.575  -6.888  12.197  1.00  0.00    -0.067 N 
HETATM   27  C   UNL     1      41.586  -6.465  13.223  1.00  0.00     0.270 C 
HETATM   28  H   UNL     1      43.298  -6.164  12.115  1.00  0.00     0.280 HD
HETATM   29  C   UNL     1      43.312  -8.183  12.518  1.00  0.00     0.273 C 
HETATM   30  C   UNL     1      44.218  -9.989  10.891  1.00  0.00     0.012 A 
HETATM   31  C   UNL     1      44.172 -10.472   9.576  1.00  0.00     0.030 A 
ENDBRANCH  18  21
ENDBRANCH  13  17
ENDBRANCH  10  11
ENDBRANCH   9  10
ENDBRANCH   1   9
TORSDOF 5
ENDMDL
MODEL 9
REMARK VINA RESULT:      -8.3      2.939      6.108
REMARK  5 active torsions:
REMARK  status: ('A' for Active; 'I' for Inactive)
REMARK    1  A    between atoms: C_9  and  N_10 
REMARK       I    between atoms: N_10  and  C_11 
REMARK    2  A    between atoms: C_11  and  C_12 
REMARK    3  A    between atoms: C_14  and  O_15 
REMARK    4  A    between atoms: O_15  and  C_16 
REMARK    5  A    between atoms: C_16  and  C_17 
ROOT
HETATM    1  C   UNL     1      42.619 -14.312   4.385  1.00  0.00    -0.013 A 
HETATM    2  C   UNL     1      42.980 -13.760   3.140  1.00  0.00     0.053 A 
HETATM    3  C   UNL     1      42.986 -12.339   2.922  1.00  0.00     0.100 C 
HETATM    4  N   UNL     1      43.007 -11.190   2.752  1.00  0.00    -0.191 NA
HETATM    5  C   UNL     1      43.351 -14.601   2.080  1.00  0.00     0.023 A 
HETATM    6  C   UNL     1      43.365 -15.986   2.250  1.00  0.00     0.002 A 
HETATM    7  C   UNL     1      43.006 -16.538   3.475  1.00  0.00     0.001 A 
HETATM    8  C   UNL     1      42.634 -15.710   4.536  1.00  0.00     0.011 A 
ENDROOT
BRANCH   1   9
HETATM    9  C   UNL     1      42.214 -13.441   5.552  1.00  0.00     0.216 C 
BRANCH   9  10
HETATM   10  O   UNL     1      43.183 -13.601   6.584  1.00  0.00    -0.347 OA
BRANCH  10  11
HETATM   11  C   UNL     1      44.073 -12.580   6.768  1.00  0.00     0.070 A 
HETATM   12  C   UNL     1      43.909 -11.870   7.960  1.00  0.00     0.053 A 
HETATM   13  C   UNL     1      44.757 -10.804   8.281  1.00  0.00     0.035 A 
HETATM   14  C   UNL     1      45.800 -10.467   7.409  1.00  0.00     0.017 A 
HETATM   15  C   UNL     1      45.967 -11.175   6.218  1.00  0.00     0.004 A 
HETATM   16  C   UNL     1      45.105 -12.228   5.897  1.00  0.00     0.037 A 
BRANCH  13  17
HETATM   17  C   UNL     1      44.559 -10.102   9.582  1.00  0.00     0.256 C 
HETATM   18  N   UNL     1      43.301  -9.552   9.777  1.00  0.00    -0.323 N 
HETATM   19  H   UNL     1      42.590  -9.780   9.094  1.00  0.00     0.169 HD
HETATM   20  O   UNL     1      45.492 -10.060  10.375  1.00  0.00    -0.267 OA
BRANCH  18  21
HETATM   21  C   UNL     1      42.895  -8.721  10.843  1.00  0.00     0.035 A 
HETATM   22  C   UNL     1      42.651  -9.192  12.137  1.00  0.00     0.039 A 
HETATM   23  C   UNL     1      42.305  -8.286  13.128  1.00  0.00    -0.022 A 
HETATM   24  C   UNL     1      42.042  -8.569  14.565  1.00  0.00     0.274 C 
HETATM   25  C   UNL     1      42.205  -6.920  12.862  1.00  0.00    -0.025 A 
HETATM   26  N   UNL     1      41.533  -7.246  15.130  1.00  0.00    -0.067 N 
HETATM   27  C   UNL     1      41.983  -6.960  16.517  1.00  0.00     0.270 C 
HETATM   28  H   UNL     1      40.509  -7.317  15.122  1.00  0.00     0.280 HD
HETATM   29  C   UNL     1      41.888  -6.170  14.110  1.00  0.00     0.273 C 
HETATM   30  C   UNL     1      42.434  -6.431  11.588  1.00  0.00     0.012 A 
HETATM   31  C   UNL     1      42.774  -7.342  10.578  1.00  0.00     0.030 A 
ENDBRANCH  18  21
ENDBRANCH  13  17
ENDBRANCH  10  11
ENDBRANCH   9  10
ENDBRANCH   1   9
TORSDOF 5
ENDMDL
MODEL 10
REMARK VINA RESULT:      -8.2      1.936      2.585
REMARK  5 active torsions:
REMARK  status: ('A' for Active; 'I' for Inactive)
REMARK    1  A    between atoms: C_9  and  N_10 
REMARK       I    between atoms: N_10  and  C_11 
REMARK    2  A    between atoms: C_11  and  C_12 
REMARK    3  A    between atoms: C_14  and  O_15 
REMARK    4  A    between atoms: O_15  and  C_16 
REMARK    5  A    between atoms: C_16  and  C_17 
ROOT
HETATM    1  C   UNL     1      43.494 -17.998   3.236  1.00  0.00    -0.013 A 
HETATM    2  C   UNL     1      44.011 -18.407   4.482  1.00  0.00     0.053 A 
HETATM    3  C   UNL     1      44.313 -17.457   5.518  1.00  0.00     0.100 C 
HETATM    4  N   UNL     1      44.540 -16.691   6.360  1.00  0.00    -0.191 NA
HETATM    5  C   UNL     1      44.237 -19.769   4.735  1.00  0.00     0.023 A 
HETATM    6  C   UNL     1      43.952 -20.724   3.760  1.00  0.00     0.002 A 
HETATM    7  C   UNL     1      43.445 -20.328   2.526  1.00  0.00     0.001 A 
HETATM    8  C   UNL     1      43.218 -18.975   2.264  1.00  0.00     0.011 A 
ENDROOT
BRANCH   1   9
HETATM    9  C   UNL     1      43.236 -16.541   2.924  1.00  0.00     0.216 C 
BRANCH   9  10
HETATM   10  O   UNL     1      42.264 -16.476   1.883  1.00  0.00    -0.347 OA
BRANCH  10  11
HETATM   11  C   UNL     1      41.386 -15.429   1.915  1.00  0.00     0.070 A 
HETATM   12  C   UNL     1      41.249 -14.819   3.164  1.00  0.00     0.053 A 
HETATM   13  C   UNL     1      40.389 -13.728   3.338  1.00  0.00     0.035 A 
HETATM   14  C   UNL     1      39.682 -13.226   2.238  1.00  0.00     0.017 A 
HETATM   15  C   UNL     1      39.818 -13.833   0.989  1.00  0.00     0.004 A 
HETATM   16  C   UNL     1      40.666 -14.932   0.827  1.00  0.00     0.037 A 
BRANCH  13  17
HETATM   17  C   UNL     1      40.307 -13.094   4.685  1.00  0.00     0.256 C 
HETATM   18  N   UNL     1      40.447 -11.715   4.706  1.00  0.00    -0.323 N 
HETATM   19  H   UNL     1      40.459 -11.243   3.811  1.00  0.00     0.169 HD
HETATM   20  O   UNL     1      40.123 -13.812   5.662  1.00  0.00    -0.267 OA
BRANCH  18  21
HETATM   21  C   UNL     1      40.553 -10.890   5.846  1.00  0.00     0.035 A 
HETATM   22  C   UNL     1      41.769 -10.579   6.462  1.00  0.00     0.039 A 
HETATM   23  C   UNL     1      41.771  -9.717   7.548  1.00  0.00    -0.022 A 
HETATM   24  C   UNL     1      42.948  -9.229   8.317  1.00  0.00     0.274 C 
HETATM   25  C   UNL     1      40.590  -9.152   8.030  1.00  0.00    -0.025 A 
HETATM   26  N   UNL     1      42.348  -8.469   9.496  1.00  0.00    -0.067 N 
HETATM   27  C   UNL     1      43.110  -7.256   9.894  1.00  0.00     0.270 C 
HETATM   28  H   UNL     1      42.345  -9.131  10.280  1.00  0.00     0.280 HD
HETATM   29  C   UNL     1      40.884  -8.217   9.153  1.00  0.00     0.273 C 
HETATM   30  C   UNL     1      39.373  -9.452   7.444  1.00  0.00     0.012 A 
HETATM   31  C   UNL     1      39.362 -10.330   6.351  1.00  0.00     0.030 A 
ENDBRANCH  18  21
ENDBRANCH  13  17
ENDBRANCH  10  11
ENDBRANCH   9  10
ENDBRANCH   1   9
TORSDOF 5
ENDMDL
