MODEL 1
REMARK VINA RESULT:      -9.4      0.000      0.000
REMARK  7 active torsions:
REMARK  status: ('A' for Active; 'I' for Inactive)
REMARK       I    between atoms: N_2  and  C_3 
REMARK    1  A    between atoms: N_2  and  C_22 
REMARK    2  A    between atoms: C_3  and  C_4 
REMARK    3  A    between atoms: C_4  and  N_5 
REMARK    4  A    between atoms: N_5  and  C_6 
REMARK    5  A    between atoms: C_7  and  O_8 
REMARK    6  A    between atoms: C_22  and  C_23 
REMARK       I    between atoms: C_23  and  N_24 
REMARK    7  A    between atoms: N_24  and  C_25 
ROOT
HETATM    1  C   UNL     1      43.283 -11.041   6.350  1.00  0.00     0.195 C 
ENDROOT
BRANCH   1   2
HETATM    2  C   UNL     1      44.589 -10.791   7.133  1.00  0.00     0.233 C 
HETATM    3  N   UNL     1      44.685  -9.615   7.879  1.00  0.00    -0.347 N 
HETATM    4  C   UNL     1      45.979  -9.270   8.442  1.00  0.00     0.153 C 
HETATM    5  O   UNL     1      45.561 -11.533   6.953  1.00  0.00    -0.272 OA
BRANCH   3   6
HETATM    6  C   UNL     1      43.517  -8.959   8.482  1.00  0.00     0.228 C 
BRANCH   6   7
HETATM    7  C   UNL     1      43.181  -9.307   9.940  1.00  0.00     0.240 C 
HETATM    8  N   UNL     1      42.572  -8.290  10.652  1.00  0.00    -0.324 N 
HETATM    9  H   UNL     1      41.975  -7.698  10.078  1.00  0.00     0.169 HD
HETATM   10  O   UNL     1      43.463 -10.421  10.377  1.00  0.00    -0.271 OA
BRANCH   8  11
HETATM   11  C   UNL     1      42.224  -8.382  12.024  1.00  0.00     0.056 A 
HETATM   12  C   UNL     1      41.084  -9.027  12.536  1.00  0.00     0.060 A 
HETATM   13 CL   UNL     1      40.075 -10.071  11.591  1.00  0.00    -0.082 Cl
HETATM   14  C   UNL     1      40.802  -8.971  13.908  1.00  0.00     0.026 A 
HETATM   15  C   UNL     1      41.664  -8.309  14.782  1.00  0.00     0.002 A 
HETATM   16  C   UNL     1      42.831  -7.733  14.294  1.00  0.00     0.002 A 
HETATM   17  C   UNL     1      43.116  -7.787  12.928  1.00  0.00     0.031 A 
ENDBRANCH   8  11
ENDBRANCH   6   7
ENDBRANCH   3   6
ENDBRANCH   1   2
BRANCH   1  18
HETATM   18  N   UNL     1      42.731 -12.304   6.869  1.00  0.00    -0.282 NA
HETATM   19  H   UNL     1      41.835 -12.099   7.318  1.00  0.00     0.128 HD
BRANCH  18  20
HETATM   20  C   UNL     1      42.583 -13.411   6.008  1.00  0.00     0.045 A 
HETATM   21  C   UNL     1      41.786 -13.448   4.843  1.00  0.00     0.090 A 
HETATM   22  C   UNL     1      41.758 -14.569   3.987  1.00  0.00     0.053 A 
HETATM   23  C   UNL     1      42.615 -15.651   4.250  1.00  0.00     0.014 A 
HETATM   24  C   UNL     1      43.437 -15.573   5.364  1.00  0.00     0.089 A 
HETATM   25  C   UNL     1      42.907 -16.902   3.635  1.00  0.00     0.011 A 
HETATM   26  O   UNL     1      44.216 -16.683   5.468  1.00  0.00    -0.309 OA
HETATM   27  C   UNL     1      43.456 -14.494   6.246  1.00  0.00     0.064 A 
HETATM   28  C   UNL     1      43.895 -17.490   4.420  1.00  0.00     0.087 A 
HETATM   29  C   UNL     1      44.470 -18.731   4.156  1.00  0.00     0.038 A 
HETATM   30  C   UNL     1      44.005 -19.406   3.023  1.00  0.00     0.003 A 
HETATM   31  C   UNL     1      43.015 -18.852   2.208  1.00  0.00     0.001 A 
HETATM   32  C   UNL     1      42.455 -17.599   2.498  1.00  0.00     0.015 A 
BRANCH  21  33
HETATM   33  O   UNL     1      40.960 -12.392   4.537  1.00  0.00    -0.354 OA
HETATM   34  C   UNL     1      39.622 -12.630   4.987  1.00  0.00     0.210 C 
ENDBRANCH  21  33
ENDBRANCH  18  20
ENDBRANCH   1  18
TORSDOF 7
ENDMDL
MODEL 2
REMARK VINA RESULT:      -9.3      1.493      1.809
REMARK  7 active torsions:
REMARK  status: ('A' for Active; 'I' for Inactive)
REMARK       I    between atoms: N_2  and  C_3 
REMARK    1  A    between atoms: N_2  and  C_22 
REMARK    2  A    between atoms: C_3  and  C_4 
REMARK    3  A    between atoms: C_4  and  N_5 
REMARK    4  A    between atoms: N_5  and  C_6 
REMARK    5  A    between atoms: C_7  and  O_8 
REMARK    6  A    between atoms: C_22  and  C_23 
REMARK       I    between atoms: C_23  and  N_24 
REMARK    7  A    between atoms: N_24  and  C_25 
ROOT
HETATM    1  C   UNL     1      42.476 -12.516   5.982  1.00  0.00     0.195 C 
ENDROOT
BRANCH   1   2
HETATM    2  C   UNL     1      43.694 -11.991   6.770  1.00  0.00     0.233 C 
HETATM    3  N   UNL     1      43.648 -10.678   7.241  1.00  0.00    -0.347 N 
HETATM    4  C   UNL     1      44.865 -10.109   7.794  1.00  0.00     0.153 C 
HETATM    5  O   UNL     1      44.726 -12.668   6.822  1.00  0.00    -0.272 OA
BRANCH   3   6
HETATM    6  C   UNL     1      42.392 -10.009   7.607  1.00  0.00     0.228 C 
BRANCH   6   7
HETATM    7  C   UNL     1      42.382  -9.177   8.899  1.00  0.00     0.240 C 
HETATM    8  N   UNL     1      42.284  -9.917  10.063  1.00  0.00    -0.324 N 
HETATM    9  H   UNL     1      42.736 -10.828  10.000  1.00  0.00     0.169 HD
HETATM   10  O   UNL     1      42.454  -7.952   8.832  1.00  0.00    -0.271 OA
BRANCH   8  11
HETATM   11  C   UNL     1      42.208  -9.349  11.360  1.00  0.00     0.056 A 
HETATM   12  C   UNL     1      41.075  -9.362  12.192  1.00  0.00     0.060 A 
HETATM   13 CL   UNL     1      39.676 -10.336  11.882  1.00  0.00    -0.082 Cl
HETATM   14  C   UNL     1      41.097  -8.686  13.420  1.00  0.00     0.026 A 
HETATM   15  C   UNL     1      42.250  -8.027  13.846  1.00  0.00     0.002 A 
HETATM   16  C   UNL     1      43.398  -8.073  13.063  1.00  0.00     0.002 A 
HETATM   17  C   UNL     1      43.380  -8.746  11.839  1.00  0.00     0.031 A 
ENDBRANCH   8  11
ENDBRANCH   6   7
ENDBRANCH   3   6
ENDBRANCH   1   2
BRANCH   1  18
HETATM   18  N   UNL     1      42.955 -12.776   4.614  1.00  0.00    -0.282 NA
HETATM   19  H   UNL     1      43.904 -12.401   4.532  1.00  0.00     0.128 HD
BRANCH  18  20
HETATM   20  C   UNL     1      42.925 -14.089   4.098  1.00  0.00     0.045 A 
HETATM   21  C   UNL     1      42.711 -14.438   2.747  1.00  0.00     0.090 A 
HETATM   22  C   UNL     1      42.780 -15.773   2.296  1.00  0.00     0.053 A 
HETATM   23  C   UNL     1      43.160 -16.780   3.199  1.00  0.00     0.014 A 
HETATM   24  C   UNL     1      43.428 -16.411   4.509  1.00  0.00     0.089 A 
HETATM   25  C   UNL     1      43.377 -18.187   3.137  1.00  0.00     0.011 A 
HETATM   26  O   UNL     1      43.800 -17.491   5.248  1.00  0.00    -0.309 OA
HETATM   27  C   UNL     1      43.329 -15.106   4.989  1.00  0.00     0.064 A 
HETATM   28  C   UNL     1      43.769 -18.568   4.416  1.00  0.00     0.087 A 
HETATM   29  C   UNL     1      44.087 -19.875   4.781  1.00  0.00     0.038 A 
HETATM   30  C   UNL     1      43.998 -20.843   3.776  1.00  0.00     0.003 A 
HETATM   31  C   UNL     1      43.608 -20.503   2.478  1.00  0.00     0.001 A 
HETATM   32  C   UNL     1      43.295 -19.178   2.140  1.00  0.00     0.015 A 
BRANCH  21  33
HETATM   33  O   UNL     1      42.369 -13.472   1.830  1.00  0.00    -0.354 OA
HETATM   34  C   UNL     1      40.965 -13.489   1.553  1.00  0.00     0.210 C 
ENDBRANCH  21  33
ENDBRANCH  18  20
ENDBRANCH   1  18
TORSDOF 7
ENDMDL
MODEL 3
REMARK VINA RESULT:      -9.2      3.201      4.852
REMARK  7 active torsions:
REMARK  status: ('A' for Active; 'I' for Inactive)
REMARK       I    between atoms: N_2  and  C_3 
REMARK    1  A    between atoms: N_2  and  C_22 
REMARK    2  A    between atoms: C_3  and  C_4 
REMARK    3  A    between atoms: C_4  and  N_5 
REMARK    4  A    between atoms: N_5  and  C_6 
REMARK    5  A    between atoms: C_7  and  O_8 
REMARK    6  A    between atoms: C_22  and  C_23 
REMARK       I    between atoms: C_23  and  N_24 
REMARK    7  A    between atoms: N_24  and  C_25 
ROOT
HETATM    1  C   UNL     1      40.186 -13.036   5.069  1.00  0.00     0.195 C 
ENDROOT
BRANCH   1   2
HETATM    2  C   UNL     1      39.718 -11.705   4.443  1.00  0.00     0.233 C 
HETATM    3  N   UNL     1      39.329 -10.680   5.307  1.00  0.00    -0.347 N 
HETATM    4  C   UNL     1      38.689  -9.510   4.731  1.00  0.00     0.153 C 
HETATM    5  O   UNL     1      39.540 -11.634   3.222  1.00  0.00    -0.272 OA
BRANCH   3   6
HETATM    6  C   UNL     1      39.899 -10.516   6.652  1.00  0.00     0.228 C 
BRANCH   6   7
HETATM    7  C   UNL     1      41.385 -10.139   6.751  1.00  0.00     0.240 C 
HETATM    8  N   UNL     1      42.214 -11.159   7.179  1.00  0.00    -0.324 N 
HETATM    9  H   UNL     1      41.900 -12.083   6.885  1.00  0.00     0.169 HD
HETATM   10  O   UNL     1      41.741  -8.999   6.461  1.00  0.00    -0.271 OA
BRANCH   8  11
HETATM   11  C   UNL     1      43.609 -11.013   7.389  1.00  0.00     0.056 A 
HETATM   12  C   UNL     1      44.210 -10.481   8.542  1.00  0.00     0.060 A 
HETATM   13 CL   UNL     1      43.349 -10.190  10.018  1.00  0.00    -0.082 Cl
HETATM   14  C   UNL     1      45.600 -10.304   8.593  1.00  0.00     0.026 A 
HETATM   15  C   UNL     1      46.402 -10.687   7.519  1.00  0.00     0.002 A 
HETATM   16  C   UNL     1      45.822 -11.284   6.405  1.00  0.00     0.002 A 
HETATM   17  C   UNL     1      44.438 -11.462   6.351  1.00  0.00     0.031 A 
ENDBRANCH   8  11
ENDBRANCH   6   7
ENDBRANCH   3   6
ENDBRANCH   1   2
BRANCH   1  18
HETATM   18  N   UNL     1      41.624 -13.143   4.772  1.00  0.00    -0.282 NA
HETATM   19  H   UNL     1      42.131 -12.545   5.431  1.00  0.00     0.128 HD
BRANCH  18  20
HETATM   20  C   UNL     1      42.238 -14.412   4.724  1.00  0.00     0.045 A 
HETATM   21  C   UNL     1      42.855 -15.071   5.811  1.00  0.00     0.090 A 
HETATM   22  C   UNL     1      43.372 -16.379   5.700  1.00  0.00     0.053 A 
HETATM   23  C   UNL     1      43.192 -17.085   4.500  1.00  0.00     0.014 A 
HETATM   24  C   UNL     1      42.529 -16.446   3.462  1.00  0.00     0.089 A 
HETATM   25  C   UNL     1      43.516 -18.385   4.014  1.00  0.00     0.011 A 
HETATM   26  O   UNL     1      42.418 -17.266   2.382  1.00  0.00    -0.309 OA
HETATM   27  C   UNL     1      42.043 -15.142   3.532  1.00  0.00     0.064 A 
HETATM   28  C   UNL     1      43.017 -18.442   2.716  1.00  0.00     0.087 A 
HETATM   29  C   UNL     1      43.119 -19.556   1.886  1.00  0.00     0.038 A 
HETATM   30  C   UNL     1      43.769 -20.674   2.418  1.00  0.00     0.003 A 
HETATM   31  C   UNL     1      44.286 -20.659   3.717  1.00  0.00     0.001 A 
HETATM   32  C   UNL     1      44.167 -19.522   4.530  1.00  0.00     0.015 A 
BRANCH  21  33
HETATM   33  O   UNL     1      43.018 -14.420   7.011  1.00  0.00    -0.354 OA
HETATM   34  C   UNL     1      43.048 -15.343   8.104  1.00  0.00     0.210 C 
ENDBRANCH  21  33
ENDBRANCH  18  20
ENDBRANCH   1  18
TORSDOF 7
ENDMDL
MODEL 4
REMARK VINA RESULT:      -9.2      3.350      4.795
REMARK  7 active torsions:
REMARK  status: ('A' for Active; 'I' for Inactive)
REMARK       I    between atoms: N_2  and  C_3 
REMARK    1  A    between atoms: N_2  and  C_22 
REMARK    2  A    between atoms: C_3  and  C_4 
REMARK    3  A    between atoms: C_4  and  N_5 
REMARK    4  A    between atoms: N_5  and  C_6 
REMARK    5  A    between atoms: C_7  and  O_8 
REMARK    6  A    between atoms: C_22  and  C_23 
REMARK       I    between atoms: C_23  and  N_24 
REMARK    7  A    between atoms: N_24  and  C_25 
ROOT
HETATM    1  C   UNL     1      39.054 -11.979   3.813  1.00  0.00     0.195 C 
ENDROOT
BRANCH   1   2
HETATM    2  C   UNL     1      39.003 -10.472   4.141  1.00  0.00     0.233 C 
HETATM    3  N   UNL     1      39.246 -10.084   5.460  1.00  0.00    -0.347 N 
HETATM    4  C   UNL     1      38.990  -8.700   5.821  1.00  0.00     0.153 C 
HETATM    5  O   UNL     1      38.593  -9.675   3.290  1.00  0.00    -0.272 OA
BRANCH   3   6
HETATM    6  C   UNL     1      40.124 -10.841   6.362  1.00  0.00     0.228 C 
BRANCH   6   7
HETATM    7  C   UNL     1      41.628 -10.530   6.313  1.00  0.00     0.240 C 
HETATM    8  N   UNL     1      42.263 -10.546   7.541  1.00  0.00    -0.324 N 
HETATM    9  H   UNL     1      41.863 -11.218   8.192  1.00  0.00     0.169 HD
HETATM   10  O   UNL     1      42.163 -10.291   5.232  1.00  0.00    -0.271 OA
BRANCH   8  11
HETATM   11  C   UNL     1      43.635 -10.238   7.729  1.00  0.00     0.056 A 
HETATM   12  C   UNL     1      44.709 -11.109   7.476  1.00  0.00     0.060 A 
HETATM   13 CL   UNL     1      44.543 -12.601   6.611  1.00  0.00    -0.082 Cl
HETATM   14  C   UNL     1      46.019 -10.718   7.788  1.00  0.00     0.026 A 
HETATM   15  C   UNL     1      46.274  -9.452   8.315  1.00  0.00     0.002 A 
HETATM   16  C   UNL     1      45.225  -8.559   8.497  1.00  0.00     0.002 A 
HETATM   17  C   UNL     1      43.920  -8.944   8.188  1.00  0.00     0.031 A 
ENDBRANCH   8  11
ENDBRANCH   6   7
ENDBRANCH   3   6
ENDBRANCH   1   2
BRANCH   1  18
HETATM   18  N   UNL     1      40.395 -12.230   3.259  1.00  0.00    -0.282 NA
HETATM   19  H   UNL     1      41.077 -11.722   3.828  1.00  0.00     0.128 HD
BRANCH  18  20
HETATM   20  C   UNL     1      40.839 -13.556   3.070  1.00  0.00     0.045 A 
HETATM   21  C   UNL     1      40.633 -14.337   1.912  1.00  0.00     0.090 A 
HETATM   22  C   UNL     1      41.184 -15.628   1.769  1.00  0.00     0.053 A 
HETATM   23  C   UNL     1      42.037 -16.121   2.769  1.00  0.00     0.014 A 
HETATM   24  C   UNL     1      42.280 -15.316   3.873  1.00  0.00     0.089 A 
HETATM   25  C   UNL     1      42.795 -17.310   2.979  1.00  0.00     0.011 A 
HETATM   26  O   UNL     1      43.137 -15.924   4.736  1.00  0.00    -0.309 OA
HETATM   27  C   UNL     1      41.718 -14.054   4.056  1.00  0.00     0.064 A 
HETATM   28  C   UNL     1      43.450 -17.133   4.194  1.00  0.00     0.087 A 
HETATM   29  C   UNL     1      44.307 -18.072   4.765  1.00  0.00     0.038 A 
HETATM   30  C   UNL     1      44.504 -19.256   4.048  1.00  0.00     0.003 A 
HETATM   31  C   UNL     1      43.865 -19.473   2.824  1.00  0.00     0.001 A 
HETATM   32  C   UNL     1      43.008 -18.509   2.273  1.00  0.00     0.015 A 
BRANCH  21  33
HETATM   33  O   UNL     1      39.829 -13.871   0.898  1.00  0.00    -0.354 OA
HETATM   34  C   UNL     1      40.191 -14.446  -0.361  1.00  0.00     0.210 C 
ENDBRANCH  21  33
ENDBRANCH  18  20
ENDBRANCH   1  18
TORSDOF 7
ENDMDL
MODEL 5
REMARK VINA RESULT:      -9.1      2.497      3.680
REMARK  7 active torsions:
REMARK  status: ('A' for Active; 'I' for Inactive)
REMARK       I    between atoms: N_2  and  C_3 
REMARK    1  A    between atoms: N_2  and  C_22 
REMARK    2  A    between atoms: C_3  and  C_4 
REMARK    3  A    between atoms: C_4  and  N_5 
REMARK    4  A    between atoms: N_5  and  C_6 
REMARK    5  A    between atoms: C_7  and  O_8 
REMARK    6  A    between atoms: C_22  and  C_23 
REMARK       I    between atoms: C_23  and  N_24 
REMARK    7  A    between atoms: N_24  and  C_25 
ROOT
HETATM    1  C   UNL     1      41.514 -12.164   4.582  1.00  0.00     0.195 C 
ENDROOT
BRANCH   1   2
HETATM    2  C   UNL     1      41.613 -10.775   3.918  1.00  0.00     0.233 C 
HETATM    3  N   UNL     1      40.866  -9.734   4.474  1.00  0.00    -0.347 N 
HETATM    4  C   UNL     1      40.785  -8.485   3.736  1.00  0.00     0.153 C 
HETATM    5  O   UNL     1      42.202 -10.654   2.839  1.00  0.00    -0.272 OA
BRANCH   3   6
HETATM    6  C   UNL     1      40.535  -9.668   5.904  1.00  0.00     0.228 C 
BRANCH   6   7
HETATM    7  C   UNL     1      41.648  -9.235   6.870  1.00  0.00     0.240 C 
HETATM    8  N   UNL     1      42.227 -10.267   7.586  1.00  0.00    -0.324 N 
HETATM    9  H   UNL     1      42.257 -11.145   7.072  1.00  0.00     0.169 HD
HETATM   10  O   UNL     1      41.949  -8.046   6.954  1.00  0.00    -0.271 OA
BRANCH   8  11
HETATM   11  C   UNL     1      43.236 -10.083   8.566  1.00  0.00     0.056 A 
HETATM   12  C   UNL     1      43.026  -9.623   9.878  1.00  0.00     0.060 A 
HETATM   13 CL   UNL     1      41.457  -9.485  10.600  1.00  0.00    -0.082 Cl
HETATM   14  C   UNL     1      44.118  -9.396  10.727  1.00  0.00     0.026 A 
HETATM   15  C   UNL     1      45.418  -9.661  10.295  1.00  0.00     0.002 A 
HETATM   16  C   UNL     1      45.627 -10.187   9.025  1.00  0.00     0.002 A 
HETATM   17  C   UNL     1      44.542 -10.414   8.177  1.00  0.00     0.031 A 
ENDBRANCH   8  11
ENDBRANCH   6   7
ENDBRANCH   3   6
ENDBRANCH   1   2
BRANCH   1  18
HETATM   18  N   UNL     1      42.800 -12.833   4.323  1.00  0.00    -0.282 NA
HETATM   19  H   UNL     1      43.377 -12.751   5.165  1.00  0.00     0.128 HD
BRANCH  18  20
HETATM   20  C   UNL     1      42.818 -14.169   3.871  1.00  0.00     0.045 A 
HETATM   21  C   UNL     1      42.663 -14.588   2.532  1.00  0.00     0.090 A 
HETATM   22  C   UNL     1      42.778 -15.942   2.150  1.00  0.00     0.053 A 
HETATM   23  C   UNL     1      43.146 -16.894   3.114  1.00  0.00     0.014 A 
HETATM   24  C   UNL     1      43.355 -16.457   4.414  1.00  0.00     0.089 A 
HETATM   25  C   UNL     1      43.395 -18.297   3.129  1.00  0.00     0.011 A 
HETATM   26  O   UNL     1      43.723 -17.491   5.218  1.00  0.00    -0.309 OA
HETATM   27  C   UNL     1      43.210 -15.133   4.825  1.00  0.00     0.064 A 
HETATM   28  C   UNL     1      43.747 -18.607   4.439  1.00  0.00     0.087 A 
HETATM   29  C   UNL     1      44.079 -19.886   4.879  1.00  0.00     0.038 A 
HETATM   30  C   UNL     1      44.050 -20.904   3.920  1.00  0.00     0.003 A 
HETATM   31  C   UNL     1      43.702 -20.636   2.594  1.00  0.00     0.001 A 
HETATM   32  C   UNL     1      43.373 -19.337   2.180  1.00  0.00     0.015 A 
BRANCH  21  33
HETATM   33  O   UNL     1      42.336 -13.676   1.556  1.00  0.00    -0.354 OA
HETATM   34  C   UNL     1      40.946 -13.748   1.220  1.00  0.00     0.210 C 
ENDBRANCH  21  33
ENDBRANCH  18  20
ENDBRANCH   1  18
TORSDOF 7
ENDMDL
MODEL 6
REMARK VINA RESULT:      -9.0      5.494      9.097
REMARK  7 active torsions:
REMARK  status: ('A' for Active; 'I' for Inactive)
REMARK       I    between atoms: N_2  and  C_3 
REMARK    1  A    between atoms: N_2  and  C_22 
REMARK    2  A    between atoms: C_3  and  C_4 
REMARK    3  A    between atoms: C_4  and  N_5 
REMARK    4  A    between atoms: N_5  and  C_6 
REMARK    5  A    between atoms: C_7  and  O_8 
REMARK    6  A    between atoms: C_22  and  C_23 
REMARK       I    between atoms: C_23  and  N_24 
REMARK    7  A    between atoms: N_24  and  C_25 
ROOT
HETATM    1  C   UNL     1      41.848 -12.565   2.854  1.00  0.00     0.195 C 
ENDROOT
BRANCH   1   2
HETATM    2  C   UNL     1      40.408 -12.165   3.238  1.00  0.00     0.233 C 
HETATM    3  N   UNL     1      39.918 -10.953   2.751  1.00  0.00    -0.347 N 
HETATM    4  C   UNL     1      38.653 -10.470   3.277  1.00  0.00     0.153 C 
HETATM    5  O   UNL     1      39.796 -12.826   4.084  1.00  0.00    -0.272 OA
BRANCH   3   6
HETATM    6  C   UNL     1      40.355 -10.374   1.473  1.00  0.00     0.228 C 
BRANCH   6   7
HETATM    7  C   UNL     1      40.237 -11.254   0.219  1.00  0.00     0.240 C 
HETATM    8  N   UNL     1      39.106 -12.048   0.173  1.00  0.00    -0.324 N 
HETATM    9  H   UNL     1      38.298 -11.623   0.624  1.00  0.00     0.169 HD
HETATM   10  O   UNL     1      41.117 -11.209  -0.638  1.00  0.00    -0.271 OA
BRANCH   8  11
HETATM   11  C   UNL     1      38.825 -12.970  -0.868  1.00  0.00     0.056 A 
HETATM   12  C   UNL     1      39.412 -14.238  -1.015  1.00  0.00     0.060 A 
HETATM   13 CL   UNL     1      40.357 -15.001   0.221  1.00  0.00    -0.082 Cl
HETATM   14  C   UNL     1      39.118 -15.023  -2.140  1.00  0.00     0.026 A 
HETATM   15  C   UNL     1      38.216 -14.571  -3.102  1.00  0.00     0.002 A 
HETATM   16  C   UNL     1      37.575 -13.350  -2.925  1.00  0.00     0.002 A 
HETATM   17  C   UNL     1      37.865 -12.566  -1.806  1.00  0.00     0.031 A 
ENDBRANCH   8  11
ENDBRANCH   6   7
ENDBRANCH   3   6
ENDBRANCH   1   2
BRANCH   1  18
HETATM   18  N   UNL     1      42.501 -12.991   4.103  1.00  0.00    -0.282 NA
HETATM   19  H   UNL     1      41.902 -12.718   4.886  1.00  0.00     0.128 HD
BRANCH  18  20
HETATM   20  C   UNL     1      42.898 -14.336   4.264  1.00  0.00     0.045 A 
HETATM   21  C   UNL     1      43.143 -14.980   5.496  1.00  0.00     0.090 A 
HETATM   22  C   UNL     1      43.454 -16.354   5.576  1.00  0.00     0.053 A 
HETATM   23  C   UNL     1      43.433 -17.128   4.404  1.00  0.00     0.014 A 
HETATM   24  C   UNL     1      43.129 -16.492   3.210  1.00  0.00     0.089 A 
HETATM   25  C   UNL     1      43.643 -18.499   4.075  1.00  0.00     0.011 A 
HETATM   26  O   UNL     1      43.129 -17.378   2.177  1.00  0.00    -0.309 OA
HETATM   27  C   UNL     1      42.856 -15.130   3.098  1.00  0.00     0.064 A 
HETATM   28  C   UNL     1      43.441 -18.595   2.701  1.00  0.00     0.087 A 
HETATM   29  C   UNL     1      43.544 -19.780   1.976  1.00  0.00     0.038 A 
HETATM   30  C   UNL     1      43.871 -20.930   2.701  1.00  0.00     0.003 A 
HETATM   31  C   UNL     1      44.081 -20.877   4.081  1.00  0.00     0.001 A 
HETATM   32  C   UNL     1      43.970 -19.669   4.786  1.00  0.00     0.015 A 
BRANCH  21  33
HETATM   33  O   UNL     1      43.139 -14.258   6.667  1.00  0.00    -0.354 OA
HETATM   34  C   UNL     1      43.034 -15.116   7.808  1.00  0.00     0.210 C 
ENDBRANCH  21  33
ENDBRANCH  18  20
ENDBRANCH   1  18
TORSDOF 7
ENDMDL
MODEL 7
REMARK VINA RESULT:      -8.7      2.271      3.070
REMARK  7 active torsions:
REMARK  status: ('A' for Active; 'I' for Inactive)
REMARK       I    between atoms: N_2  and  C_3 
REMARK    1  A    between atoms: N_2  and  C_22 
REMARK    2  A    between atoms: C_3  and  C_4 
REMARK    3  A    between atoms: C_4  and  N_5 
REMARK    4  A    between atoms: N_5  and  C_6 
REMARK    5  A    between atoms: C_7  and  O_8 
REMARK    6  A    between atoms: C_22  and  C_23 
REMARK       I    between atoms: C_23  and  N_24 
REMARK    7  A    between atoms: N_24  and  C_25 
ROOT
HETATM    1  C   UNL     1      41.831 -11.996   5.577  1.00  0.00     0.195 C 
ENDROOT
BRANCH   1   2
HETATM    2  C   UNL     1      41.757 -10.645   4.836  1.00  0.00     0.233 C 
HETATM    3  N   UNL     1      40.770  -9.740   5.231  1.00  0.00    -0.347 N 
HETATM    4  C   UNL     1      40.555  -8.564   4.405  1.00  0.00     0.153 C 
HETATM    5  O   UNL     1      42.443 -10.464   3.825  1.00  0.00    -0.272 OA
BRANCH   3   6
HETATM    6  C   UNL     1      40.258  -9.672   6.606  1.00  0.00     0.228 C 
BRANCH   6   7
HETATM    7  C   UNL     1      41.144  -8.992   7.661  1.00  0.00     0.240 C 
HETATM    8  N   UNL     1      41.436  -9.774   8.764  1.00  0.00    -0.324 N 
HETATM    9  H   UNL     1      41.504 -10.766   8.546  1.00  0.00     0.169 HD
HETATM   10  O   UNL     1      41.528  -7.839   7.478  1.00  0.00    -0.271 OA
BRANCH   8  11
HETATM   11  C   UNL     1      42.194  -9.326   9.875  1.00  0.00     0.056 A 
HETATM   12  C   UNL     1      43.590  -9.429  10.006  1.00  0.00     0.060 A 
HETATM   13 CL   UNL     1      44.641  -9.854   8.696  1.00  0.00    -0.082 Cl
HETATM   14  C   UNL     1      44.216  -9.030  11.196  1.00  0.00     0.026 A 
HETATM   15  C   UNL     1      43.468  -8.494  12.244  1.00  0.00     0.002 A 
HETATM   16  C   UNL     1      42.097  -8.319  12.093  1.00  0.00     0.002 A 
HETATM   17  C   UNL     1      41.470  -8.715  10.910  1.00  0.00     0.031 A 
ENDBRANCH   8  11
ENDBRANCH   6   7
ENDBRANCH   3   6
ENDBRANCH   1   2
BRANCH   1  18
HETATM   18  N   UNL     1      43.091 -12.627   5.151  1.00  0.00    -0.282 NA
HETATM   19  H   UNL     1      43.743 -12.602   5.939  1.00  0.00     0.128 HD
BRANCH  18  20
HETATM   20  C   UNL     1      43.074 -13.925   4.598  1.00  0.00     0.045 A 
HETATM   21  C   UNL     1      42.981 -14.235   3.224  1.00  0.00     0.090 A 
HETATM   22  C   UNL     1      43.056 -15.560   2.745  1.00  0.00     0.053 A 
HETATM   23  C   UNL     1      43.320 -16.599   3.653  1.00  0.00     0.014 A 
HETATM   24  C   UNL     1      43.471 -16.271   4.992  1.00  0.00     0.089 A 
HETATM   25  C   UNL     1      43.503 -18.010   3.573  1.00  0.00     0.011 A 
HETATM   26  O   UNL     1      43.741 -17.379   5.733  1.00  0.00    -0.309 OA
HETATM   27  C   UNL     1      43.363 -14.976   5.495  1.00  0.00     0.064 A 
HETATM   28  C   UNL     1      43.761 -18.434   4.873  1.00  0.00     0.087 A 
HETATM   29  C   UNL     1      44.006 -19.758   5.231  1.00  0.00     0.038 A 
HETATM   30  C   UNL     1      43.987 -20.698   4.196  1.00  0.00     0.003 A 
HETATM   31  C   UNL     1      43.732 -20.315   2.877  1.00  0.00     0.001 A 
HETATM   32  C   UNL     1      43.490 -18.974   2.546  1.00  0.00     0.015 A 
BRANCH  21  33
HETATM   33  O   UNL     1      42.756 -13.237   2.305  1.00  0.00    -0.354 OA
HETATM   34  C   UNL     1      41.429 -13.309   1.772  1.00  0.00     0.210 C 
ENDBRANCH  21  33
ENDBRANCH  18  20
ENDBRANCH   1  18
TORSDOF 7
ENDMDL
MODEL 8
REMARK VINA RESULT:      -8.5      1.902      2.300
REMARK  7 active torsions:
REMARK  status: ('A' for Active; 'I' for Inactive)
REMARK       I    between atoms: N_2  and  C_3 
REMARK    1  A    between atoms: N_2  and  C_22 
REMARK    2  A    between atoms: C_3  and  C_4 
REMARK    3  A    between atoms: C_4  and  N_5 
REMARK    4  A    between atoms: N_5  and  C_6 
REMARK    5  A    between atoms: C_7  and  O_8 
REMARK    6  A    between atoms: C_22  and  C_23 
REMARK       I    between atoms: C_23  and  N_24 
REMARK    7  A    between atoms: N_24  and  C_25 
ROOT
HETATM    1  C   UNL     1      41.406 -11.126   5.848  1.00  0.00     0.195 C 
ENDROOT
BRANCH   1   2
HETATM    2  C   UNL     1      40.340 -10.162   6.408  1.00  0.00     0.233 C 
HETATM    3  N   UNL     1      40.526  -9.665   7.699  1.00  0.00    -0.347 N 
HETATM    4  C   UNL     1      39.431  -8.933   8.311  1.00  0.00     0.153 C 
HETATM    5  O   UNL     1      39.288  -9.986   5.785  1.00  0.00    -0.272 OA
BRANCH   3   6
HETATM    6  C   UNL     1      41.857  -9.459   8.287  1.00  0.00     0.228 C 
BRANCH   6   7
HETATM    7  C   UNL     1      41.930  -8.736   9.641  1.00  0.00     0.240 C 
HETATM    8  N   UNL     1      41.991  -9.572  10.741  1.00  0.00    -0.324 N 
HETATM    9  H   UNL     1      42.484 -10.443  10.557  1.00  0.00     0.169 HD
HETATM   10  O   UNL     1      41.926  -7.507   9.673  1.00  0.00    -0.271 OA
BRANCH   8  11
HETATM   11  C   UNL     1      42.013  -9.115  12.084  1.00  0.00     0.056 A 
HETATM   12  C   UNL     1      41.045  -9.403  13.060  1.00  0.00     0.060 A 
HETATM   13 CL   UNL     1      39.817 -10.609  12.859  1.00  0.00    -0.082 Cl
HETATM   14  C   UNL     1      41.131  -8.817  14.331  1.00  0.00     0.026 A 
HETATM   15  C   UNL     1      42.196  -7.974  14.651  1.00  0.00     0.002 A 
HETATM   16  C   UNL     1      43.197  -7.745  13.715  1.00  0.00     0.002 A 
HETATM   17  C   UNL     1      43.114  -8.327  12.449  1.00  0.00     0.031 A 
ENDBRANCH   8  11
ENDBRANCH   6   7
ENDBRANCH   3   6
ENDBRANCH   1   2
BRANCH   1  18
HETATM   18  N   UNL     1      41.086 -12.454   6.399  1.00  0.00    -0.282 NA
HETATM   19  H   UNL     1      40.128 -12.427   6.759  1.00  0.00     0.128 HD
BRANCH  18  20
HETATM   20  C   UNL     1      41.255 -13.605   5.601  1.00  0.00     0.045 A 
HETATM   21  C   UNL     1      40.580 -13.874   4.390  1.00  0.00     0.090 A 
HETATM   22  C   UNL     1      40.869 -15.011   3.606  1.00  0.00     0.053 A 
HETATM   23  C   UNL     1      41.920 -15.858   3.994  1.00  0.00     0.014 A 
HETATM   24  C   UNL     1      42.614 -15.545   5.154  1.00  0.00     0.089 A 
HETATM   25  C   UNL     1      42.530 -17.039   3.480  1.00  0.00     0.011 A 
HETATM   26  O   UNL     1      43.608 -16.446   5.379  1.00  0.00    -0.309 OA
HETATM   27  C   UNL     1      42.324 -14.451   5.965  1.00  0.00     0.064 A 
HETATM   28  C   UNL     1      43.558 -17.352   4.364  1.00  0.00     0.087 A 
HETATM   29  C   UNL     1      44.412 -18.443   4.217  1.00  0.00     0.038 A 
HETATM   30  C   UNL     1      44.199 -19.257   3.100  1.00  0.00     0.003 A 
HETATM   31  C   UNL     1      43.178 -18.978   2.188  1.00  0.00     0.001 A 
HETATM   32  C   UNL     1      42.334 -17.871   2.361  1.00  0.00     0.015 A 
BRANCH  21  33
HETATM   33  O   UNL     1      39.568 -13.046   3.965  1.00  0.00    -0.354 OA
HETATM   34  C   UNL     1      39.778 -12.616   2.616  1.00  0.00     0.210 C 
ENDBRANCH  21  33
ENDBRANCH  18  20
ENDBRANCH   1  18
TORSDOF 7
ENDMDL
MODEL 9
REMARK VINA RESULT:      -8.4      2.259      2.694
REMARK  7 active torsions:
REMARK  status: ('A' for Active; 'I' for Inactive)
REMARK       I    between atoms: N_2  and  C_3 
REMARK    1  A    between atoms: N_2  and  C_22 
REMARK    2  A    between atoms: C_3  and  C_4 
REMARK    3  A    between atoms: C_4  and  N_5 
REMARK    4  A    between atoms: N_5  and  C_6 
REMARK    5  A    between atoms: C_7  and  O_8 
REMARK    6  A    between atoms: C_22  and  C_23 
REMARK       I    between atoms: C_23  and  N_24 
REMARK    7  A    between atoms: N_24  and  C_25 
ROOT
HETATM    1  C   UNL     1      43.459 -11.918   6.927  1.00  0.00     0.195 C 
ENDROOT
BRANCH   1   2
HETATM    2  C   UNL     1      44.860 -11.281   7.039  1.00  0.00     0.233 C 
HETATM    3  N   UNL     1      45.030 -10.239   7.952  1.00  0.00    -0.347 N 
HETATM    4  C   UNL     1      46.278  -9.496   7.913  1.00  0.00     0.153 C 
HETATM    5  O   UNL     1      45.736 -11.584   6.222  1.00  0.00    -0.272 OA
BRANCH   3   6
HETATM    6  C   UNL     1      44.246 -10.132   9.190  1.00  0.00     0.228 C 
BRANCH   6   7
HETATM    7  C   UNL     1      43.149  -9.057   9.245  1.00  0.00     0.240 C 
HETATM    8  N   UNL     1      43.615  -7.755   9.266  1.00  0.00    -0.324 N 
HETATM    9  H   UNL     1      44.481  -7.629   8.747  1.00  0.00     0.169 HD
HETATM   10  O   UNL     1      41.968  -9.397   9.268  1.00  0.00    -0.271 OA
BRANCH   8  11
HETATM   11  C   UNL     1      42.777  -6.615   9.366  1.00  0.00     0.056 A 
HETATM   12  C   UNL     1      42.075  -6.022   8.302  1.00  0.00     0.060 A 
HETATM   13 CL   UNL     1      41.887  -6.769   6.750  1.00  0.00    -0.082 Cl
HETATM   14  C   UNL     1      41.349  -4.841   8.511  1.00  0.00     0.026 A 
HETATM   15  C   UNL     1      41.285  -4.263   9.779  1.00  0.00     0.002 A 
HETATM   16  C   UNL     1      41.915  -4.885  10.851  1.00  0.00     0.002 A 
HETATM   17  C   UNL     1      42.638  -6.062  10.647  1.00  0.00     0.031 A 
ENDBRANCH   8  11
ENDBRANCH   6   7
ENDBRANCH   3   6
ENDBRANCH   1   2
BRANCH   1  18
HETATM   18  N   UNL     1      43.628 -13.341   7.267  1.00  0.00    -0.282 NA
HETATM   19  H   UNL     1      43.051 -13.543   8.087  1.00  0.00     0.128 HD
BRANCH  18  20
HETATM   20  C   UNL     1      43.407 -14.328   6.283  1.00  0.00     0.045 A 
HETATM   21  C   UNL     1      42.968 -14.091   4.962  1.00  0.00     0.090 A 
HETATM   22  C   UNL     1      42.853 -15.128   4.012  1.00  0.00     0.053 A 
HETATM   23  C   UNL     1      43.272 -16.422   4.360  1.00  0.00     0.014 A 
HETATM   24  C   UNL     1      43.760 -16.626   5.643  1.00  0.00     0.089 A 
HETATM   25  C   UNL     1      43.353 -17.686   3.707  1.00  0.00     0.011 A 
HETATM   26  O   UNL     1      44.141 -17.920   5.815  1.00  0.00    -0.309 OA
HETATM   27  C   UNL     1      43.847 -15.628   6.611  1.00  0.00     0.064 A 
HETATM   28  C   UNL     1      43.894 -18.564   4.641  1.00  0.00     0.087 A 
HETATM   29  C   UNL     1      44.147 -19.912   4.395  1.00  0.00     0.038 A 
HETATM   30  C   UNL     1      43.826 -20.384   3.118  1.00  0.00     0.003 A 
HETATM   31  C   UNL     1      43.281 -19.537   2.150  1.00  0.00     0.001 A 
HETATM   32  C   UNL     1      43.039 -18.183   2.427  1.00  0.00     0.015 A 
BRANCH  21  33
HETATM   33  O   UNL     1      42.581 -12.828   4.579  1.00  0.00    -0.354 OA
HETATM   34  C   UNL     1      41.319 -12.852   3.904  1.00  0.00     0.210 C 
ENDBRANCH  21  33
ENDBRANCH  18  20
ENDBRANCH   1  18
TORSDOF 7
ENDMDL
MODEL 10
REMARK VINA RESULT:      -8.1      4.924      8.582
REMARK  7 active torsions:
REMARK  status: ('A' for Active; 'I' for Inactive)
REMARK       I    between atoms: N_2  and  C_3 
REMARK    1  A    between atoms: N_2  and  C_22 
REMARK    2  A    between atoms: C_3  and  C_4 
REMARK    3  A    between atoms: C_4  and  N_5 
REMARK    4  A    between atoms: N_5  and  C_6 
REMARK    5  A    between atoms: C_7  and  O_8 
REMARK    6  A    between atoms: C_22  and  C_23 
REMARK       I    between atoms: C_23  and  N_24 
REMARK    7  A    between atoms: N_24  and  C_25 
ROOT
HETATM    1  C   UNL     1      40.945 -11.212   4.781  1.00  0.00     0.195 C 
ENDROOT
BRANCH   1   2
HETATM    2  C   UNL     1      42.327 -11.724   5.240  1.00  0.00     0.233 C 
HETATM    3  N   UNL     1      42.359 -12.774   6.159  1.00  0.00    -0.347 N 
HETATM    4  C   UNL     1      43.638 -13.118   6.756  1.00  0.00     0.153 C 
HETATM    5  O   UNL     1      43.345 -11.100   4.924  1.00  0.00    -0.272 OA
BRANCH   3   6
HETATM    6  C   UNL     1      41.311 -13.802   6.228  1.00  0.00     0.228 C 
BRANCH   6   7
HETATM    7  C   UNL     1      41.674 -15.218   5.756  1.00  0.00     0.240 C 
HETATM    8  N   UNL     1      42.437 -15.267   4.604  1.00  0.00    -0.324 N 
HETATM    9  H   UNL     1      43.072 -14.477   4.509  1.00  0.00     0.169 HD
HETATM   10  O   UNL     1      41.281 -16.190   6.398  1.00  0.00    -0.271 OA
BRANCH   8  11
HETATM   11  C   UNL     1      42.839 -16.470   3.970  1.00  0.00     0.056 A 
HETATM   12  C   UNL     1      42.247 -17.026   2.823  1.00  0.00     0.060 A 
HETATM   13 CL   UNL     1      41.116 -16.173   1.826  1.00  0.00    -0.082 Cl
HETATM   14  C   UNL     1      42.678 -18.270   2.342  1.00  0.00     0.026 A 
HETATM   15  C   UNL     1      43.721 -18.950   2.971  1.00  0.00     0.002 A 
HETATM   16  C   UNL     1      44.361 -18.372   4.061  1.00  0.00     0.002 A 
HETATM   17  C   UNL     1      43.935 -17.132   4.543  1.00  0.00     0.031 A 
ENDBRANCH   8  11
ENDBRANCH   6   7
ENDBRANCH   3   6
ENDBRANCH   1   2
BRANCH   1  18
HETATM   18  N   UNL     1      41.136 -10.689   3.418  1.00  0.00    -0.282 NA
HETATM   19  H   UNL     1      42.119 -10.816   3.162  1.00  0.00     0.128 HD
BRANCH  18  20
HETATM   20  C   UNL     1      40.315 -11.152   2.368  1.00  0.00     0.045 A 
HETATM   21  C   UNL     1      39.118 -10.544   1.929  1.00  0.00     0.090 A 
HETATM   22  C   UNL     1      38.398 -11.023   0.813  1.00  0.00     0.053 A 
HETATM   23  C   UNL     1      38.931 -12.081   0.059  1.00  0.00     0.014 A 
HETATM   24  C   UNL     1      40.140 -12.626   0.467  1.00  0.00     0.089 A 
HETATM   25  C   UNL     1      38.552 -12.802  -1.110  1.00  0.00     0.011 A 
HETATM   26  O   UNL     1      40.529 -13.622  -0.374  1.00  0.00    -0.309 OA
HETATM   27  C   UNL     1      40.851 -12.198   1.587  1.00  0.00     0.064 A 
HETATM   28  C   UNL     1      39.567 -13.729  -1.331  1.00  0.00     0.087 A 
HETATM   29  C   UNL     1      39.584 -14.633  -2.390  1.00  0.00     0.038 A 
HETATM   30  C   UNL     1      38.500 -14.582  -3.272  1.00  0.00     0.003 A 
HETATM   31  C   UNL     1      37.460 -13.667  -3.087  1.00  0.00     0.001 A 
HETATM   32  C   UNL     1      37.471 -12.767  -2.011  1.00  0.00     0.015 A 
BRANCH  21  33
HETATM   33  O   UNL     1      38.586  -9.485   2.625  1.00  0.00    -0.354 OA
HETATM   34  C   UNL     1      37.538  -8.849   1.886  1.00  0.00     0.210 C 
ENDBRANCH  21  33
ENDBRANCH  18  20
ENDBRANCH   1  18
TORSDOF 7
ENDMDL
