MODEL 1
REMARK VINA RESULT:     -10.8      0.000      0.000
REMARK  4 active torsions:
REMARK  status: ('A' for Active; 'I' for Inactive)
REMARK    1  A    between atoms: C_2  and  C_3 
REMARK    2  A    between atoms: C_6  and  N_7 
REMARK       I    between atoms: N_7  and  C_8 
REMARK       I    between atoms: C_8  and  N_9 
REMARK    3  A    between atoms: N_9  and  C_10 
REMARK       I    between atoms: N_19  and  C_20 
REMARK       I    between atoms: C_20  and  N_21 
REMARK    4  A    between atoms: N_21  and  C_22 
ROOT
HETATM    1  C   UNL     1      42.305 -11.669   5.656  1.00  0.00     0.105 A 
HETATM    2  C   UNL     1      43.524 -11.905   6.519  1.00  0.00     0.274 A 
HETATM    3  O   UNL     1      44.129 -12.976   6.406  1.00  0.00    -0.265 OA
HETATM    4  N   UNL     1      43.909 -10.871   7.383  1.00  0.00    -0.315 N 
HETATM    5  C   UNL     1      43.226  -9.659   7.435  1.00  0.00     0.020 A 
HETATM    6  C   UNL     1      43.754  -8.537   8.311  1.00  0.00     0.054 C 
HETATM    7  C   UNL     1      45.268  -8.625   8.452  1.00  0.00     0.020 C 
HETATM    8  C   UNL     1      45.576  -9.968   9.096  1.00  0.00     0.023 C 
HETATM    9  C   UNL     1      44.939 -10.050  10.490  1.00  0.00     0.134 C 
HETATM   10  N   UNL     1      43.529  -9.668  10.559  1.00  0.00    -0.333 N 
HETATM   11  C   UNL     1      42.854 -10.060  11.715  1.00  0.00     0.318 C 
HETATM   12  N   UNL     1      41.610  -9.506  11.890  1.00  0.00    -0.338 N 
HETATM   13  O   UNL     1      43.331 -10.854  12.523  1.00  0.00    -0.247 OA
HETATM   14  C   UNL     1      43.092  -8.564   9.698  1.00  0.00     0.138 C 
HETATM   15  C   UNL     1      45.120 -11.105   8.171  1.00  0.00     0.138 C 
HETATM   16  C   UNL     1      42.128  -9.480   6.683  1.00  0.00     0.028 A 
HETATM   17  C   UNL     1      41.649 -10.509   5.799  1.00  0.00     0.037 A 
HETATM   18  H   UNL     1      41.440  -8.624  11.444  1.00  0.00     0.164 HD
ENDROOT
BRANCH   1  19
HETATM   19  N   UNL     1      42.006 -12.678   4.758  1.00  0.00    -0.304 N 
HETATM   20  C   UNL     1      40.968 -12.747   3.878  1.00  0.00     0.325 C 
HETATM   21  N   UNL     1      40.966 -13.759   2.966  1.00  0.00    -0.309 N 
HETATM   22  O   UNL     1      40.073 -11.907   3.779  1.00  0.00    -0.247 OA
HETATM   23  H   UNL     1      40.313 -13.542   2.221  1.00  0.00     0.170 HD
HETATM   24  H   UNL     1      42.756 -13.351   4.655  1.00  0.00     0.171 HD
BRANCH  21  25
HETATM   25  C   UNL     1      41.664 -14.969   2.840  1.00  0.00     0.036 A 
HETATM   26  C   UNL     1      42.585 -15.256   1.831  1.00  0.00     0.030 A 
HETATM   27  C   UNL     1      43.252 -16.492   1.809  1.00  0.00     0.017 A 
HETATM   28  C   UNL     1      43.015 -17.445   2.806  1.00  0.00     0.009 A 
HETATM   29  C   UNL     1      42.108 -17.148   3.828  1.00  0.00     0.017 A 
HETATM   30  C   UNL     1      41.453 -15.916   3.850  1.00  0.00     0.030 A 
BRANCH  28  31
HETATM   31  C   UNL     1      43.701 -18.770   2.836  1.00  0.00     0.155 C 
HETATM   32  C   UNL     1      43.180 -19.882   1.963  1.00  0.00     0.096 C 
HETATM   33  O   UNL     1      44.675 -18.938   3.567  1.00  0.00    -0.293 OA
ENDBRANCH  28  31
ENDBRANCH  21  25
ENDBRANCH   1  19
BRANCH  12  34
HETATM   34  C   UNL     1      40.818  -9.768  13.089  1.00  0.00     0.086 C 
HETATM   35  C   UNL     1      41.316  -8.925  14.272  1.00  0.00     0.025 C 
HETATM   36  C   UNL     1      40.983  -7.440  14.119  1.00  0.00     0.002 C 
HETATM   37  C   UNL     1      39.496  -7.218  13.863  1.00  0.00     0.000 C 
HETATM   38  C   UNL     1      38.999  -8.026  12.670  1.00  0.00     0.002 C 
HETATM   39  C   UNL     1      39.331  -9.511  12.814  1.00  0.00     0.025 C 
ENDBRANCH  12  34
TORSDOF 4
ENDMDL
MODEL 2
REMARK VINA RESULT:     -10.5      2.378      3.196
REMARK  4 active torsions:
REMARK  status: ('A' for Active; 'I' for Inactive)
REMARK    1  A    between atoms: C_2  and  C_3 
REMARK    2  A    between atoms: C_6  and  N_7 
REMARK       I    between atoms: N_7  and  C_8 
REMARK       I    between atoms: C_8  and  N_9 
REMARK    3  A    between atoms: N_9  and  C_10 
REMARK       I    between atoms: N_19  and  C_20 
REMARK       I    between atoms: C_20  and  N_21 
REMARK    4  A    between atoms: N_21  and  C_22 
ROOT
HETATM    1  C   UNL     1      41.468 -11.003   5.678  1.00  0.00     0.105 A 
HETATM    2  C   UNL     1      42.718 -11.576   6.306  1.00  0.00     0.274 A 
HETATM    3  O   UNL     1      43.052 -12.727   6.011  1.00  0.00    -0.265 OA
HETATM    4  N   UNL     1      43.440 -10.744   7.173  1.00  0.00    -0.315 N 
HETATM    5  C   UNL     1      43.052  -9.431   7.431  1.00  0.00     0.020 A 
HETATM    6  C   UNL     1      43.932  -8.545   8.293  1.00  0.00     0.054 C 
HETATM    7  C   UNL     1      45.395  -8.953   8.175  1.00  0.00     0.020 C 
HETATM    8  C   UNL     1      45.493 -10.393   8.652  1.00  0.00     0.023 C 
HETATM    9  C   UNL     1      45.062 -10.500  10.122  1.00  0.00     0.134 C 
HETATM   10  N   UNL     1      43.795  -9.850  10.452  1.00  0.00    -0.333 N 
HETATM   11  C   UNL     1      43.225 -10.222  11.670  1.00  0.00     0.318 C 
HETATM   12  N   UNL     1      42.170  -9.451  12.090  1.00  0.00    -0.338 N 
HETATM   13  O   UNL     1      43.630 -11.181  12.323  1.00  0.00    -0.247 OA
HETATM   14  C   UNL     1      43.488  -8.591   9.764  1.00  0.00     0.138 C 
HETATM   15  C   UNL     1      44.672 -11.305   7.729  1.00  0.00     0.138 C 
HETATM   16  C   UNL     1      41.922  -8.951   6.887  1.00  0.00     0.028 A 
HETATM   17  C   UNL     1      41.108  -9.757   6.016  1.00  0.00     0.037 A 
HETATM   18  H   UNL     1      42.134  -8.509  11.748  1.00  0.00     0.164 HD
ENDROOT
BRANCH   1  19
HETATM   19  N   UNL     1      40.829 -11.824   4.765  1.00  0.00    -0.304 N 
HETATM   20  C   UNL     1      39.849 -12.742   4.995  1.00  0.00     0.325 C 
HETATM   21  N   UNL     1      39.244 -13.317   3.918  1.00  0.00    -0.309 N 
HETATM   22  O   UNL     1      39.399 -13.027   6.104  1.00  0.00    -0.247 OA
HETATM   23  H   UNL     1      38.377 -13.754   4.211  1.00  0.00     0.170 HD
HETATM   24  H   UNL     1      41.022 -11.571   3.803  1.00  0.00     0.171 HD
BRANCH  21  25
HETATM   25  C   UNL     1      39.546 -13.405   2.552  1.00  0.00     0.036 A 
HETATM   26  C   UNL     1      40.189 -14.485   1.945  1.00  0.00     0.030 A 
HETATM   27  C   UNL     1      40.422 -14.487   0.560  1.00  0.00     0.017 A 
HETATM   28  C   UNL     1      39.999 -13.413  -0.233  1.00  0.00     0.009 A 
HETATM   29  C   UNL     1      39.337 -12.341   0.372  1.00  0.00     0.017 A 
HETATM   30  C   UNL     1      39.101 -12.347   1.749  1.00  0.00     0.030 A 
BRANCH  28  31
HETATM   31  C   UNL     1      40.214 -13.365  -1.709  1.00  0.00     0.155 C 
HETATM   32  C   UNL     1      39.493 -14.356  -2.585  1.00  0.00     0.096 C 
HETATM   33  O   UNL     1      40.971 -12.524  -2.189  1.00  0.00    -0.293 OA
ENDBRANCH  28  31
ENDBRANCH  21  25
ENDBRANCH   1  19
BRANCH  12  34
HETATM   34  C   UNL     1      41.522  -9.678  13.379  1.00  0.00     0.086 C 
HETATM   35  C   UNL     1      42.010  -8.665  14.426  1.00  0.00     0.025 C 
HETATM   36  C   UNL     1      41.481  -7.253  14.169  1.00  0.00     0.002 C 
HETATM   37  C   UNL     1      39.961  -7.234  14.040  1.00  0.00     0.000 C 
HETATM   38  C   UNL     1      39.469  -8.214  12.980  1.00  0.00     0.002 C 
HETATM   39  C   UNL     1      39.997  -9.626  13.228  1.00  0.00     0.025 C 
ENDBRANCH  12  34
TORSDOF 4
ENDMDL
MODEL 3
REMARK VINA RESULT:     -10.2      2.385      3.681
REMARK  4 active torsions:
REMARK  status: ('A' for Active; 'I' for Inactive)
REMARK    1  A    between atoms: C_2  and  C_3 
REMARK    2  A    between atoms: C_6  and  N_7 
REMARK       I    between atoms: N_7  and  C_8 
REMARK       I    between atoms: C_8  and  N_9 
REMARK    3  A    between atoms: N_9  and  C_10 
REMARK       I    between atoms: N_19  and  C_20 
REMARK       I    between atoms: C_20  and  N_21 
REMARK    4  A    between atoms: N_21  and  C_22 
ROOT
HETATM    1  C   UNL     1      40.144 -11.783   4.871  1.00  0.00     0.105 A 
HETATM    2  C   UNL     1      40.785 -10.483   4.441  1.00  0.00     0.274 A 
HETATM    3  O   UNL     1      41.473 -10.475   3.416  1.00  0.00    -0.265 OA
HETATM    4  N   UNL     1      40.533  -9.351   5.230  1.00  0.00    -0.315 N 
HETATM    5  C   UNL     1      39.704  -9.400   6.348  1.00  0.00     0.020 A 
HETATM    6  C   UNL     1      39.382  -8.120   7.098  1.00  0.00     0.054 C 
HETATM    7  C   UNL     1      39.420  -6.918   6.164  1.00  0.00     0.020 C 
HETATM    8  C   UNL     1      40.828  -6.840   5.597  1.00  0.00     0.023 C 
HETATM    9  C   UNL     1      41.847  -6.627   6.726  1.00  0.00     0.134 C 
HETATM   10  N   UNL     1      41.715  -7.530   7.869  1.00  0.00    -0.333 N 
HETATM   11  C   UNL     1      42.815  -7.585   8.724  1.00  0.00     0.318 C 
HETATM   12  N   UNL     1      42.609  -8.243   9.911  1.00  0.00    -0.338 N 
HETATM   13  O   UNL     1      43.902  -7.089   8.436  1.00  0.00    -0.247 OA
HETATM   14  C   UNL     1      40.356  -7.909   8.269  1.00  0.00     0.138 C 
HETATM   15  C   UNL     1      41.125  -8.096   4.765  1.00  0.00     0.138 C 
HETATM   16  C   UNL     1      39.168 -10.570   6.730  1.00  0.00     0.028 A 
HETATM   17  C   UNL     1      39.411 -11.782   5.993  1.00  0.00     0.037 A 
HETATM   18  H   UNL     1      41.666  -8.281  10.250  1.00  0.00     0.164 HD
ENDROOT
BRANCH   1  19
HETATM   19  N   UNL     1      40.348 -12.857   4.023  1.00  0.00    -0.304 N 
HETATM   20  C   UNL     1      39.659 -13.186   2.895  1.00  0.00     0.325 C 
HETATM   21  N   UNL     1      40.144 -14.195   2.118  1.00  0.00    -0.309 N 
HETATM   22  O   UNL     1      38.677 -12.579   2.468  1.00  0.00    -0.247 OA
HETATM   23  H   UNL     1      39.713 -14.155   1.202  1.00  0.00     0.170 HD
HETATM   24  H   UNL     1      41.220 -13.340   4.201  1.00  0.00     0.171 HD
BRANCH  21  25
HETATM   25  C   UNL     1      41.089 -15.214   2.308  1.00  0.00     0.036 A 
HETATM   26  C   UNL     1      42.218 -15.414   1.511  1.00  0.00     0.030 A 
HETATM   27  C   UNL     1      43.120 -16.450   1.804  1.00  0.00     0.017 A 
HETATM   28  C   UNL     1      42.908 -17.286   2.906  1.00  0.00     0.009 A 
HETATM   29  C   UNL     1      41.789 -17.072   3.716  1.00  0.00     0.017 A 
HETATM   30  C   UNL     1      40.899 -16.036   3.426  1.00  0.00     0.030 A 
BRANCH  28  31
HETATM   31  C   UNL     1      43.837 -18.397   3.267  1.00  0.00     0.155 C 
HETATM   32  C   UNL     1      43.808 -19.666   2.456  1.00  0.00     0.096 C 
HETATM   33  O   UNL     1      44.609 -18.265   4.214  1.00  0.00    -0.293 OA
ENDBRANCH  28  31
ENDBRANCH  21  25
ENDBRANCH   1  19
BRANCH  12  34
HETATM   34  C   UNL     1      43.648  -8.317  10.935  1.00  0.00     0.086 C 
HETATM   35  C   UNL     1      43.035  -8.318  12.343  1.00  0.00     0.025 C 
HETATM   36  C   UNL     1      42.320  -9.630  12.672  1.00  0.00     0.002 C 
HETATM   37  C   UNL     1      43.228 -10.837  12.458  1.00  0.00     0.000 C 
HETATM   38  C   UNL     1      43.817 -10.862  11.052  1.00  0.00     0.002 C 
HETATM   39  C   UNL     1      44.530  -9.553  10.715  1.00  0.00     0.025 C 
ENDBRANCH  12  34
TORSDOF 4
ENDMDL
MODEL 4
REMARK VINA RESULT:      -9.5      6.738     10.229
REMARK  4 active torsions:
REMARK  status: ('A' for Active; 'I' for Inactive)
REMARK    1  A    between atoms: C_2  and  C_3 
REMARK    2  A    between atoms: C_6  and  N_7 
REMARK       I    between atoms: N_7  and  C_8 
REMARK       I    between atoms: C_8  and  N_9 
REMARK    3  A    between atoms: N_9  and  C_10 
REMARK       I    between atoms: N_19  and  C_20 
REMARK       I    between atoms: C_20  and  N_21 
REMARK    4  A    between atoms: N_21  and  C_22 
ROOT
HETATM    1  C   UNL     1      40.851 -13.124   1.877  1.00  0.00     0.105 A 
HETATM    2  C   UNL     1      40.390 -13.520   0.492  1.00  0.00     0.274 A 
HETATM    3  O   UNL     1      40.819 -14.570   0.005  1.00  0.00    -0.265 OA
HETATM    4  N   UNL     1      39.475 -12.671  -0.146  1.00  0.00    -0.315 N 
HETATM    5  C   UNL     1      38.978 -11.524   0.468  1.00  0.00     0.020 A 
HETATM    6  C   UNL     1      37.909 -10.703  -0.230  1.00  0.00     0.054 C 
HETATM    7  C   UNL     1      37.049 -11.583  -1.129  1.00  0.00     0.020 C 
HETATM    8  C   UNL     1      37.977 -12.201  -2.162  1.00  0.00     0.023 C 
HETATM    9  C   UNL     1      38.632 -11.105  -3.015  1.00  0.00     0.134 C 
HETATM   10  N   UNL     1      39.230 -10.001  -2.265  1.00  0.00    -0.333 N 
HETATM   11  C   UNL     1      40.113  -9.194  -2.982  1.00  0.00     0.318 C 
HETATM   12  N   UNL     1      40.490  -8.031  -2.359  1.00  0.00    -0.338 N 
HETATM   13  O   UNL     1      40.537  -9.502  -4.094  1.00  0.00    -0.247 OA
HETATM   14  C   UNL     1      38.536  -9.564  -1.049  1.00  0.00     0.138 C 
HETATM   15  C   UNL     1      39.007 -13.101  -1.465  1.00  0.00     0.138 C 
HETATM   16  C   UNL     1      39.423 -11.174   1.686  1.00  0.00     0.028 A 
HETATM   17  C   UNL     1      40.390 -11.975   2.389  1.00  0.00     0.037 A 
HETATM   18  H   UNL     1      39.857  -7.656  -1.677  1.00  0.00     0.164 HD
ENDROOT
BRANCH   1  19
HETATM   19  N   UNL     1      41.689 -14.028   2.507  1.00  0.00    -0.304 N 
HETATM   20  C   UNL     1      42.604 -13.791   3.486  1.00  0.00     0.325 C 
HETATM   21  N   UNL     1      43.199 -14.862   4.083  1.00  0.00    -0.309 N 
HETATM   22  O   UNL     1      42.873 -12.680   3.945  1.00  0.00    -0.247 OA
HETATM   23  H   UNL     1      43.633 -14.569   4.950  1.00  0.00     0.170 HD
HETATM   24  H   UNL     1      41.450 -14.992   2.308  1.00  0.00     0.171 HD
BRANCH  21  25
HETATM   25  C   UNL     1      43.308 -16.225   3.770  1.00  0.00     0.036 A 
HETATM   26  C   UNL     1      43.032 -16.781   2.519  1.00  0.00     0.030 A 
HETATM   27  C   UNL     1      43.199 -18.158   2.301  1.00  0.00     0.017 A 
HETATM   28  C   UNL     1      43.657 -18.990   3.329  1.00  0.00     0.009 A 
HETATM   29  C   UNL     1      43.953 -18.430   4.575  1.00  0.00     0.017 A 
HETATM   30  C   UNL     1      43.793 -17.058   4.785  1.00  0.00     0.030 A 
BRANCH  28  31
HETATM   31  C   UNL     1      43.859 -20.458   3.151  1.00  0.00     0.155 C 
HETATM   32  C   UNL     1      43.949 -21.336   4.372  1.00  0.00     0.096 C 
HETATM   33  O   UNL     1      43.949 -20.929   2.019  1.00  0.00    -0.293 OA
ENDBRANCH  28  31
ENDBRANCH  21  25
ENDBRANCH   1  19
BRANCH  12  34
HETATM   34  C   UNL     1      41.353  -7.054  -3.018  1.00  0.00     0.086 C 
HETATM   35  C   UNL     1      41.125  -5.645  -2.449  1.00  0.00     0.025 C 
HETATM   36  C   UNL     1      41.675  -5.488  -1.031  1.00  0.00     0.002 C 
HETATM   37  C   UNL     1      43.143  -5.894  -0.945  1.00  0.00     0.000 C 
HETATM   38  C   UNL     1      43.374  -7.303  -1.479  1.00  0.00     0.002 C 
HETATM   39  C   UNL     1      42.824  -7.469  -2.895  1.00  0.00     0.025 C 
ENDBRANCH  12  34
TORSDOF 4
ENDMDL
MODEL 5
REMARK VINA RESULT:      -9.4      2.100     10.669
REMARK  4 active torsions:
REMARK  status: ('A' for Active; 'I' for Inactive)
REMARK    1  A    between atoms: C_2  and  C_3 
REMARK    2  A    between atoms: C_6  and  N_7 
REMARK       I    between atoms: N_7  and  C_8 
REMARK       I    between atoms: C_8  and  N_9 
REMARK    3  A    between atoms: N_9  and  C_10 
REMARK       I    between atoms: N_19  and  C_20 
REMARK       I    between atoms: C_20  and  N_21 
REMARK    4  A    between atoms: N_21  and  C_22 
ROOT
HETATM    1  C   UNL     1      43.292 -10.450   8.107  1.00  0.00     0.105 A 
HETATM    2  C   UNL     1      42.077 -10.274   7.223  1.00  0.00     0.274 A 
HETATM    3  O   UNL     1      41.054  -9.790   7.715  1.00  0.00    -0.265 OA
HETATM    4  N   UNL     1      42.203 -10.652   5.879  1.00  0.00    -0.315 N 
HETATM    5  C   UNL     1      43.397 -11.142   5.357  1.00  0.00     0.020 A 
HETATM    6  C   UNL     1      43.503 -11.433   3.871  1.00  0.00     0.054 C 
HETATM    7  C   UNL     1      42.578 -10.523   3.072  1.00  0.00     0.020 C 
HETATM    8  C   UNL     1      41.162 -10.801   3.550  1.00  0.00     0.023 C 
HETATM    9  C   UNL     1      40.783 -12.263   3.275  1.00  0.00     0.134 C 
HETATM   10  N   UNL     1      41.763 -13.258   3.712  1.00  0.00    -0.333 N 
HETATM   11  C   UNL     1      41.297 -14.570   3.789  1.00  0.00     0.318 C 
HETATM   12  N   UNL     1      42.262 -15.530   3.967  1.00  0.00    -0.338 N 
HETATM   13  O   UNL     1      40.104 -14.854   3.713  1.00  0.00    -0.247 OA
HETATM   14  C   UNL     1      43.180 -12.906   3.574  1.00  0.00     0.138 C 
HETATM   15  C   UNL     1      41.030 -10.426   5.033  1.00  0.00     0.138 C 
HETATM   16  C   UNL     1      44.455 -11.319   6.165  1.00  0.00     0.028 A 
HETATM   17  C   UNL     1      44.392 -10.989   7.564  1.00  0.00     0.037 A 
HETATM   18  H   UNL     1      43.186 -15.309   3.647  1.00  0.00     0.164 HD
ENDROOT
BRANCH   1  19
HETATM   19  N   UNL     1      43.155  -9.989   9.405  1.00  0.00    -0.304 N 
HETATM   20  C   UNL     1      44.034 -10.103  10.439  1.00  0.00     0.325 C 
HETATM   21  N   UNL     1      43.765  -9.422  11.588  1.00  0.00    -0.309 N 
HETATM   22  O   UNL     1      45.108 -10.703  10.387  1.00  0.00    -0.247 OA
HETATM   23  H   UNL     1      44.604  -9.370  12.155  1.00  0.00     0.170 HD
HETATM   24  H   UNL     1      42.372  -9.356   9.519  1.00  0.00     0.171 HD
BRANCH  21  25
HETATM   25  C   UNL     1      42.629  -8.788  12.111  1.00  0.00     0.036 A 
HETATM   26  C   UNL     1      41.584  -9.440  12.769  1.00  0.00     0.030 A 
HETATM   27  C   UNL     1      40.500  -8.707  13.281  1.00  0.00     0.017 A 
HETATM   28  C   UNL     1      40.460  -7.314  13.152  1.00  0.00     0.009 A 
HETATM   29  C   UNL     1      41.517  -6.660  12.512  1.00  0.00     0.017 A 
HETATM   30  C   UNL     1      42.596  -7.391  12.011  1.00  0.00     0.030 A 
BRANCH  28  31
HETATM   31  C   UNL     1      39.337  -6.486  13.683  1.00  0.00     0.155 C 
HETATM   32  C   UNL     1      37.920  -6.934  13.438  1.00  0.00     0.096 C 
HETATM   33  O   UNL     1      39.580  -5.456  14.309  1.00  0.00    -0.293 OA
ENDBRANCH  28  31
ENDBRANCH  21  25
ENDBRANCH   1  19
BRANCH  12  34
HETATM   34  C   UNL     1      41.930 -16.952   3.993  1.00  0.00     0.086 C 
HETATM   35  C   UNL     1      42.191 -17.604   2.626  1.00  0.00     0.025 C 
HETATM   36  C   UNL     1      43.682 -17.741   2.315  1.00  0.00     0.002 C 
HETATM   37  C   UNL     1      44.428 -18.467   3.431  1.00  0.00     0.000 C 
HETATM   38  C   UNL     1      44.200 -17.808   4.787  1.00  0.00     0.002 C 
HETATM   39  C   UNL     1      42.712 -17.665   5.104  1.00  0.00     0.025 C 
ENDBRANCH  12  34
TORSDOF 4
ENDMDL
MODEL 6
REMARK VINA RESULT:      -9.2      3.027      4.472
REMARK  4 active torsions:
REMARK  status: ('A' for Active; 'I' for Inactive)
REMARK    1  A    between atoms: C_2  and  C_3 
REMARK    2  A    between atoms: C_6  and  N_7 
REMARK       I    between atoms: N_7  and  C_8 
REMARK       I    between atoms: C_8  and  N_9 
REMARK    3  A    between atoms: N_9  and  C_10 
REMARK       I    between atoms: N_19  and  C_20 
REMARK       I    between atoms: C_20  and  N_21 
REMARK    4  A    between atoms: N_21  and  C_22 
ROOT
HETATM    1  C   UNL     1      41.381 -13.174   5.570  1.00  0.00     0.105 A 
HETATM    2  C   UNL     1      41.906 -12.009   4.762  1.00  0.00     0.274 A 
HETATM    3  O   UNL     1      43.020 -12.106   4.241  1.00  0.00    -0.265 OA
HETATM    4  N   UNL     1      41.072 -10.889   4.635  1.00  0.00    -0.315 N 
HETATM    5  C   UNL     1      39.798 -10.849   5.197  1.00  0.00     0.020 A 
HETATM    6  C   UNL     1      38.900  -9.653   4.934  1.00  0.00     0.054 C 
HETATM    7  C   UNL     1      39.213  -9.025   3.581  1.00  0.00     0.020 C 
HETATM    8  C   UNL     1      40.665  -8.576   3.627  1.00  0.00     0.023 C 
HETATM    9  C   UNL     1      40.864  -7.522   4.726  1.00  0.00     0.134 C 
HETATM   10  N   UNL     1      40.307  -7.866   6.033  1.00  0.00    -0.333 N 
HETATM   11  C   UNL     1      40.768  -7.102   7.105  1.00  0.00     0.318 C 
HETATM   12  N   UNL     1      40.082  -7.261   8.283  1.00  0.00    -0.338 N 
HETATM   13  O   UNL     1      41.730  -6.342   7.010  1.00  0.00    -0.247 OA
HETATM   14  C   UNL     1      39.040  -8.604   6.048  1.00  0.00     0.138 C 
HETATM   15  C   UNL     1      41.582  -9.795   3.807  1.00  0.00     0.138 C 
HETATM   16  C   UNL     1      39.362 -11.882   5.936  1.00  0.00     0.028 A 
HETATM   17  C   UNL     1      40.176 -13.050   6.143  1.00  0.00     0.037 A 
HETATM   18  H   UNL     1      39.129  -7.566   8.215  1.00  0.00     0.164 HD
ENDROOT
BRANCH   1  19
HETATM   19  N   UNL     1      42.197 -14.291   5.604  1.00  0.00    -0.304 N 
HETATM   20  C   UNL     1      43.228 -14.560   6.453  1.00  0.00     0.325 C 
HETATM   21  N   UNL     1      43.785 -15.803   6.413  1.00  0.00    -0.309 N 
HETATM   22  O   UNL     1      43.639 -13.794   7.325  1.00  0.00    -0.247 OA
HETATM   23  H   UNL     1      44.331 -15.956   7.253  1.00  0.00     0.170 HD
HETATM   24  H   UNL     1      41.855 -15.047   5.023  1.00  0.00     0.171 HD
BRANCH  21  25
HETATM   25  C   UNL     1      43.740 -16.870   5.505  1.00  0.00     0.036 A 
HETATM   26  C   UNL     1      43.662 -16.734   4.118  1.00  0.00     0.030 A 
HETATM   27  C   UNL     1      43.650 -17.870   3.292  1.00  0.00     0.017 A 
HETATM   28  C   UNL     1      43.732 -19.153   3.847  1.00  0.00     0.009 A 
HETATM   29  C   UNL     1      43.831 -19.287   5.235  1.00  0.00     0.017 A 
HETATM   30  C   UNL     1      43.850 -18.155   6.052  1.00  0.00     0.030 A 
BRANCH  28  31
HETATM   31  C   UNL     1      43.730 -20.394   3.018  1.00  0.00     0.155 C 
HETATM   32  C   UNL     1      43.368 -20.296   1.559  1.00  0.00     0.096 C 
HETATM   33  O   UNL     1      44.023 -21.472   3.530  1.00  0.00    -0.293 OA
ENDBRANCH  28  31
ENDBRANCH  21  25
ENDBRANCH   1  19
BRANCH  12  34
HETATM   34  C   UNL     1      40.405  -6.472   9.469  1.00  0.00     0.086 C 
HETATM   35  C   UNL     1      39.137  -6.125  10.263  1.00  0.00     0.025 C 
HETATM   36  C   UNL     1      38.537  -7.340  10.973  1.00  0.00     0.002 C 
HETATM   37  C   UNL     1      39.566  -8.048  11.849  1.00  0.00     0.000 C 
HETATM   38  C   UNL     1      40.817  -8.425  11.062  1.00  0.00     0.002 C 
HETATM   39  C   UNL     1      41.420  -7.216  10.347  1.00  0.00     0.025 C 
ENDBRANCH  12  34
TORSDOF 4
ENDMDL
MODEL 7
REMARK VINA RESULT:      -9.0      2.943     11.464
REMARK  4 active torsions:
REMARK  status: ('A' for Active; 'I' for Inactive)
REMARK    1  A    between atoms: C_2  and  C_3 
REMARK    2  A    between atoms: C_6  and  N_7 
REMARK       I    between atoms: N_7  and  C_8 
REMARK       I    between atoms: C_8  and  N_9 
REMARK    3  A    between atoms: N_9  and  C_10 
REMARK       I    between atoms: N_19  and  C_20 
REMARK       I    between atoms: C_20  and  N_21 
REMARK    4  A    between atoms: N_21  and  C_22 
ROOT
HETATM    1  C   UNL     1      41.640  -8.980  11.005  1.00  0.00     0.105 A 
HETATM    2  C   UNL     1      40.517  -8.824  10.004  1.00  0.00     0.274 A 
HETATM    3  O   UNL     1      39.410  -8.460  10.411  1.00  0.00    -0.265 OA
HETATM    4  N   UNL     1      40.816  -9.083   8.659  1.00  0.00    -0.315 N 
HETATM    5  C   UNL     1      42.097  -9.438   8.242  1.00  0.00     0.020 A 
HETATM    6  C   UNL     1      42.385  -9.600   6.761  1.00  0.00     0.054 C 
HETATM    7  C   UNL     1      41.478  -8.700   5.930  1.00  0.00     0.020 C 
HETATM    8  C   UNL     1      40.047  -9.121   6.223  1.00  0.00     0.023 C 
HETATM    9  C   UNL     1      39.823 -10.581   5.803  1.00  0.00     0.134 C 
HETATM   10  N   UNL     1      40.830 -11.531   6.275  1.00  0.00    -0.333 N 
HETATM   11  C   UNL     1      40.469 -12.877   6.204  1.00  0.00     0.318 C 
HETATM   12  N   UNL     1      41.486 -13.773   6.421  1.00  0.00    -0.338 N 
HETATM   13  O   UNL     1      39.319 -13.242   5.973  1.00  0.00    -0.247 OA
HETATM   14  C   UNL     1      42.219 -11.064   6.324  1.00  0.00     0.138 C 
HETATM   15  C   UNL     1      39.726  -8.878   7.705  1.00  0.00     0.138 C 
HETATM   16  C   UNL     1      43.073  -9.600   9.150  1.00  0.00     0.028 A 
HETATM   17  C   UNL     1      42.833  -9.390  10.553  1.00  0.00     0.037 A 
HETATM   18  H   UNL     1      42.418 -13.458   6.224  1.00  0.00     0.164 HD
ENDROOT
BRANCH   1  19
HETATM   19  N   UNL     1      41.327  -8.636  12.309  1.00  0.00    -0.304 N 
HETATM   20  C   UNL     1      40.931  -9.451  13.326  1.00  0.00     0.325 C 
HETATM   21  N   UNL     1      40.842  -8.919  14.577  1.00  0.00    -0.309 N 
HETATM   22  O   UNL     1      40.735 -10.662  13.221  1.00  0.00    -0.247 OA
HETATM   23  H   UNL     1      40.810  -9.666  15.261  1.00  0.00     0.170 HD
HETATM   24  H   UNL     1      41.593  -7.687  12.541  1.00  0.00     0.171 HD
BRANCH  21  25
HETATM   25  C   UNL     1      40.812  -7.614  15.090  1.00  0.00     0.036 A 
HETATM   26  C   UNL     1      39.870  -6.643  14.744  1.00  0.00     0.030 A 
HETATM   27  C   UNL     1      39.910  -5.371  15.337  1.00  0.00     0.017 A 
HETATM   28  C   UNL     1      40.887  -5.063  16.292  1.00  0.00     0.009 A 
HETATM   29  C   UNL     1      41.817  -6.042  16.652  1.00  0.00     0.017 A 
HETATM   30  C   UNL     1      41.768  -7.308  16.067  1.00  0.00     0.030 A 
BRANCH  28  31
HETATM   31  C   UNL     1      40.973  -3.730  16.958  1.00  0.00     0.155 C 
HETATM   32  C   UNL     1      39.703  -2.965  17.228  1.00  0.00     0.096 C 
HETATM   33  O   UNL     1      42.070  -3.275  17.276  1.00  0.00    -0.293 OA
ENDBRANCH  28  31
ENDBRANCH  21  25
ENDBRANCH   1  19
BRANCH  12  34
HETATM   34  C   UNL     1      41.273 -15.214   6.307  1.00  0.00     0.086 C 
HETATM   35  C   UNL     1      41.409 -15.677   4.849  1.00  0.00     0.025 C 
HETATM   36  C   UNL     1      42.855 -15.638   4.353  1.00  0.00     0.002 C 
HETATM   37  C   UNL     1      43.791 -16.414   5.275  1.00  0.00     0.000 C 
HETATM   38  C   UNL     1      43.685 -15.939   6.720  1.00  0.00     0.002 C 
HETATM   39  C   UNL     1      42.242 -15.973   7.222  1.00  0.00     0.025 C 
ENDBRANCH  12  34
TORSDOF 4
ENDMDL
MODEL 8
REMARK VINA RESULT:      -8.8      6.798      8.028
REMARK  4 active torsions:
REMARK  status: ('A' for Active; 'I' for Inactive)
REMARK    1  A    between atoms: C_2  and  C_3 
REMARK    2  A    between atoms: C_6  and  N_7 
REMARK       I    between atoms: N_7  and  C_8 
REMARK       I    between atoms: C_8  and  N_9 
REMARK    3  A    between atoms: N_9  and  C_10 
REMARK       I    between atoms: N_19  and  C_20 
REMARK       I    between atoms: C_20  and  N_21 
REMARK    4  A    between atoms: N_21  and  C_22 
ROOT
HETATM    1  C   UNL     1      38.613 -11.501   1.314  1.00  0.00     0.105 A 
HETATM    2  C   UNL     1      39.294 -10.369   2.051  1.00  0.00     0.274 A 
HETATM    3  O   UNL     1      40.361 -10.596   2.627  1.00  0.00    -0.265 OA
HETATM    4  N   UNL     1      38.673  -9.112   2.009  1.00  0.00    -0.315 N 
HETATM    5  C   UNL     1      37.496  -8.892   1.298  1.00  0.00     0.020 A 
HETATM    6  C   UNL     1      36.930  -7.487   1.201  1.00  0.00     0.054 C 
HETATM    7  C   UNL     1      38.041  -6.447   1.278  1.00  0.00     0.020 C 
HETATM    8  C   UNL     1      38.729  -6.632   2.621  1.00  0.00     0.023 C 
HETATM    9  C   UNL     1      37.737  -6.388   3.767  1.00  0.00     0.134 C 
HETATM   10  N   UNL     1      36.460  -7.092   3.652  1.00  0.00    -0.333 N 
HETATM   11  C   UNL     1      35.702  -7.161   4.820  1.00  0.00     0.318 C 
HETATM   12  N   UNL     1      34.413  -7.608   4.664  1.00  0.00    -0.338 N 
HETATM   13  O   UNL     1      36.154  -6.853   5.921  1.00  0.00    -0.247 OA
HETATM   14  C   UNL     1      35.893  -7.233   2.307  1.00  0.00     0.138 C 
HETATM   15  C   UNL     1      39.377  -8.023   2.688  1.00  0.00     0.138 C 
HETATM   16  C   UNL     1      36.892  -9.917   0.676  1.00  0.00     0.028 A 
HETATM   17  C   UNL     1      37.448 -11.244   0.705  1.00  0.00     0.037 A 
HETATM   18  H   UNL     1      33.995  -7.477   3.762  1.00  0.00     0.164 HD
ENDROOT
BRANCH   1  19
HETATM   19  N   UNL     1      39.297 -12.704   1.309  1.00  0.00    -0.304 N 
HETATM   20  C   UNL     1      39.522 -13.544   0.260  1.00  0.00     0.325 C 
HETATM   21  N   UNL     1      40.370 -14.593   0.449  1.00  0.00    -0.309 N 
HETATM   22  O   UNL     1      39.090 -13.376  -0.880  1.00  0.00    -0.247 OA
HETATM   23  H   UNL     1      40.658 -14.962  -0.451  1.00  0.00     0.170 HD
HETATM   24  H   UNL     1      39.817 -12.867   2.163  1.00  0.00     0.171 HD
BRANCH  21  25
HETATM   25  C   UNL     1      40.920 -15.222   1.576  1.00  0.00     0.036 A 
HETATM   26  C   UNL     1      40.191 -15.637   2.692  1.00  0.00     0.030 A 
HETATM   27  C   UNL     1      40.834 -16.283   3.760  1.00  0.00     0.017 A 
HETATM   28  C   UNL     1      42.210 -16.534   3.714  1.00  0.00     0.009 A 
HETATM   29  C   UNL     1      42.935 -16.137   2.587  1.00  0.00     0.017 A 
HETATM   30  C   UNL     1      42.291 -15.501   1.524  1.00  0.00     0.030 A 
BRANCH  28  31
HETATM   31  C   UNL     1      42.943 -17.223   4.817  1.00  0.00     0.155 C 
HETATM   32  C   UNL     1      44.166 -18.037   4.484  1.00  0.00     0.096 C 
HETATM   33  O   UNL     1      42.543 -17.119   5.974  1.00  0.00    -0.293 OA
ENDBRANCH  28  31
ENDBRANCH  21  25
ENDBRANCH   1  19
BRANCH  12  34
HETATM   34  C   UNL     1      33.481  -7.664   5.787  1.00  0.00     0.086 C 
HETATM   35  C   UNL     1      32.749  -6.324   5.962  1.00  0.00     0.025 C 
HETATM   36  C   UNL     1      31.729  -6.063   4.854  1.00  0.00     0.002 C 
HETATM   37  C   UNL     1      30.746  -7.221   4.705  1.00  0.00     0.000 C 
HETATM   38  C   UNL     1      31.463  -8.550   4.499  1.00  0.00     0.002 C 
HETATM   39  C   UNL     1      32.487  -8.817   5.601  1.00  0.00     0.025 C 
ENDBRANCH  12  34
TORSDOF 4
ENDMDL
MODEL 9
REMARK VINA RESULT:      -8.7      7.347     11.001
REMARK  4 active torsions:
REMARK  status: ('A' for Active; 'I' for Inactive)
REMARK    1  A    between atoms: C_2  and  C_3 
REMARK    2  A    between atoms: C_6  and  N_7 
REMARK       I    between atoms: N_7  and  C_8 
REMARK       I    between atoms: C_8  and  N_9 
REMARK    3  A    between atoms: N_9  and  C_10 
REMARK       I    between atoms: N_19  and  C_20 
REMARK       I    between atoms: C_20  and  N_21 
REMARK    4  A    between atoms: N_21  and  C_22 
ROOT
HETATM    1  C   UNL     1      39.956 -13.146   0.122  1.00  0.00     0.105 A 
HETATM    2  C   UNL     1      40.557 -11.759   0.084  1.00  0.00     0.274 A 
HETATM    3  O   UNL     1      41.216 -11.374   1.055  1.00  0.00    -0.265 OA
HETATM    4  N   UNL     1      40.345 -10.999  -1.075  1.00  0.00    -0.315 N 
HETATM    5  C   UNL     1      39.639 -11.498  -2.167  1.00  0.00     0.020 A 
HETATM    6  C   UNL     1      39.535 -10.670  -3.434  1.00  0.00     0.054 C 
HETATM    7  C   UNL     1      40.752  -9.767  -3.595  1.00  0.00     0.020 C 
HETATM    8  C   UNL     1      40.786  -8.850  -2.383  1.00  0.00     0.023 C 
HETATM    9  C   UNL     1      39.522  -7.980  -2.337  1.00  0.00     0.134 C 
HETATM   10  N   UNL     1      38.259  -8.699  -2.502  1.00  0.00    -0.333 N 
HETATM   11  C   UNL     1      37.113  -8.000  -2.123  1.00  0.00     0.318 C 
HETATM   12  N   UNL     1      35.922  -8.573  -2.492  1.00  0.00    -0.338 N 
HETATM   13  O   UNL     1      37.159  -6.946  -1.493  1.00  0.00    -0.247 OA
HETATM   14  C   UNL     1      38.249  -9.828  -3.438  1.00  0.00     0.138 C 
HETATM   15  C   UNL     1      40.978  -9.680  -1.106  1.00  0.00     0.138 C 
HETATM   16  C   UNL     1      39.088 -12.721  -2.102  1.00  0.00     0.028 A 
HETATM   17  C   UNL     1      39.230 -13.546  -0.931  1.00  0.00     0.037 A 
HETATM   18  H   UNL     1      35.939  -9.180  -3.291  1.00  0.00     0.164 HD
ENDROOT
BRANCH   1  19
HETATM   19  N   UNL     1      40.256 -13.895   1.247  1.00  0.00    -0.304 N 
HETATM   20  C   UNL     1      39.688 -13.829   2.482  1.00  0.00     0.325 C 
HETATM   21  N   UNL     1      40.023 -14.783   3.395  1.00  0.00    -0.309 N 
HETATM   22  O   UNL     1      38.817 -13.024   2.814  1.00  0.00    -0.247 OA
HETATM   23  H   UNL     1      39.347 -14.783   4.150  1.00  0.00     0.170 HD
HETATM   24  H   UNL     1      40.858 -14.684   1.046  1.00  0.00     0.171 HD
BRANCH  21  25
HETATM   25  C   UNL     1      41.049 -15.735   3.489  1.00  0.00     0.036 A 
HETATM   26  C   UNL     1      41.816 -15.972   4.631  1.00  0.00     0.030 A 
HETATM   27  C   UNL     1      42.804 -16.969   4.630  1.00  0.00     0.017 A 
HETATM   28  C   UNL     1      43.023 -17.750   3.489  1.00  0.00     0.009 A 
HETATM   29  C   UNL     1      42.242 -17.527   2.352  1.00  0.00     0.017 A 
HETATM   30  C   UNL     1      41.255 -16.539   2.360  1.00  0.00     0.030 A 
BRANCH  28  31
HETATM   31  C   UNL     1      44.055 -18.828   3.434  1.00  0.00     0.155 C 
HETATM   32  C   UNL     1      43.879 -19.957   2.452  1.00  0.00     0.096 C 
HETATM   33  O   UNL     1      45.027 -18.782   4.184  1.00  0.00    -0.293 OA
ENDBRANCH  28  31
ENDBRANCH  21  25
ENDBRANCH   1  19
BRANCH  12  34
HETATM   34  C   UNL     1      34.643  -7.919  -2.227  1.00  0.00     0.086 C 
HETATM   35  C   UNL     1      34.050  -7.327  -3.515  1.00  0.00     0.025 C 
HETATM   36  C   UNL     1      33.542  -8.403  -4.476  1.00  0.00     0.002 C 
HETATM   37  C   UNL     1      32.561  -9.352  -3.795  1.00  0.00     0.000 C 
HETATM   38  C   UNL     1      33.152  -9.968  -2.532  1.00  0.00     0.002 C 
HETATM   39  C   UNL     1      33.665  -8.900  -1.568  1.00  0.00     0.025 C 
ENDBRANCH  12  34
TORSDOF 4
ENDMDL
MODEL 10
REMARK VINA RESULT:      -8.7      3.558      5.813
REMARK  4 active torsions:
REMARK  status: ('A' for Active; 'I' for Inactive)
REMARK    1  A    between atoms: C_2  and  C_3 
REMARK    2  A    between atoms: C_6  and  N_7 
REMARK       I    between atoms: N_7  and  C_8 
REMARK       I    between atoms: C_8  and  N_9 
REMARK    3  A    between atoms: N_9  and  C_10 
REMARK       I    between atoms: N_19  and  C_20 
REMARK       I    between atoms: C_20  and  N_21 
REMARK    4  A    between atoms: N_21  and  C_22 
ROOT
HETATM    1  C   UNL     1      42.293  -9.430   9.648  1.00  0.00     0.105 A 
HETATM    2  C   UNL     1      41.124  -9.388  10.606  1.00  0.00     0.274 A 
HETATM    3  O   UNL     1      40.024  -9.790  10.214  1.00  0.00    -0.265 OA
HETATM    4  N   UNL     1      41.373  -8.914  11.901  1.00  0.00    -0.315 N 
HETATM    5  C   UNL     1      42.645  -8.524  12.313  1.00  0.00     0.020 A 
HETATM    6  C   UNL     1      42.874  -8.122  13.759  1.00  0.00     0.054 C 
HETATM    7  C   UNL     1      41.906  -8.847  14.685  1.00  0.00     0.020 C 
HETATM    8  C   UNL     1      40.502  -8.448  14.258  1.00  0.00     0.023 C 
HETATM    9  C   UNL     1      40.306  -6.933  14.416  1.00  0.00     0.134 C 
HETATM   10  N   UNL     1      41.361  -6.101  13.841  1.00  0.00    -0.333 N 
HETATM   11  C   UNL     1      41.040  -4.754  13.668  1.00  0.00     0.318 C 
HETATM   12  N   UNL     1      42.093  -3.931  13.353  1.00  0.00    -0.338 N 
HETATM   13  O   UNL     1      39.893  -4.328  13.780  1.00  0.00    -0.247 OA
HETATM   14  C   UNL     1      42.736  -6.601  13.937  1.00  0.00     0.138 C 
HETATM   15  C   UNL     1      40.237  -8.930  12.824  1.00  0.00     0.138 C 
HETATM   16  C   UNL     1      43.664  -8.541  11.438  1.00  0.00     0.028 A 
HETATM   17  C   UNL     1      43.478  -8.979  10.081  1.00  0.00     0.037 A 
HETATM   18  H   UNL     1      43.005  -4.230  13.644  1.00  0.00     0.164 HD
ENDROOT
BRANCH   1  19
HETATM   19  N   UNL     1      42.026  -9.981   8.406  1.00  0.00    -0.304 N 
HETATM   20  C   UNL     1      41.980  -9.357   7.197  1.00  0.00     0.325 C 
HETATM   21  N   UNL     1      41.867 -10.129   6.079  1.00  0.00    -0.309 N 
HETATM   22  O   UNL     1      42.126  -8.146   7.024  1.00  0.00    -0.247 OA
HETATM   23  H   UNL     1      42.116  -9.581   5.263  1.00  0.00     0.170 HD
HETATM   24  H   UNL     1      42.033 -10.994   8.414  1.00  0.00     0.171 HD
BRANCH  21  25
HETATM   25  C   UNL     1      41.519 -11.466   5.841  1.00  0.00     0.036 A 
HETATM   26  C   UNL     1      40.240 -11.999   6.011  1.00  0.00     0.030 A 
HETATM   27  C   UNL     1      39.988 -13.349   5.717  1.00  0.00     0.017 A 
HETATM   28  C   UNL     1      41.011 -14.174   5.236  1.00  0.00     0.009 A 
HETATM   29  C   UNL     1      42.286 -13.635   5.046  1.00  0.00     0.017 A 
HETATM   30  C   UNL     1      42.530 -12.290   5.332  1.00  0.00     0.030 A 
BRANCH  28  31
HETATM   31  C   UNL     1      40.798 -15.613   4.902  1.00  0.00     0.155 C 
HETATM   32  C   UNL     1      41.179 -16.109   3.531  1.00  0.00     0.096 C 
HETATM   33  O   UNL     1      40.318 -16.371   5.742  1.00  0.00    -0.293 OA
ENDBRANCH  28  31
ENDBRANCH  21  25
ENDBRANCH   1  19
BRANCH  12  34
HETATM   34  C   UNL     1      41.920  -2.488  13.214  1.00  0.00     0.086 C 
HETATM   35  C   UNL     1      43.239  -1.812  12.810  1.00  0.00     0.025 C 
HETATM   36  C   UNL     1      43.636  -2.117  11.365  1.00  0.00     0.002 C 
HETATM   37  C   UNL     1      42.514  -1.782  10.386  1.00  0.00     0.000 C 
HETATM   38  C   UNL     1      41.209  -2.473  10.762  1.00  0.00     0.002 C 
HETATM   39  C   UNL     1      40.806  -2.176  12.206  1.00  0.00     0.025 C 
ENDBRANCH  12  34
TORSDOF 4
ENDMDL
