MODEL 1
REMARK VINA RESULT:      -7.9      0.000      0.000
REMARK  6 active torsions:
REMARK  status: ('A' for Active; 'I' for Inactive)
REMARK    1  A    between atoms: O_2  and  C_3 
REMARK    2  A    between atoms: C_6  and  C_7 
REMARK    3  A    between atoms: C_7  and  N_8 
REMARK       I    between atoms: N_8  and  C_9 
REMARK       I    between atoms: C_9  and  N_10 
REMARK    4  A    between atoms: N_10  and  C_11 
REMARK    5  A    between atoms: C_11  and  C_12 
REMARK    6  A    between atoms: C_13  and  C_14 
ROOT
HETATM    1  N   UNL     1      42.331 -12.201   4.717  1.00  0.00    -0.339 N 
HETATM    2  C   UNL     1      41.667 -13.377   4.832  1.00  0.00     0.316 C 
HETATM    3  N   UNL     1      42.411 -14.454   5.192  1.00  0.00    -0.339 N 
HETATM    4  O   UNL     1      40.468 -13.417   4.578  1.00  0.00    -0.247 OA
HETATM    5  H   UNL     1      41.726 -11.442   4.434  1.00  0.00     0.164 HD
HETATM    6  H   UNL     1      43.253 -14.280   5.718  1.00  0.00     0.164 HD
ENDROOT
BRANCH   3   7
HETATM    7  C   UNL     1      41.847 -15.789   5.269  1.00  0.00     0.163 C 
BRANCH   7   8
HETATM    8  C   UNL     1      42.650 -16.837   4.519  1.00  0.00    -0.029 A 
HETATM    9  C   UNL     1      42.587 -16.922   3.110  1.00  0.00    -0.018 A 
HETATM   10  C   UNL     1      43.372 -17.862   2.422  1.00  0.00     0.013 A 
HETATM   11  C   UNL     1      44.219 -18.723   3.115  1.00  0.00     0.001 A 
HETATM   12  C   UNL     1      44.297 -18.645   4.500  1.00  0.00     0.001 A 
HETATM   13  C   UNL     1      43.525 -17.710   5.193  1.00  0.00     0.010 A 
BRANCH   9  14
HETATM   14  C   UNL     1      41.751 -16.033   2.316  1.00  0.00    -0.018 A 
HETATM   15  C   UNL     1      42.286 -14.963   1.625  1.00  0.00     0.061 A 
HETATM   16  S   UNL     1      41.088 -14.061   0.801  1.00  0.00    -0.113 SA
HETATM   17  C   UNL     1      39.841 -15.074   1.388  1.00  0.00     0.050 A 
HETATM   18  C   UNL     1      40.329 -16.085   2.187  1.00  0.00     0.020 A 
ENDBRANCH   9  14
ENDBRANCH   7   8
ENDBRANCH   3   7
BRANCH   1  19
HETATM   19  C   UNL     1      43.755 -11.950   4.748  1.00  0.00     0.162 C 
BRANCH  19  20
HETATM   20  C   UNL     1      44.250 -11.416   6.070  1.00  0.00    -0.040 A 
HETATM   21  C   UNL     1      45.629 -11.333   6.311  1.00  0.00     0.011 A 
HETATM   22  C   UNL     1      46.122 -10.769   7.495  1.00  0.00     0.037 A 
HETATM   23  C   UNL     1      45.241 -10.267   8.452  1.00  0.00     0.068 A 
HETATM   24  C   UNL     1      43.868 -10.349   8.220  1.00  0.00     0.037 A 
HETATM   25  C   UNL     1      43.374 -10.909   7.038  1.00  0.00     0.011 A 
BRANCH  23  26
HETATM   26  O   UNL     1      45.587  -9.681   9.638  1.00  0.00    -0.356 OA
HETATM   27  C   UNL     1      44.586  -9.629  10.646  1.00  0.00     0.210 C 
ENDBRANCH  23  26
ENDBRANCH  19  20
ENDBRANCH   1  19
TORSDOF 6
ENDMDL
MODEL 2
REMARK VINA RESULT:      -7.6      4.216      7.505
REMARK  6 active torsions:
REMARK  status: ('A' for Active; 'I' for Inactive)
REMARK    1  A    between atoms: O_2  and  C_3 
REMARK    2  A    between atoms: C_6  and  C_7 
REMARK    3  A    between atoms: C_7  and  N_8 
REMARK       I    between atoms: N_8  and  C_9 
REMARK       I    between atoms: C_9  and  N_10 
REMARK    4  A    between atoms: N_10  and  C_11 
REMARK    5  A    between atoms: C_11  and  C_12 
REMARK    6  A    between atoms: C_13  and  C_14 
ROOT
HETATM    1  N   UNL     1      39.756 -15.412   1.758  1.00  0.00    -0.339 N 
HETATM    2  C   UNL     1      40.808 -15.555   2.600  1.00  0.00     0.316 C 
HETATM    3  N   UNL     1      41.977 -15.954   2.038  1.00  0.00    -0.339 N 
HETATM    4  O   UNL     1      40.648 -15.359   3.801  1.00  0.00    -0.247 OA
HETATM    5  H   UNL     1      38.913 -15.127   2.238  1.00  0.00     0.164 HD
HETATM    6  H   UNL     1      42.119 -15.741   1.063  1.00  0.00     0.164 HD
ENDROOT
BRANCH   3   7
HETATM    7  C   UNL     1      43.160 -16.229   2.833  1.00  0.00     0.163 C 
BRANCH   7   8
HETATM    8  C   UNL     1      43.412 -17.709   3.062  1.00  0.00    -0.029 A 
HETATM    9  C   UNL     1      43.674 -18.204   4.359  1.00  0.00    -0.018 A 
HETATM   10  C   UNL     1      43.857 -19.582   4.567  1.00  0.00     0.013 A 
HETATM   11  C   UNL     1      43.786 -20.477   3.502  1.00  0.00     0.001 A 
HETATM   12  C   UNL     1      43.521 -20.004   2.223  1.00  0.00     0.001 A 
HETATM   13  C   UNL     1      43.332 -18.637   2.006  1.00  0.00     0.010 A 
BRANCH   9  14
HETATM   14  C   UNL     1      43.729 -17.335   5.525  1.00  0.00    -0.018 A 
HETATM   15  C   UNL     1      42.604 -17.065   6.279  1.00  0.00     0.061 A 
HETATM   16  S   UNL     1      42.933 -15.991   7.571  1.00  0.00    -0.113 SA
HETATM   17  C   UNL     1      44.575 -15.853   7.112  1.00  0.00     0.050 A 
HETATM   18  C   UNL     1      44.869 -16.617   6.004  1.00  0.00     0.020 A 
ENDBRANCH   9  14
ENDBRANCH   7   8
ENDBRANCH   3   7
BRANCH   1  19
HETATM   19  C   UNL     1      39.642 -15.792   0.367  1.00  0.00     0.162 C 
BRANCH  19  20
HETATM   20  C   UNL     1      39.743 -14.630  -0.590  1.00  0.00    -0.040 A 
HETATM   21  C   UNL     1      40.496 -13.501  -0.233  1.00  0.00     0.011 A 
HETATM   22  C   UNL     1      40.676 -12.440  -1.130  1.00  0.00     0.037 A 
HETATM   23  C   UNL     1      40.115 -12.498  -2.406  1.00  0.00     0.068 A 
HETATM   24  C   UNL     1      39.364 -13.616  -2.767  1.00  0.00     0.037 A 
HETATM   25  C   UNL     1      39.185 -14.677  -1.874  1.00  0.00     0.011 A 
BRANCH  23  26
HETATM   26  O   UNL     1      40.225 -11.544  -3.378  1.00  0.00    -0.356 OA
HETATM   27  C   UNL     1      40.358 -10.196  -2.945  1.00  0.00     0.210 C 
ENDBRANCH  23  26
ENDBRANCH  19  20
ENDBRANCH   1  19
TORSDOF 6
ENDMDL
MODEL 3
REMARK VINA RESULT:      -7.6      1.640      2.123
REMARK  6 active torsions:
REMARK  status: ('A' for Active; 'I' for Inactive)
REMARK    1  A    between atoms: O_2  and  C_3 
REMARK    2  A    between atoms: C_6  and  C_7 
REMARK    3  A    between atoms: C_7  and  N_8 
REMARK       I    between atoms: N_8  and  C_9 
REMARK       I    between atoms: C_9  and  N_10 
REMARK    4  A    between atoms: N_10  and  C_11 
REMARK    5  A    between atoms: C_11  and  C_12 
REMARK    6  A    between atoms: C_13  and  C_14 
ROOT
HETATM    1  N   UNL     1      43.904 -13.476   7.251  1.00  0.00    -0.339 N 
HETATM    2  C   UNL     1      43.179 -14.597   7.022  1.00  0.00     0.316 C 
HETATM    3  N   UNL     1      42.903 -14.879   5.723  1.00  0.00    -0.339 N 
HETATM    4  O   UNL     1      42.787 -15.265   7.973  1.00  0.00    -0.247 OA
HETATM    5  H   UNL     1      44.065 -13.315   8.236  1.00  0.00     0.164 HD
HETATM    6  H   UNL     1      43.537 -14.520   5.026  1.00  0.00     0.164 HD
ENDROOT
BRANCH   3   7
HETATM    7  C   UNL     1      42.065 -15.999   5.338  1.00  0.00     0.163 C 
BRANCH   7   8
HETATM    8  C   UNL     1      42.790 -17.054   4.522  1.00  0.00    -0.029 A 
HETATM    9  C   UNL     1      42.797 -16.996   3.111  1.00  0.00    -0.018 A 
HETATM   10  C   UNL     1      43.512 -17.949   2.366  1.00  0.00     0.013 A 
HETATM   11  C   UNL     1      44.221 -18.964   3.004  1.00  0.00     0.001 A 
HETATM   12  C   UNL     1      44.229 -19.028   4.392  1.00  0.00     0.001 A 
HETATM   13  C   UNL     1      43.526 -18.082   5.142  1.00  0.00     0.010 A 
BRANCH   9  14
HETATM   14  C   UNL     1      42.109 -15.945   2.374  1.00  0.00    -0.018 A 
HETATM   15  C   UNL     1      40.802 -16.094   1.952  1.00  0.00     0.061 A 
HETATM   16  S   UNL     1      40.244 -14.731   1.081  1.00  0.00    -0.113 SA
HETATM   17  C   UNL     1      41.756 -13.945   1.232  1.00  0.00     0.050 A 
HETATM   18  C   UNL     1      42.664 -14.701   1.940  1.00  0.00     0.020 A 
ENDBRANCH   9  14
ENDBRANCH   7   8
ENDBRANCH   3   7
BRANCH   1  19
HETATM   19  C   UNL     1      44.283 -12.429   6.328  1.00  0.00     0.162 C 
BRANCH  19  20
HETATM   20  C   UNL     1      44.343 -11.058   6.957  1.00  0.00    -0.040 A 
HETATM   21  C   UNL     1      43.167 -10.306   7.093  1.00  0.00     0.011 A 
HETATM   22  C   UNL     1      43.175  -9.065   7.744  1.00  0.00     0.037 A 
HETATM   23  C   UNL     1      44.360  -8.562   8.280  1.00  0.00     0.068 A 
HETATM   24  C   UNL     1      45.534  -9.304   8.146  1.00  0.00     0.037 A 
HETATM   25  C   UNL     1      45.528 -10.543   7.499  1.00  0.00     0.011 A 
BRANCH  23  26
HETATM   26  O   UNL     1      44.504  -7.379   8.949  1.00  0.00    -0.356 OA
HETATM   27  C   UNL     1      43.312  -6.716   9.348  1.00  0.00     0.210 C 
ENDBRANCH  23  26
ENDBRANCH  19  20
ENDBRANCH   1  19
TORSDOF 6
ENDMDL
MODEL 4
REMARK VINA RESULT:      -7.5      2.292      6.622
REMARK  6 active torsions:
REMARK  status: ('A' for Active; 'I' for Inactive)
REMARK    1  A    between atoms: O_2  and  C_3 
REMARK    2  A    between atoms: C_6  and  C_7 
REMARK    3  A    between atoms: C_7  and  N_8 
REMARK       I    between atoms: N_8  and  C_9 
REMARK       I    between atoms: C_9  and  N_10 
REMARK    4  A    between atoms: N_10  and  C_11 
REMARK    5  A    between atoms: C_11  and  C_12 
REMARK    6  A    between atoms: C_13  and  C_14 
ROOT
HETATM    1  N   UNL     1      39.677 -14.564   6.019  1.00  0.00    -0.339 N 
HETATM    2  C   UNL     1      40.005 -13.252   6.091  1.00  0.00     0.316 C 
HETATM    3  N   UNL     1      41.276 -12.972   6.478  1.00  0.00    -0.339 N 
HETATM    4  O   UNL     1      39.153 -12.404   5.847  1.00  0.00    -0.247 OA
HETATM    5  H   UNL     1      38.715 -14.708   5.739  1.00  0.00     0.164 HD
HETATM    6  H   UNL     1      41.979 -13.674   6.304  1.00  0.00     0.164 HD
ENDROOT
BRANCH   3   7
HETATM    7  C   UNL     1      41.738 -11.611   6.680  1.00  0.00     0.163 C 
BRANCH   7   8
HETATM    8  C   UNL     1      43.249 -11.468   6.659  1.00  0.00    -0.029 A 
HETATM    9  C   UNL     1      43.969 -11.589   5.450  1.00  0.00    -0.018 A 
HETATM   10  C   UNL     1      45.362 -11.406   5.433  1.00  0.00     0.013 A 
HETATM   11  C   UNL     1      46.053 -11.105   6.604  1.00  0.00     0.001 A 
HETATM   12  C   UNL     1      45.356 -10.974   7.800  1.00  0.00     0.001 A 
HETATM   13  C   UNL     1      43.971 -11.149   7.826  1.00  0.00     0.010 A 
BRANCH   9  14
HETATM   14  C   UNL     1      43.313 -11.868   4.180  1.00  0.00    -0.018 A 
HETATM   15  C   UNL     1      42.673 -10.875   3.465  1.00  0.00     0.061 A 
HETATM   16  S   UNL     1      41.956 -11.473   2.030  1.00  0.00    -0.113 SA
HETATM   17  C   UNL     1      42.468 -13.068   2.371  1.00  0.00     0.050 A 
HETATM   18  C   UNL     1      43.178 -13.143   3.549  1.00  0.00     0.020 A 
ENDBRANCH   9  14
ENDBRANCH   7   8
ENDBRANCH   3   7
BRANCH   1  19
HETATM   19  C   UNL     1      40.425 -15.720   6.464  1.00  0.00     0.162 C 
BRANCH  19  20
HETATM   20  C   UNL     1      41.359 -16.279   5.419  1.00  0.00    -0.040 A 
HETATM   21  C   UNL     1      42.515 -16.964   5.818  1.00  0.00     0.011 A 
HETATM   22  C   UNL     1      43.360 -17.564   4.874  1.00  0.00     0.037 A 
HETATM   23  C   UNL     1      43.054 -17.498   3.516  1.00  0.00     0.068 A 
HETATM   24  C   UNL     1      41.906 -16.815   3.112  1.00  0.00     0.037 A 
HETATM   25  C   UNL     1      41.060 -16.218   4.051  1.00  0.00     0.011 A 
BRANCH  23  26
HETATM   26  O   UNL     1      43.780 -18.049   2.497  1.00  0.00    -0.356 OA
HETATM   27  C   UNL     1      43.896 -19.466   2.483  1.00  0.00     0.210 C 
ENDBRANCH  23  26
ENDBRANCH  19  20
ENDBRANCH   1  19
TORSDOF 6
ENDMDL
MODEL 5
REMARK VINA RESULT:      -7.5      4.953      7.828
REMARK  6 active torsions:
REMARK  status: ('A' for Active; 'I' for Inactive)
REMARK    1  A    between atoms: O_2  and  C_3 
REMARK    2  A    between atoms: C_6  and  C_7 
REMARK    3  A    between atoms: C_7  and  N_8 
REMARK       I    between atoms: N_8  and  C_9 
REMARK       I    between atoms: C_9  and  N_10 
REMARK    4  A    between atoms: N_10  and  C_11 
REMARK    5  A    between atoms: C_11  and  C_12 
REMARK    6  A    between atoms: C_13  and  C_14 
ROOT
HETATM    1  N   UNL     1      41.453 -15.158   2.102  1.00  0.00    -0.339 N 
HETATM    2  C   UNL     1      40.751 -14.190   1.467  1.00  0.00     0.316 C 
HETATM    3  N   UNL     1      41.234 -13.789   0.263  1.00  0.00    -0.339 N 
HETATM    4  O   UNL     1      39.761 -13.710   2.010  1.00  0.00    -0.247 OA
HETATM    5  H   UNL     1      41.052 -15.404   2.997  1.00  0.00     0.164 HD
HETATM    6  H   UNL     1      41.792 -14.448  -0.255  1.00  0.00     0.164 HD
ENDROOT
BRANCH   3   7
HETATM    7  C   UNL     1      40.630 -12.701  -0.486  1.00  0.00     0.163 C 
BRANCH   7   8
HETATM    8  C   UNL     1      39.512 -13.143  -1.413  1.00  0.00    -0.029 A 
HETATM    9  C   UNL     1      38.289 -12.438  -1.454  1.00  0.00    -0.018 A 
HETATM   10  C   UNL     1      37.279 -12.825  -2.351  1.00  0.00     0.013 A 
HETATM   11  C   UNL     1      37.466 -13.907  -3.209  1.00  0.00     0.001 A 
HETATM   12  C   UNL     1      38.668 -14.604  -3.184  1.00  0.00     0.001 A 
HETATM   13  C   UNL     1      39.680 -14.224  -2.300  1.00  0.00     0.010 A 
BRANCH   9  14
HETATM   14  C   UNL     1      38.033 -11.277  -0.615  1.00  0.00    -0.018 A 
HETATM   15  C   UNL     1      38.366 -10.001  -1.024  1.00  0.00     0.061 A 
HETATM   16  S   UNL     1      37.992  -8.823   0.160  1.00  0.00    -0.113 SA
HETATM   17  C   UNL     1      37.412 -10.014   1.242  1.00  0.00     0.050 A 
HETATM   18  C   UNL     1      37.492 -11.281   0.709  1.00  0.00     0.020 A 
ENDBRANCH   9  14
ENDBRANCH   7   8
ENDBRANCH   3   7
BRANCH   1  19
HETATM   19  C   UNL     1      42.749 -15.711   1.773  1.00  0.00     0.162 C 
BRANCH  19  20
HETATM   20  C   UNL     1      43.167 -16.853   2.667  1.00  0.00    -0.040 A 
HETATM   21  C   UNL     1      43.219 -18.156   2.149  1.00  0.00     0.011 A 
HETATM   22  C   UNL     1      43.679 -19.225   2.929  1.00  0.00     0.037 A 
HETATM   23  C   UNL     1      44.106 -19.005   4.238  1.00  0.00     0.068 A 
HETATM   24  C   UNL     1      44.054 -17.712   4.761  1.00  0.00     0.037 A 
HETATM   25  C   UNL     1      43.598 -16.644   3.983  1.00  0.00     0.011 A 
BRANCH  23  26
HETATM   26  O   UNL     1      44.589 -19.951   5.098  1.00  0.00    -0.356 OA
HETATM   27  C   UNL     1      43.861 -21.169   5.189  1.00  0.00     0.210 C 
ENDBRANCH  23  26
ENDBRANCH  19  20
ENDBRANCH   1  19
TORSDOF 6
ENDMDL
MODEL 6
REMARK VINA RESULT:      -7.2      4.679      7.666
REMARK  6 active torsions:
REMARK  status: ('A' for Active; 'I' for Inactive)
REMARK    1  A    between atoms: O_2  and  C_3 
REMARK    2  A    between atoms: C_6  and  C_7 
REMARK    3  A    between atoms: C_7  and  N_8 
REMARK       I    between atoms: N_8  and  C_9 
REMARK       I    between atoms: C_9  and  N_10 
REMARK    4  A    between atoms: N_10  and  C_11 
REMARK    5  A    between atoms: C_11  and  C_12 
REMARK    6  A    between atoms: C_13  and  C_14 
ROOT
HETATM    1  N   UNL     1      41.827 -14.862   2.599  1.00  0.00    -0.339 N 
HETATM    2  C   UNL     1      41.072 -13.985   1.895  1.00  0.00     0.316 C 
HETATM    3  N   UNL     1      41.406 -13.819   0.589  1.00  0.00    -0.339 N 
HETATM    4  O   UNL     1      40.173 -13.374   2.462  1.00  0.00    -0.247 OA
HETATM    5  H   UNL     1      41.538 -14.931   3.566  1.00  0.00     0.164 HD
HETATM    6  H   UNL     1      41.877 -14.584   0.131  1.00  0.00     0.164 HD
ENDROOT
BRANCH   3   7
HETATM    7  C   UNL     1      40.738 -12.850  -0.260  1.00  0.00     0.163 C 
BRANCH   7   8
HETATM    8  C   UNL     1      39.845 -13.475  -1.317  1.00  0.00    -0.029 A 
HETATM    9  C   UNL     1      39.346 -12.702  -2.389  1.00  0.00    -0.018 A 
HETATM   10  C   UNL     1      38.562 -13.301  -3.389  1.00  0.00     0.013 A 
HETATM   11  C   UNL     1      38.263 -14.660  -3.339  1.00  0.00     0.001 A 
HETATM   12  C   UNL     1      38.754 -15.434  -2.294  1.00  0.00     0.001 A 
HETATM   13  C   UNL     1      39.539 -14.849  -1.298  1.00  0.00     0.010 A 
BRANCH   9  14
HETATM   14  C   UNL     1      39.645 -11.284  -2.528  1.00  0.00    -0.018 A 
HETATM   15  C   UNL     1      38.811 -10.315  -2.007  1.00  0.00     0.061 A 
HETATM   16  S   UNL     1      39.372  -8.732  -2.339  1.00  0.00    -0.113 SA
HETATM   17  C   UNL     1      40.717  -9.331  -3.210  1.00  0.00     0.050 A 
HETATM   18  C   UNL     1      40.743 -10.707  -3.240  1.00  0.00     0.020 A 
ENDBRANCH   9  14
ENDBRANCH   7   8
ENDBRANCH   3   7
BRANCH   1  19
HETATM   19  C   UNL     1      43.056 -15.522   2.217  1.00  0.00     0.162 C 
BRANCH  19  20
HETATM   20  C   UNL     1      43.427 -16.680   3.111  1.00  0.00    -0.040 A 
HETATM   21  C   UNL     1      43.614 -16.463   4.485  1.00  0.00     0.011 A 
HETATM   22  C   UNL     1      43.880 -17.529   5.354  1.00  0.00     0.037 A 
HETATM   23  C   UNL     1      43.951 -18.832   4.864  1.00  0.00     0.068 A 
HETATM   24  C   UNL     1      43.769 -19.055   3.499  1.00  0.00     0.037 A 
HETATM   25  C   UNL     1      43.501 -17.993   2.630  1.00  0.00     0.011 A 
BRANCH  23  26
HETATM   26  O   UNL     1      44.188 -19.959   5.602  1.00  0.00    -0.356 OA
HETATM   27  C   UNL     1      43.901 -21.205   4.981  1.00  0.00     0.210 C 
ENDBRANCH  23  26
ENDBRANCH  19  20
ENDBRANCH   1  19
TORSDOF 6
ENDMDL
MODEL 7
REMARK VINA RESULT:      -7.1      2.273      3.523
REMARK  6 active torsions:
REMARK  status: ('A' for Active; 'I' for Inactive)
REMARK    1  A    between atoms: O_2  and  C_3 
REMARK    2  A    between atoms: C_6  and  C_7 
REMARK    3  A    between atoms: C_7  and  N_8 
REMARK       I    between atoms: N_8  and  C_9 
REMARK       I    between atoms: C_9  and  N_10 
REMARK    4  A    between atoms: N_10  and  C_11 
REMARK    5  A    between atoms: C_11  and  C_12 
REMARK    6  A    between atoms: C_13  and  C_14 
ROOT
HETATM    1  N   UNL     1      41.011 -12.364   2.537  1.00  0.00    -0.339 N 
HETATM    2  C   UNL     1      40.519 -13.585   2.855  1.00  0.00     0.316 C 
HETATM    3  N   UNL     1      41.411 -14.482   3.348  1.00  0.00    -0.339 N 
HETATM    4  O   UNL     1      39.334 -13.828   2.652  1.00  0.00    -0.247 OA
HETATM    5  H   UNL     1      40.302 -11.747   2.163  1.00  0.00     0.164 HD
HETATM    6  H   UNL     1      42.228 -14.116   3.811  1.00  0.00     0.164 HD
ENDROOT
BRANCH   3   7
HETATM    7  C   UNL     1      41.040 -15.853   3.649  1.00  0.00     0.163 C 
BRANCH   7   8
HETATM    8  C   UNL     1      42.160 -16.853   3.423  1.00  0.00    -0.029 A 
HETATM    9  C   UNL     1      43.178 -17.026   4.387  1.00  0.00    -0.018 A 
HETATM   10  C   UNL     1      44.182 -17.989   4.192  1.00  0.00     0.013 A 
HETATM   11  C   UNL     1      44.191 -18.785   3.048  1.00  0.00     0.001 A 
HETATM   12  C   UNL     1      43.190 -18.632   2.096  1.00  0.00     0.001 A 
HETATM   13  C   UNL     1      42.184 -17.680   2.284  1.00  0.00     0.010 A 
BRANCH   9  14
HETATM   14  C   UNL     1      43.217 -16.256   5.622  1.00  0.00    -0.018 A 
HETATM   15  C   UNL     1      42.901 -16.826   6.839  1.00  0.00     0.061 A 
HETATM   16  S   UNL     1      42.991 -15.699   8.125  1.00  0.00    -0.113 SA
HETATM   17  C   UNL     1      43.421 -14.433   7.058  1.00  0.00     0.050 A 
HETATM   18  C   UNL     1      43.503 -14.861   5.752  1.00  0.00     0.020 A 
ENDBRANCH   9  14
ENDBRANCH   7   8
ENDBRANCH   3   7
BRANCH   1  19
HETATM   19  C   UNL     1      42.386 -11.920   2.478  1.00  0.00     0.162 C 
BRANCH  19  20
HETATM   20  C   UNL     1      42.949 -11.504   3.815  1.00  0.00    -0.040 A 
HETATM   21  C   UNL     1      42.089 -11.007   4.805  1.00  0.00     0.011 A 
HETATM   22  C   UNL     1      42.566 -10.688   6.082  1.00  0.00     0.037 A 
HETATM   23  C   UNL     1      43.913 -10.873   6.395  1.00  0.00     0.068 A 
HETATM   24  C   UNL     1      44.775 -11.366   5.414  1.00  0.00     0.037 A 
HETATM   25  C   UNL     1      44.300 -11.687   4.139  1.00  0.00     0.011 A 
BRANCH  23  26
HETATM   26  O   UNL     1      44.504 -10.618   7.600  1.00  0.00    -0.356 OA
HETATM   27  C   UNL     1      45.923 -10.540   7.617  1.00  0.00     0.210 C 
ENDBRANCH  23  26
ENDBRANCH  19  20
ENDBRANCH   1  19
TORSDOF 6
ENDMDL
MODEL 8
REMARK VINA RESULT:      -7.1      3.050      8.249
REMARK  6 active torsions:
REMARK  status: ('A' for Active; 'I' for Inactive)
REMARK    1  A    between atoms: O_2  and  C_3 
REMARK    2  A    between atoms: C_6  and  C_7 
REMARK    3  A    between atoms: C_7  and  N_8 
REMARK       I    between atoms: N_8  and  C_9 
REMARK       I    between atoms: C_9  and  N_10 
REMARK    4  A    between atoms: N_10  and  C_11 
REMARK    5  A    between atoms: C_11  and  C_12 
REMARK    6  A    between atoms: C_13  and  C_14 
ROOT
HETATM    1  N   UNL     1      41.413 -14.135   4.572  1.00  0.00    -0.339 N 
HETATM    2  C   UNL     1      41.292 -13.172   5.516  1.00  0.00     0.316 C 
HETATM    3  N   UNL     1      42.174 -12.143   5.441  1.00  0.00    -0.339 N 
HETATM    4  O   UNL     1      40.439 -13.290   6.390  1.00  0.00    -0.247 OA
HETATM    5  H   UNL     1      40.737 -14.879   4.689  1.00  0.00     0.164 HD
HETATM    6  H   UNL     1      42.568 -11.936   4.536  1.00  0.00     0.164 HD
ENDROOT
BRANCH   3   7
HETATM    7  C   UNL     1      42.214 -11.087   6.437  1.00  0.00     0.163 C 
BRANCH   7   8
HETATM    8  C   UNL     1      43.614 -10.758   6.922  1.00  0.00    -0.029 A 
HETATM    9  C   UNL     1      43.823  -9.753   7.894  1.00  0.00    -0.018 A 
HETATM   10  C   UNL     1      45.117  -9.489   8.373  1.00  0.00     0.013 A 
HETATM   11  C   UNL     1      46.211 -10.210   7.899  1.00  0.00     0.001 A 
HETATM   12  C   UNL     1      46.019 -11.206   6.950  1.00  0.00     0.001 A 
HETATM   13  C   UNL     1      44.735 -11.480   6.471  1.00  0.00     0.010 A 
BRANCH   9  14
HETATM   14  C   UNL     1      42.726  -8.983   8.462  1.00  0.00    -0.018 A 
HETATM   15  C   UNL     1      42.147  -9.330   9.666  1.00  0.00     0.061 A 
HETATM   16  S   UNL     1      40.859  -8.285  10.090  1.00  0.00    -0.113 SA
HETATM   17  C   UNL     1      41.046  -7.380   8.651  1.00  0.00     0.050 A 
HETATM   18  C   UNL     1      42.073  -7.858   7.868  1.00  0.00     0.020 A 
ENDBRANCH   9  14
ENDBRANCH   7   8
ENDBRANCH   3   7
BRANCH   1  19
HETATM   19  C   UNL     1      42.459 -14.328   3.592  1.00  0.00     0.162 C 
BRANCH  19  20
HETATM   20  C   UNL     1      42.945 -15.753   3.494  1.00  0.00    -0.040 A 
HETATM   21  C   UNL     1      43.426 -16.401   4.642  1.00  0.00     0.011 A 
HETATM   22  C   UNL     1      43.810 -17.748   4.602  1.00  0.00     0.037 A 
HETATM   23  C   UNL     1      43.707 -18.472   3.415  1.00  0.00     0.068 A 
HETATM   24  C   UNL     1      43.232 -17.833   2.269  1.00  0.00     0.037 A 
HETATM   25  C   UNL     1      42.846 -16.490   2.307  1.00  0.00     0.011 A 
BRANCH  23  26
HETATM   26  O   UNL     1      44.031 -19.789   3.243  1.00  0.00    -0.356 OA
HETATM   27  C   UNL     1      43.564 -20.416   2.056  1.00  0.00     0.210 C 
ENDBRANCH  23  26
ENDBRANCH  19  20
ENDBRANCH   1  19
TORSDOF 6
ENDMDL
MODEL 9
REMARK VINA RESULT:      -7.1      5.006      7.819
REMARK  6 active torsions:
REMARK  status: ('A' for Active; 'I' for Inactive)
REMARK    1  A    between atoms: O_2  and  C_3 
REMARK    2  A    between atoms: C_6  and  C_7 
REMARK    3  A    between atoms: C_7  and  N_8 
REMARK       I    between atoms: N_8  and  C_9 
REMARK       I    between atoms: C_9  and  N_10 
REMARK    4  A    between atoms: N_10  and  C_11 
REMARK    5  A    between atoms: C_11  and  C_12 
REMARK    6  A    between atoms: C_13  and  C_14 
ROOT
HETATM    1  N   UNL     1      41.556 -15.370   1.187  1.00  0.00    -0.339 N 
HETATM    2  C   UNL     1      40.679 -14.445   0.730  1.00  0.00     0.316 C 
HETATM    3  N   UNL     1      40.948 -13.153   1.047  1.00  0.00    -0.339 N 
HETATM    4  O   UNL     1      39.692 -14.811   0.100  1.00  0.00    -0.247 OA
HETATM    5  H   UNL     1      41.294 -16.312   0.930  1.00  0.00     0.164 HD
HETATM    6  H   UNL     1      41.910 -12.911   1.227  1.00  0.00     0.164 HD
ENDROOT
BRANCH   3   7
HETATM    7  C   UNL     1      40.049 -12.069   0.696  1.00  0.00     0.163 C 
BRANCH   7   8
HETATM    8  C   UNL     1      40.646 -11.069  -0.278  1.00  0.00    -0.029 A 
HETATM    9  C   UNL     1      40.312 -11.110  -1.650  1.00  0.00    -0.018 A 
HETATM   10  C   UNL     1      40.831 -10.149  -2.534  1.00  0.00     0.013 A 
HETATM   11  C   UNL     1      41.682  -9.147  -2.075  1.00  0.00     0.001 A 
HETATM   12  C   UNL     1      42.013  -9.090  -0.726  1.00  0.00     0.001 A 
HETATM   13  C   UNL     1      41.497 -10.037   0.162  1.00  0.00     0.010 A 
BRANCH   9  14
HETATM   14  C   UNL     1      39.401 -12.105  -2.198  1.00  0.00    -0.018 A 
HETATM   15  C   UNL     1      38.032 -11.975  -2.080  1.00  0.00     0.061 A 
HETATM   16  S   UNL     1      37.194 -13.295  -2.777  1.00  0.00    -0.113 SA
HETATM   17  C   UNL     1      38.658 -14.066  -3.214  1.00  0.00     0.050 A 
HETATM   18  C   UNL     1      39.761 -13.329  -2.844  1.00  0.00     0.020 A 
ENDBRANCH   9  14
ENDBRANCH   7   8
ENDBRANCH   3   7
BRANCH   1  19
HETATM   19  C   UNL     1      42.650 -15.209   2.120  1.00  0.00     0.162 C 
BRANCH  19  20
HETATM   20  C   UNL     1      43.052 -16.488   2.811  1.00  0.00    -0.040 A 
HETATM   21  C   UNL     1      43.019 -17.699   2.103  1.00  0.00     0.011 A 
HETATM   22  C   UNL     1      43.462 -18.891   2.690  1.00  0.00     0.037 A 
HETATM   23  C   UNL     1      43.958 -18.889   3.994  1.00  0.00     0.068 A 
HETATM   24  C   UNL     1      43.991 -17.689   4.705  1.00  0.00     0.037 A 
HETATM   25  C   UNL     1      43.551 -16.498   4.120  1.00  0.00     0.011 A 
BRANCH  23  26
HETATM   26  O   UNL     1      44.433 -19.973   4.678  1.00  0.00    -0.356 OA
HETATM   27  C   UNL     1      43.813 -20.271   5.922  1.00  0.00     0.210 C 
ENDBRANCH  23  26
ENDBRANCH  19  20
ENDBRANCH   1  19
TORSDOF 6
ENDMDL
MODEL 10
REMARK VINA RESULT:      -7.1      3.477      6.222
REMARK  6 active torsions:
REMARK  status: ('A' for Active; 'I' for Inactive)
REMARK    1  A    between atoms: O_2  and  C_3 
REMARK    2  A    between atoms: C_6  and  C_7 
REMARK    3  A    between atoms: C_7  and  N_8 
REMARK       I    between atoms: N_8  and  C_9 
REMARK       I    between atoms: C_9  and  N_10 
REMARK    4  A    between atoms: N_10  and  C_11 
REMARK    5  A    between atoms: C_11  and  C_12 
REMARK    6  A    between atoms: C_13  and  C_14 
ROOT
HETATM    1  N   UNL     1      41.432 -14.259   6.798  1.00  0.00    -0.339 N 
HETATM    2  C   UNL     1      40.526 -13.699   5.961  1.00  0.00     0.316 C 
HETATM    3  N   UNL     1      40.938 -13.487   4.685  1.00  0.00    -0.339 N 
HETATM    4  O   UNL     1      39.421 -13.385   6.392  1.00  0.00    -0.247 OA
HETATM    5  H   UNL     1      41.070 -14.379   7.735  1.00  0.00     0.164 HD
HETATM    6  H   UNL     1      41.675 -14.078   4.332  1.00  0.00     0.164 HD
ENDROOT
BRANCH   3   7
HETATM    7  C   UNL     1      40.102 -12.817   3.706  1.00  0.00     0.163 C 
BRANCH   7   8
HETATM    8  C   UNL     1      39.988 -13.560   2.387  1.00  0.00    -0.029 A 
HETATM    9  C   UNL     1      39.925 -12.855   1.165  1.00  0.00    -0.018 A 
HETATM   10  C   UNL     1      39.869 -13.553  -0.053  1.00  0.00     0.013 A 
HETATM   11  C   UNL     1      39.874 -14.946  -0.075  1.00  0.00     0.001 A 
HETATM   12  C   UNL     1      39.945 -15.652   1.120  1.00  0.00     0.001 A 
HETATM   13  C   UNL     1      40.006 -14.967   2.336  1.00  0.00     0.010 A 
BRANCH   9  14
HETATM   14  C   UNL     1      39.950 -11.400   1.105  1.00  0.00    -0.018 A 
HETATM   15  C   UNL     1      38.787 -10.658   1.068  1.00  0.00     0.061 A 
HETATM   16  S   UNL     1      39.095  -8.977   0.966  1.00  0.00    -0.113 SA
HETATM   17  C   UNL     1      40.786  -9.232   0.938  1.00  0.00     0.050 A 
HETATM   18  C   UNL     1      41.110 -10.569   1.014  1.00  0.00     0.020 A 
ENDBRANCH   9  14
ENDBRANCH   7   8
ENDBRANCH   3   7
BRANCH   1  19
HETATM   19  C   UNL     1      42.841 -14.507   6.586  1.00  0.00     0.162 C 
BRANCH  19  20
HETATM   20  C   UNL     1      43.139 -15.872   6.017  1.00  0.00    -0.040 A 
HETATM   21  C   UNL     1      43.346 -16.017   4.637  1.00  0.00     0.011 A 
HETATM   22  C   UNL     1      43.704 -17.256   4.087  1.00  0.00     0.037 A 
HETATM   23  C   UNL     1      43.871 -18.367   4.912  1.00  0.00     0.068 A 
HETATM   24  C   UNL     1      43.664 -18.231   6.285  1.00  0.00     0.037 A 
HETATM   25  C   UNL     1      43.310 -16.995   6.836  1.00  0.00     0.011 A 
BRANCH  23  26
HETATM   26  O   UNL     1      44.230 -19.623   4.510  1.00  0.00    -0.356 OA
HETATM   27  C   UNL     1      43.968 -20.688   5.415  1.00  0.00     0.210 C 
ENDBRANCH  23  26
ENDBRANCH  19  20
ENDBRANCH   1  19
TORSDOF 6
ENDMDL
