MODEL 1
REMARK VINA RESULT:      -7.8      0.000      0.000
REMARK  1 active torsions:
REMARK  status: ('A' for Active; 'I' for Inactive)
REMARK    1  A    between atoms: C_8  and  C_9 
ROOT
HETATM    1  C   UNL     1      43.695 -18.427   2.575  1.00  0.00     0.073 C 
HETATM    2  C   UNL     1      43.619 -18.330   4.059  1.00  0.00     0.062 A 
HETATM    3  N   UNL     1      43.818 -19.431   4.785  1.00  0.00    -0.178 NA
HETATM    4  N   UNL     1      43.774 -18.995   6.042  1.00  0.00    -0.262 N 
HETATM    5  H   UNL     1      43.937 -19.668   6.782  1.00  0.00     0.191 HD
HETATM    6  C   UNL     1      43.489 -17.661   6.173  1.00  0.00     0.134 A 
HETATM    7  C   UNL     1      43.364 -17.171   4.881  1.00  0.00     0.032 A 
HETATM    8  C   UNL     1      43.198 -15.775   4.351  1.00  0.00     0.121 C 
HETATM    9  S   UNL     1      43.204 -14.399   5.524  1.00  0.00    -0.140 SA
HETATM   10  C   UNL     1      42.221 -14.984   6.930  1.00  0.00     0.136 C 
HETATM   11  C   UNL     1      40.829 -15.528   6.659  1.00  0.00     0.031 C 
HETATM   12  C   UNL     1      43.017 -15.900   7.840  1.00  0.00     0.236 C 
HETATM   13  O   UNL     1      43.199 -15.601   9.027  1.00  0.00    -0.272 OA
HETATM   14  N   UNL     1      43.446 -17.126   7.438  1.00  0.00    -0.311 N 
HETATM   15  H   UNL     1      43.814 -17.668   8.215  1.00  0.00     0.170 HD
ENDROOT
BRANCH   8  16
HETATM   16  C   UNL     1      42.054 -15.703   3.336  1.00  0.00    -0.018 A 
HETATM   17  C   UNL     1      42.265 -15.158   2.049  1.00  0.00     0.041 A 
HETATM   18 CL   UNL     1      43.811 -14.579   1.521  1.00  0.00    -0.084 Cl
HETATM   19  C   UNL     1      41.227 -15.080   1.110  1.00  0.00     0.024 A 
HETATM   20  C   UNL     1      39.954 -15.538   1.429  1.00  0.00     0.002 A 
HETATM   21  C   UNL     1      39.716 -16.080   2.685  1.00  0.00     0.001 A 
HETATM   22  C   UNL     1      40.750 -16.161   3.622  1.00  0.00     0.010 A 
ENDBRANCH   8  16
TORSDOF 1
ENDMDL
MODEL 2
REMARK VINA RESULT:      -7.4      3.249      4.570
REMARK  1 active torsions:
REMARK  status: ('A' for Active; 'I' for Inactive)
REMARK    1  A    between atoms: C_8  and  C_9 
ROOT
HETATM    1  C   UNL     1      43.364 -14.168   7.179  1.00  0.00     0.073 C 
HETATM    2  C   UNL     1      43.694 -15.334   6.313  1.00  0.00     0.062 A 
HETATM    3  N   UNL     1      44.700 -16.134   6.670  1.00  0.00    -0.178 NA
HETATM    4  N   UNL     1      44.676 -17.103   5.758  1.00  0.00    -0.262 N 
HETATM    5  H   UNL     1      45.345 -17.858   5.851  1.00  0.00     0.191 HD
HETATM    6  C   UNL     1      43.733 -16.937   4.776  1.00  0.00     0.134 A 
HETATM    7  C   UNL     1      43.059 -15.766   5.090  1.00  0.00     0.032 A 
HETATM    8  C   UNL     1      41.841 -15.120   4.494  1.00  0.00     0.121 C 
HETATM    9  S   UNL     1      40.985 -15.970   3.146  1.00  0.00    -0.140 SA
HETATM   10  C   UNL     1      42.310 -16.615   2.089  1.00  0.00     0.136 C 
HETATM   11  C   UNL     1      43.376 -15.649   1.601  1.00  0.00     0.031 C 
HETATM   12  C   UNL     1      42.916 -17.888   2.648  1.00  0.00     0.236 C 
HETATM   13  O   UNL     1      42.877 -18.939   1.995  1.00  0.00    -0.272 OA
HETATM   14  N   UNL     1      43.628 -17.905   3.806  1.00  0.00    -0.311 N 
HETATM   15  H   UNL     1      44.097 -18.795   3.945  1.00  0.00     0.170 HD
ENDROOT
BRANCH   8  16
HETATM   16  C   UNL     1      42.084 -13.634   4.217  1.00  0.00    -0.018 A 
HETATM   17  C   UNL     1      41.175 -12.657   4.684  1.00  0.00     0.041 A 
HETATM   18 CL   UNL     1      39.770 -13.055   5.616  1.00  0.00    -0.084 Cl
HETATM   19  C   UNL     1      41.379 -11.293   4.435  1.00  0.00     0.024 A 
HETATM   20  C   UNL     1      42.490 -10.867   3.714  1.00  0.00     0.002 A 
HETATM   21  C   UNL     1      43.401 -11.804   3.244  1.00  0.00     0.001 A 
HETATM   22  C   UNL     1      43.200 -13.165   3.493  1.00  0.00     0.010 A 
ENDBRANCH   8  16
TORSDOF 1
ENDMDL
MODEL 3
REMARK VINA RESULT:      -7.1      3.358      5.006
REMARK  1 active torsions:
REMARK  status: ('A' for Active; 'I' for Inactive)
REMARK    1  A    between atoms: C_8  and  C_9 
ROOT
HETATM    1  C   UNL     1      41.885 -16.442   6.740  1.00  0.00     0.073 C 
HETATM    2  C   UNL     1      41.167 -15.385   5.975  1.00  0.00     0.062 A 
HETATM    3  N   UNL     1      39.978 -14.970   6.415  1.00  0.00    -0.178 NA
HETATM    4  N   UNL     1      39.657 -13.983   5.581  1.00  0.00    -0.262 N 
HETATM    5  H   UNL     1      38.790 -13.486   5.747  1.00  0.00     0.191 HD
HETATM    6  C   UNL     1      40.558 -13.777   4.568  1.00  0.00     0.134 A 
HETATM    7  C   UNL     1      41.579 -14.694   4.776  1.00  0.00     0.032 A 
HETATM    8  C   UNL     1      42.909 -14.880   4.105  1.00  0.00     0.121 C 
HETATM    9  S   UNL     1      43.394 -13.716   2.809  1.00  0.00    -0.140 SA
HETATM   10  C   UNL     1      41.888 -13.453   1.835  1.00  0.00     0.136 C 
HETATM   11  C   UNL     1      41.157 -14.671   1.296  1.00  0.00     0.031 C 
HETATM   12  C   UNL     1      40.940 -12.476   2.504  1.00  0.00     0.236 C 
HETATM   13  O   UNL     1      40.618 -11.425   1.935  1.00  0.00    -0.272 OA
HETATM   14  N   UNL     1      40.311 -12.763   3.675  1.00  0.00    -0.311 N 
HETATM   15  H   UNL     1      39.594 -12.078   3.893  1.00  0.00     0.170 HD
ENDROOT
BRANCH   8  16
HETATM   16  C   UNL     1      43.133 -16.345   3.719  1.00  0.00    -0.018 A 
HETATM   17  C   UNL     1      44.047 -17.148   4.437  1.00  0.00     0.041 A 
HETATM   18 CL   UNL     1      44.938 -16.559   5.802  1.00  0.00    -0.084 Cl
HETATM   19  C   UNL     1      44.268 -18.489   4.093  1.00  0.00     0.024 A 
HETATM   20  C   UNL     1      43.586 -19.063   3.026  1.00  0.00     0.002 A 
HETATM   21  C   UNL     1      42.679 -18.299   2.303  1.00  0.00     0.001 A 
HETATM   22  C   UNL     1      42.457 -16.962   2.645  1.00  0.00     0.010 A 
ENDBRANCH   8  16
TORSDOF 1
ENDMDL
MODEL 4
REMARK VINA RESULT:      -7.1      9.337     11.258
REMARK  1 active torsions:
REMARK  status: ('A' for Active; 'I' for Inactive)
REMARK    1  A    between atoms: C_8  and  C_9 
ROOT
HETATM    1  C   UNL     1      43.694 -11.273  12.059  1.00  0.00     0.073 C 
HETATM    2  C   UNL     1      43.890 -10.454  10.831  1.00  0.00     0.062 A 
HETATM    3  N   UNL     1      44.952 -10.696  10.061  1.00  0.00    -0.178 NA
HETATM    4  N   UNL     1      44.787  -9.876   9.025  1.00  0.00    -0.262 N 
HETATM    5  H   UNL     1      45.472  -9.913   8.279  1.00  0.00     0.191 HD
HETATM    6  C   UNL     1      43.692  -9.057   9.115  1.00  0.00     0.134 A 
HETATM    7  C   UNL     1      43.065  -9.391  10.307  1.00  0.00     0.032 A 
HETATM    8  C   UNL     1      41.756  -8.960  10.905  1.00  0.00     0.121 C 
HETATM    9  S   UNL     1      40.698  -7.843   9.955  1.00  0.00    -0.140 SA
HETATM   10  C   UNL     1      41.836  -6.631   9.232  1.00  0.00     0.136 C 
HETATM   11  C   UNL     1      42.792  -5.899  10.158  1.00  0.00     0.031 C 
HETATM   12  C   UNL     1      42.543  -7.173   8.004  1.00  0.00     0.236 C 
HETATM   13  O   UNL     1      42.409  -6.618   6.907  1.00  0.00    -0.272 OA
HETATM   14  N   UNL     1      43.439  -8.194   8.076  1.00  0.00    -0.311 N 
HETATM   15  H   UNL     1      43.936  -8.319   7.200  1.00  0.00     0.170 HD
ENDROOT
BRANCH   8  16
HETATM   16  C   UNL     1      41.929  -8.536  12.365  1.00  0.00    -0.018 A 
HETATM   17  C   UNL     1      41.059  -9.025  13.366  1.00  0.00     0.041 A 
HETATM   18 CL   UNL     1      39.780 -10.145  13.028  1.00  0.00    -0.084 Cl
HETATM   19  C   UNL     1      41.200  -8.643  14.707  1.00  0.00     0.024 A 
HETATM   20  C   UNL     1      42.209  -7.763  15.086  1.00  0.00     0.002 A 
HETATM   21  C   UNL     1      43.081  -7.268  14.125  1.00  0.00     0.001 A 
HETATM   22  C   UNL     1      42.943  -7.650  12.787  1.00  0.00     0.010 A 
ENDBRANCH   8  16
TORSDOF 1
ENDMDL
MODEL 5
REMARK VINA RESULT:      -6.6      2.779      3.452
REMARK  1 active torsions:
REMARK  status: ('A' for Active; 'I' for Inactive)
REMARK    1  A    between atoms: C_8  and  C_9 
ROOT
HETATM    1  C   UNL     1      42.622 -16.778   4.907  1.00  0.00     0.073 C 
HETATM    2  C   UNL     1      42.709 -15.605   5.820  1.00  0.00     0.062 A 
HETATM    3  N   UNL     1      42.634 -15.810   7.136  1.00  0.00    -0.178 NA
HETATM    4  N   UNL     1      42.833 -14.601   7.658  1.00  0.00    -0.262 N 
HETATM    5  H   UNL     1      42.852 -14.519   8.668  1.00  0.00     0.191 HD
HETATM    6  C   UNL     1      42.970 -13.597   6.735  1.00  0.00     0.134 A 
HETATM    7  C   UNL     1      42.883 -14.209   5.492  1.00  0.00     0.032 A 
HETATM    8  C   UNL     1      43.093 -13.685   4.101  1.00  0.00     0.121 C 
HETATM    9  S   UNL     1      43.611 -11.965   3.894  1.00  0.00    -0.140 SA
HETATM   10  C   UNL     1      42.626 -11.036   5.100  1.00  0.00     0.136 C 
HETATM   11  C   UNL     1      41.117 -11.209   5.083  1.00  0.00     0.031 C 
HETATM   12  C   UNL     1      43.191 -11.147   6.504  1.00  0.00     0.236 C 
HETATM   13  O   UNL     1      43.557 -10.135   7.114  1.00  0.00    -0.272 OA
HETATM   14  N   UNL     1      43.199 -12.321   7.191  1.00  0.00    -0.311 N 
HETATM   15  H   UNL     1      43.456 -12.185   8.164  1.00  0.00     0.170 HD
ENDROOT
BRANCH   8  16
HETATM   16  C   UNL     1      41.938 -14.086   3.180  1.00  0.00    -0.018 A 
HETATM   17  C   UNL     1      42.182 -14.814   1.993  1.00  0.00     0.041 A 
HETATM   18 CL   UNL     1      43.768 -15.330   1.521  1.00  0.00    -0.084 Cl
HETATM   19  C   UNL     1      41.137 -15.185   1.136  1.00  0.00     0.024 A 
HETATM   20  C   UNL     1      39.824 -14.837   1.436  1.00  0.00     0.002 A 
HETATM   21  C   UNL     1      39.553 -14.123   2.596  1.00  0.00     0.001 A 
HETATM   22  C   UNL     1      40.595 -13.755   3.453  1.00  0.00     0.010 A 
ENDBRANCH   8  16
TORSDOF 1
ENDMDL
MODEL 6
REMARK VINA RESULT:      -6.6      3.316      4.343
REMARK  1 active torsions:
REMARK  status: ('A' for Active; 'I' for Inactive)
REMARK    1  A    between atoms: C_8  and  C_9 
ROOT
HETATM    1  C   UNL     1      42.987 -12.289   2.829  1.00  0.00     0.073 C 
HETATM    2  C   UNL     1      43.023 -13.749   3.117  1.00  0.00     0.062 A 
HETATM    3  N   UNL     1      43.160 -14.601   2.099  1.00  0.00    -0.178 NA
HETATM    4  N   UNL     1      43.246 -15.791   2.690  1.00  0.00    -0.262 N 
HETATM    5  H   UNL     1      43.391 -16.603   2.100  1.00  0.00     0.191 HD
HETATM    6  C   UNL     1      43.106 -15.762   4.053  1.00  0.00     0.134 A 
HETATM    7  C   UNL     1      42.942 -14.426   4.390  1.00  0.00     0.032 A 
HETATM    8  C   UNL     1      42.881 -13.729   5.719  1.00  0.00     0.121 C 
HETATM    9  S   UNL     1      43.105 -14.710   7.221  1.00  0.00    -0.140 SA
HETATM   10  C   UNL     1      42.167 -16.233   6.924  1.00  0.00     0.136 C 
HETATM   11  C   UNL     1      40.712 -16.112   6.505  1.00  0.00     0.031 C 
HETATM   12  C   UNL     1      42.927 -17.209   6.048  1.00  0.00     0.236 C 
HETATM   13  O   UNL     1      43.219 -18.335   6.470  1.00  0.00    -0.272 OA
HETATM   14  N   UNL     1      43.203 -16.948   4.742  1.00  0.00    -0.311 N 
HETATM   15  H   UNL     1      43.567 -17.766   4.264  1.00  0.00     0.170 HD
ENDROOT
BRANCH   8  16
HETATM   16  C   UNL     1      41.683 -12.778   5.788  1.00  0.00    -0.018 A 
HETATM   17  C   UNL     1      41.850 -11.438   6.205  1.00  0.00     0.041 A 
HETATM   18 CL   UNL     1      43.395 -10.774   6.623  1.00  0.00    -0.084 Cl
HETATM   19  C   UNL     1      40.763 -10.555   6.279  1.00  0.00     0.024 A 
HETATM   20  C   UNL     1      39.484 -10.985   5.943  1.00  0.00     0.002 A 
HETATM   21  C   UNL     1      39.289 -12.296   5.528  1.00  0.00     0.001 A 
HETATM   22  C   UNL     1      40.372 -13.177   5.452  1.00  0.00     0.010 A 
ENDBRANCH   8  16
TORSDOF 1
ENDMDL
MODEL 7
REMARK VINA RESULT:      -6.6      4.812      6.062
REMARK  1 active torsions:
REMARK  status: ('A' for Active; 'I' for Inactive)
REMARK    1  A    between atoms: C_8  and  C_9 
ROOT
HETATM    1  C   UNL     1      39.870 -14.711  -0.005  1.00  0.00     0.073 C 
HETATM    2  C   UNL     1      40.246 -13.324   0.386  1.00  0.00     0.062 A 
HETATM    3  N   UNL     1      40.152 -12.353  -0.524  1.00  0.00    -0.178 NA
HETATM    4  N   UNL     1      40.466 -11.250   0.153  1.00  0.00    -0.262 N 
HETATM    5  H   UNL     1      40.427 -10.365  -0.339  1.00  0.00     0.191 HD
HETATM    6  C   UNL     1      40.826 -11.467   1.458  1.00  0.00     0.134 A 
HETATM    7  C   UNL     1      40.710 -12.834   1.663  1.00  0.00     0.032 A 
HETATM    8  C   UNL     1      40.823 -13.675   2.902  1.00  0.00     0.121 C 
HETATM    9  S   UNL     1      41.110 -12.847   4.484  1.00  0.00    -0.140 SA
HETATM   10  C   UNL     1      42.330 -11.557   4.118  1.00  0.00     0.136 C 
HETATM   11  C   UNL     1      43.616 -11.961   3.417  1.00  0.00     0.031 C 
HETATM   12  C   UNL     1      41.696 -10.338   3.476  1.00  0.00     0.236 C 
HETATM   13  O   UNL     1      41.769  -9.232   4.025  1.00  0.00    -0.272 OA
HETATM   14  N   UNL     1      41.144 -10.378   2.234  1.00  0.00    -0.311 N 
HETATM   15  H   UNL     1      40.918  -9.448   1.894  1.00  0.00     0.170 HD
ENDROOT
BRANCH   8  16
HETATM   16  C   UNL     1      41.742 -14.877   2.671  1.00  0.00    -0.018 A 
HETATM   17  C   UNL     1      41.521 -16.094   3.355  1.00  0.00     0.041 A 
HETATM   18 CL   UNL     1      40.201 -16.324   4.453  1.00  0.00    -0.084 Cl
HETATM   19  C   UNL     1      42.356 -17.204   3.159  1.00  0.00     0.024 A 
HETATM   20  C   UNL     1      43.432 -17.128   2.282  1.00  0.00     0.002 A 
HETATM   21  C   UNL     1      43.673 -15.946   1.594  1.00  0.00     0.001 A 
HETATM   22  C   UNL     1      42.840 -14.839   1.787  1.00  0.00     0.010 A 
ENDBRANCH   8  16
TORSDOF 1
ENDMDL
MODEL 8
REMARK VINA RESULT:      -6.5     14.246     15.473
REMARK  1 active torsions:
REMARK  status: ('A' for Active; 'I' for Inactive)
REMARK    1  A    between atoms: C_8  and  C_9 
ROOT
HETATM    1  C   UNL     1      44.170 -29.207   0.956  1.00  0.00     0.073 C 
HETATM    2  C   UNL     1      45.635 -29.108   1.205  1.00  0.00     0.062 A 
HETATM    3  N   UNL     1      46.063 -28.369   2.230  1.00  0.00    -0.178 NA
HETATM    4  N   UNL     1      47.381 -28.560   2.231  1.00  0.00    -0.262 N 
HETATM    5  H   UNL     1      47.924 -28.113   2.961  1.00  0.00     0.191 HD
HETATM    6  C   UNL     1      47.844 -29.344   1.206  1.00  0.00     0.134 A 
HETATM    7  C   UNL     1      46.723 -29.726   0.483  1.00  0.00     0.032 A 
HETATM    8  C   UNL     1      46.546 -30.687  -0.656  1.00  0.00     0.121 C 
HETATM    9  S   UNL     1      47.987 -31.613  -1.238  1.00  0.00    -0.140 SA
HETATM   10  C   UNL     1      49.342 -30.408  -1.237  1.00  0.00     0.136 C 
HETATM   11  C   UNL     1      49.140 -29.097  -1.976  1.00  0.00     0.031 C 
HETATM   12  C   UNL     1      49.911 -30.192   0.152  1.00  0.00     0.236 C 
HETATM   13  O   UNL     1      51.100 -30.439   0.387  1.00  0.00    -0.272 OA
HETATM   14  N   UNL     1      49.192 -29.607   1.147  1.00  0.00    -0.311 N 
HETATM   15  H   UNL     1      49.772 -29.390   1.952  1.00  0.00     0.170 HD
ENDROOT
BRANCH   8  16
HETATM   16  C   UNL     1      45.732 -30.057  -1.789  1.00  0.00    -0.018 A 
HETATM   17  C   UNL     1      44.650 -30.754  -2.374  1.00  0.00     0.041 A 
HETATM   18 CL   UNL     1      44.151 -32.325  -1.839  1.00  0.00    -0.084 Cl
HETATM   19  C   UNL     1      43.897 -30.193  -3.415  1.00  0.00     0.024 A 
HETATM   20  C   UNL     1      44.204 -28.927  -3.902  1.00  0.00     0.002 A 
HETATM   21  C   UNL     1      45.260 -28.218  -3.346  1.00  0.00     0.001 A 
HETATM   22  C   UNL     1      46.011 -28.774  -2.306  1.00  0.00     0.010 A 
ENDBRANCH   8  16
TORSDOF 1
ENDMDL
MODEL 9
REMARK VINA RESULT:      -6.5      4.478      6.180
REMARK  1 active torsions:
REMARK  status: ('A' for Active; 'I' for Inactive)
REMARK    1  A    between atoms: C_8  and  C_9 
ROOT
HETATM    1  C   UNL     1      43.792 -12.307   5.623  1.00  0.00     0.073 C 
HETATM    2  C   UNL     1      43.123 -11.866   4.368  1.00  0.00     0.062 A 
HETATM    3  N   UNL     1      43.009 -10.559   4.128  1.00  0.00    -0.178 NA
HETATM    4  N   UNL     1      42.461 -10.505   2.915  1.00  0.00    -0.262 N 
HETATM    5  H   UNL     1      42.310  -9.591   2.504  1.00  0.00     0.191 HD
HETATM    6  C   UNL     1      42.150 -11.726   2.376  1.00  0.00     0.134 A 
HETATM    7  C   UNL     1      42.558 -12.669   3.309  1.00  0.00     0.032 A 
HETATM    8  C   UNL     1      42.623 -14.168   3.256  1.00  0.00     0.121 C 
HETATM    9  S   UNL     1      42.156 -14.999   1.718  1.00  0.00    -0.140 SA
HETATM   10  C   UNL     1      40.688 -14.109   1.138  1.00  0.00     0.136 C 
HETATM   11  C   UNL     1      39.523 -13.937   2.098  1.00  0.00     0.031 C 
HETATM   12  C   UNL     1      41.046 -12.806   0.448  1.00  0.00     0.236 C 
HETATM   13  O   UNL     1      40.734 -12.617  -0.734  1.00  0.00    -0.272 OA
HETATM   14  N   UNL     1      41.600 -11.760   1.117  1.00  0.00    -0.311 N 
HETATM   15  H   UNL     1      41.621 -10.919   0.548  1.00  0.00     0.170 HD
ENDROOT
BRANCH   8  16
HETATM   16  C   UNL     1      41.987 -14.793   4.500  1.00  0.00    -0.018 A 
HETATM   17  C   UNL     1      42.525 -15.968   5.072  1.00  0.00     0.041 A 
HETATM   18 CL   UNL     1      43.938 -16.751   4.444  1.00  0.00    -0.084 Cl
HETATM   19  C   UNL     1      41.952 -16.556   6.209  1.00  0.00     0.024 A 
HETATM   20  C   UNL     1      40.828 -15.991   6.802  1.00  0.00     0.002 A 
HETATM   21  C   UNL     1      40.278 -14.836   6.263  1.00  0.00     0.001 A 
HETATM   22  C   UNL     1      40.849 -14.247   5.131  1.00  0.00     0.010 A 
ENDBRANCH   8  16
TORSDOF 1
ENDMDL
MODEL 10
REMARK VINA RESULT:      -6.5     14.090     14.823
REMARK  1 active torsions:
REMARK  status: ('A' for Active; 'I' for Inactive)
REMARK    1  A    between atoms: C_8  and  C_9 
ROOT
HETATM    1  C   UNL     1      42.617 -29.981   0.594  1.00  0.00     0.073 C 
HETATM    2  C   UNL     1      43.824 -29.616   1.385  1.00  0.00     0.062 A 
HETATM    3  N   UNL     1      43.661 -28.985   2.550  1.00  0.00    -0.178 NA
HETATM    4  N   UNL     1      44.898 -28.888   3.035  1.00  0.00    -0.262 N 
HETATM    5  H   UNL     1      45.016 -28.465   3.947  1.00  0.00     0.191 HD
HETATM    6  C   UNL     1      45.875 -29.372   2.204  1.00  0.00     0.134 A 
HETATM    7  C   UNL     1      45.216 -29.857   1.083  1.00  0.00     0.032 A 
HETATM    8  C   UNL     1      45.703 -30.629  -0.109  1.00  0.00     0.121 C 
HETATM    9  S   UNL     1      47.444 -31.115  -0.172  1.00  0.00    -0.140 SA
HETATM   10  C   UNL     1      48.351 -29.667   0.434  1.00  0.00     0.136 C 
HETATM   11  C   UNL     1      48.084 -28.323  -0.222  1.00  0.00     0.031 C 
HETATM   12  C   UNL     1      48.324 -29.570   1.948  1.00  0.00     0.236 C 
HETATM   13  O   UNL     1      49.378 -29.594   2.596  1.00  0.00    -0.272 OA
HETATM   14  N   UNL     1      47.178 -29.328   2.639  1.00  0.00    -0.311 N 
HETATM   15  H   UNL     1      47.364 -29.131   3.617  1.00  0.00     0.170 HD
ENDROOT
BRANCH   8  16
HETATM   16  C   UNL     1      45.199 -30.005  -1.414  1.00  0.00    -0.018 A 
HETATM   17  C   UNL     1      44.510 -30.788  -2.368  1.00  0.00     0.041 A 
HETATM   18 CL   UNL     1      44.157 -32.467  -2.122  1.00  0.00    -0.084 Cl
HETATM   19  C   UNL     1      44.047 -30.234  -3.569  1.00  0.00     0.024 A 
HETATM   20  C   UNL     1      44.260 -28.889  -3.852  1.00  0.00     0.002 A 
HETATM   21  C   UNL     1      44.933 -28.095  -2.933  1.00  0.00     0.001 A 
HETATM   22  C   UNL     1      45.394 -28.645  -1.733  1.00  0.00     0.010 A 
ENDBRANCH   8  16
TORSDOF 1
ENDMDL
