MODEL 1
REMARK VINA RESULT:      -8.6      0.000      0.000
REMARK  5 active torsions:
REMARK  status: ('A' for Active; 'I' for Inactive)
REMARK    1  A    between atoms: C_5  and  C_6 
REMARK    2  A    between atoms: C_11  and  C_12 
REMARK       I    between atoms: C_12  and  N_13 
REMARK    3  A    between atoms: N_13  and  C_14 
REMARK    4  A    between atoms: C_16  and  O_17 
REMARK    5  A    between atoms: C_23  and  C_24 
ROOT
HETATM    1  C   UNL     1      40.624 -14.377   2.726  1.00  0.00     0.118 C 
HETATM    2  N   UNL     1      39.815 -13.989   3.876  1.00  0.00    -0.366 N 
HETATM    3  C   UNL     1      39.993 -12.827   4.535  1.00  0.00     0.123 A 
HETATM    4  N   UNL     1      40.926 -11.910   4.142  1.00  0.00    -0.240 N 
HETATM    5  N   UNL     1      40.925 -10.780   4.876  1.00  0.00    -0.165 NA
HETATM    6  C   UNL     1      39.982 -11.018   5.819  1.00  0.00     0.148 A 
HETATM    7  C   UNL     1      39.377 -12.290   5.634  1.00  0.00     0.089 A 
HETATM    8  C   UNL     1      41.809 -12.085   3.007  1.00  0.00     0.221 C 
HETATM    9  C   UNL     1      41.246 -13.146   2.044  1.00  0.00     0.066 C 
HETATM   10  H   UNL     1      39.200 -14.716   4.241  1.00  0.00     0.161 HD
ENDROOT
BRANCH   6  11
HETATM   11  C   UNL     1      39.665 -10.039   6.875  1.00  0.00     0.276 C 
HETATM   12  N   UNL     1      40.561 -10.103   7.924  1.00  0.00    -0.322 N 
HETATM   13  H   UNL     1      41.279 -10.814   7.798  1.00  0.00     0.169 HD
HETATM   14  O   UNL     1      38.701  -9.288   6.780  1.00  0.00    -0.266 OA
BRANCH  12  15
HETATM   15  C   UNL     1      40.581  -9.340   9.104  1.00  0.00     0.037 A 
HETATM   16  C   UNL     1      39.714  -9.548  10.179  1.00  0.00     0.066 A 
HETATM   17  C   UNL     1      39.807  -8.741  11.312  1.00  0.00     0.067 A 
HETATM   18  C   UNL     1      40.751  -7.725  11.394  1.00  0.00     0.036 A 
HETATM   19  C   UNL     1      41.619  -7.510  10.327  1.00  0.00     0.005 A 
HETATM   20  C   UNL     1      41.533  -8.313   9.186  1.00  0.00     0.029 A 
BRANCH  17  21
HETATM   21  O   UNL     1      38.974  -8.920  12.378  1.00  0.00    -0.361 OA
HETATM   22  H   UNL     1      38.719  -8.045  12.716  1.00  0.00     0.217 HD
ENDBRANCH  17  21
ENDBRANCH  12  15
ENDBRANCH   6  11
BRANCH   8  23
HETATM   23  C   UNL     1      43.218 -12.363   3.480  1.00  0.00     0.409 C 
HETATM   24  F   UNL     1      43.285 -12.999   4.663  1.00  0.00    -0.169 F 
HETATM   25  F   UNL     1      43.874 -13.131   2.572  1.00  0.00    -0.169 F 
HETATM   26  F   UNL     1      43.939 -11.222   3.596  1.00  0.00    -0.169 F 
ENDBRANCH   8  23
BRANCH   1  27
HETATM   27  C   UNL     1      41.598 -15.497   3.041  1.00  0.00    -0.035 A 
HETATM   28  C   UNL     1      42.304 -16.104   1.988  1.00  0.00     0.010 A 
HETATM   29  C   UNL     1      43.191 -17.158   2.225  1.00  0.00     0.007 A 
HETATM   30  C   UNL     1      43.392 -17.637   3.521  1.00  0.00    -0.062 A 
HETATM   31  C   UNL     1      44.362 -18.749   3.793  1.00  0.00     0.048 C 
HETATM   32  C   UNL     1      42.705 -17.033   4.577  1.00  0.00     0.007 A 
HETATM   33  C   UNL     1      41.812 -15.983   4.339  1.00  0.00     0.010 A 
ENDBRANCH   1  27
TORSDOF 5
ENDMDL
MODEL 2
REMARK VINA RESULT:      -8.5      6.470      9.557
REMARK  5 active torsions:
REMARK  status: ('A' for Active; 'I' for Inactive)
REMARK    1  A    between atoms: C_5  and  C_6 
REMARK    2  A    between atoms: C_11  and  C_12 
REMARK       I    between atoms: C_12  and  N_13 
REMARK    3  A    between atoms: N_13  and  C_14 
REMARK    4  A    between atoms: C_16  and  O_17 
REMARK    5  A    between atoms: C_23  and  C_24 
ROOT
HETATM    1  C   UNL     1      39.962 -11.102  -1.533  1.00  0.00     0.118 C 
HETATM    2  N   UNL     1      40.257 -11.467  -0.152  1.00  0.00    -0.366 N 
HETATM    3  C   UNL     1      40.461 -12.741   0.240  1.00  0.00     0.123 A 
HETATM    4  N   UNL     1      40.442 -13.780  -0.647  1.00  0.00    -0.240 N 
HETATM    5  N   UNL     1      40.725 -14.976  -0.094  1.00  0.00    -0.165 NA
HETATM    6  C   UNL     1      40.875 -14.687   1.221  1.00  0.00     0.148 A 
HETATM    7  C   UNL     1      40.717 -13.296   1.464  1.00  0.00     0.089 A 
HETATM    8  C   UNL     1      40.198 -13.631  -2.068  1.00  0.00     0.221 C 
HETATM    9  C   UNL     1      40.461 -12.181  -2.511  1.00  0.00     0.066 C 
HETATM   10  H   UNL     1      40.159 -10.714   0.528  1.00  0.00     0.161 HD
ENDROOT
BRANCH   6  11
HETATM   11  C   UNL     1      41.168 -15.727   2.224  1.00  0.00     0.276 C 
HETATM   12  N   UNL     1      42.377 -16.350   1.984  1.00  0.00    -0.322 N 
HETATM   13  H   UNL     1      42.855 -15.998   1.156  1.00  0.00     0.169 HD
HETATM   14  O   UNL     1      40.388 -15.968   3.138  1.00  0.00    -0.266 OA
BRANCH  12  15
HETATM   15  C   UNL     1      42.986 -17.385   2.712  1.00  0.00     0.037 A 
HETATM   16  C   UNL     1      43.089 -18.702   2.255  1.00  0.00     0.066 A 
HETATM   17  C   UNL     1      43.712 -19.665   3.048  1.00  0.00     0.067 A 
HETATM   18  C   UNL     1      44.236 -19.340   4.292  1.00  0.00     0.036 A 
HETATM   19  C   UNL     1      44.138 -18.031   4.756  1.00  0.00     0.005 A 
HETATM   20  C   UNL     1      43.514 -17.059   3.969  1.00  0.00     0.029 A 
BRANCH  17  21
HETATM   21  O   UNL     1      43.827 -20.958   2.629  1.00  0.00    -0.361 OA
HETATM   22  H   UNL     1      42.987 -21.221   2.216  1.00  0.00     0.217 HD
ENDBRANCH  17  21
ENDBRANCH  12  15
ENDBRANCH   6  11
BRANCH   8  23
HETATM   23  C   UNL     1      38.821 -14.147  -2.418  1.00  0.00     0.409 C 
HETATM   24  F   UNL     1      37.842 -13.685  -1.621  1.00  0.00    -0.169 F 
HETATM   25  F   UNL     1      38.502 -13.800  -3.692  1.00  0.00    -0.169 F 
HETATM   26  F   UNL     1      38.769 -15.500  -2.375  1.00  0.00    -0.169 F 
ENDBRANCH   8  23
BRANCH   1  27
HETATM   27  C   UNL     1      38.521 -10.672  -1.733  1.00  0.00    -0.035 A 
HETATM   28  C   UNL     1      37.723 -10.413  -0.604  1.00  0.00     0.010 A 
HETATM   29  C   UNL     1      36.382 -10.041  -0.736  1.00  0.00     0.007 A 
HETATM   30  C   UNL     1      35.801  -9.922  -2.001  1.00  0.00    -0.062 A 
HETATM   31  C   UNL     1      34.371  -9.497  -2.158  1.00  0.00     0.048 C 
HETATM   32  C   UNL     1      36.588 -10.164  -3.130  1.00  0.00     0.007 A 
HETATM   33  C   UNL     1      37.927 -10.544  -2.997  1.00  0.00     0.010 A 
ENDBRANCH   1  27
TORSDOF 5
ENDMDL
MODEL 3
REMARK VINA RESULT:      -8.5     18.353     20.172
REMARK  5 active torsions:
REMARK  status: ('A' for Active; 'I' for Inactive)
REMARK    1  A    between atoms: C_5  and  C_6 
REMARK    2  A    between atoms: C_11  and  C_12 
REMARK       I    between atoms: C_12  and  N_13 
REMARK    3  A    between atoms: N_13  and  C_14 
REMARK    4  A    between atoms: C_16  and  O_17 
REMARK    5  A    between atoms: C_23  and  C_24 
ROOT
HETATM    1  C   UNL     1      45.476 -28.030  -1.015  1.00  0.00     0.118 C 
HETATM    2  N   UNL     1      45.199 -28.583   0.305  1.00  0.00    -0.366 N 
HETATM    3  C   UNL     1      46.172 -28.992   1.145  1.00  0.00     0.123 A 
HETATM    4  N   UNL     1      47.495 -28.877   0.825  1.00  0.00    -0.240 N 
HETATM    5  N   UNL     1      48.331 -29.278   1.804  1.00  0.00    -0.165 NA
HETATM    6  C   UNL     1      47.492 -29.721   2.771  1.00  0.00     0.148 A 
HETATM    7  C   UNL     1      46.133 -29.556   2.391  1.00  0.00     0.089 A 
HETATM    8  C   UNL     1      47.985 -28.326  -0.422  1.00  0.00     0.221 C 
HETATM    9  C   UNL     1      46.903 -27.459  -1.091  1.00  0.00     0.066 C 
HETATM   10  H   UNL     1      44.217 -28.776   0.500  1.00  0.00     0.161 HD
ENDROOT
BRANCH   6  11
HETATM   11  C   UNL     1      47.988 -30.290   4.038  1.00  0.00     0.276 C 
HETATM   12  N   UNL     1      49.285 -30.748   3.926  1.00  0.00    -0.322 N 
HETATM   13  H   UNL     1      49.677 -30.626   2.994  1.00  0.00     0.169 HD
HETATM   14  O   UNL     1      47.280 -30.330   5.038  1.00  0.00    -0.266 OA
BRANCH  12  15
HETATM   15  C   UNL     1      50.086 -31.355   4.909  1.00  0.00     0.037 A 
HETATM   16  C   UNL     1      51.364 -30.908   5.254  1.00  0.00     0.066 A 
HETATM   17  C   UNL     1      52.088 -31.573   6.243  1.00  0.00     0.067 A 
HETATM   18  C   UNL     1      51.560 -32.679   6.897  1.00  0.00     0.036 A 
HETATM   19  C   UNL     1      50.288 -33.131   6.559  1.00  0.00     0.005 A 
HETATM   20  C   UNL     1      49.555 -32.472   5.567  1.00  0.00     0.029 A 
BRANCH  17  21
HETATM   21  O   UNL     1      53.338 -31.161   6.602  1.00  0.00    -0.361 OA
HETATM   22  H   UNL     1      53.326 -30.193   6.693  1.00  0.00     0.217 HD
ENDBRANCH  17  21
ENDBRANCH  12  15
ENDBRANCH   6  11
BRANCH   8  23
HETATM   23  C   UNL     1      48.528 -29.429  -1.302  1.00  0.00     0.409 C 
HETATM   24  F   UNL     1      47.915 -30.615  -1.139  1.00  0.00    -0.169 F 
HETATM   25  F   UNL     1      48.402 -29.087  -2.611  1.00  0.00    -0.169 F 
HETATM   26  F   UNL     1      49.851 -29.628  -1.093  1.00  0.00    -0.169 F 
ENDBRANCH   8  23
BRANCH   1  27
HETATM   27  C   UNL     1      45.103 -28.977  -2.141  1.00  0.00    -0.035 A 
HETATM   28  C   UNL     1      45.221 -28.536  -3.471  1.00  0.00     0.010 A 
HETATM   29  C   UNL     1      44.864 -29.362  -4.541  1.00  0.00     0.007 A 
HETATM   30  C   UNL     1      44.372 -30.649  -4.309  1.00  0.00    -0.062 A 
HETATM   31  C   UNL     1      44.011 -31.555  -5.448  1.00  0.00     0.048 C 
HETATM   32  C   UNL     1      44.262 -31.102  -2.992  1.00  0.00     0.007 A 
HETATM   33  C   UNL     1      44.613 -30.272  -1.921  1.00  0.00     0.010 A 
ENDBRANCH   1  27
TORSDOF 5
ENDMDL
MODEL 4
REMARK VINA RESULT:      -8.5      3.759      9.297
REMARK  5 active torsions:
REMARK  status: ('A' for Active; 'I' for Inactive)
REMARK    1  A    between atoms: C_5  and  C_6 
REMARK    2  A    between atoms: C_11  and  C_12 
REMARK       I    between atoms: C_12  and  N_13 
REMARK    3  A    between atoms: N_13  and  C_14 
REMARK    4  A    between atoms: C_16  and  O_17 
REMARK    5  A    between atoms: C_23  and  C_24 
ROOT
HETATM    1  C   UNL     1      44.589  -9.176   9.784  1.00  0.00     0.118 C 
HETATM    2  N   UNL     1      44.584 -10.527   9.235  1.00  0.00    -0.366 N 
HETATM    3  C   UNL     1      43.882 -10.866   8.135  1.00  0.00     0.123 A 
HETATM    4  N   UNL     1      43.152  -9.947   7.435  1.00  0.00    -0.240 N 
HETATM    5  N   UNL     1      42.563 -10.446   6.329  1.00  0.00    -0.165 NA
HETATM    6  C   UNL     1      42.891 -11.759   6.363  1.00  0.00     0.148 A 
HETATM    7  C   UNL     1      43.717 -12.056   7.480  1.00  0.00     0.089 A 
HETATM    8  C   UNL     1      43.048  -8.547   7.792  1.00  0.00     0.221 C 
HETATM    9  C   UNL     1      44.213  -8.138   8.712  1.00  0.00     0.066 C 
HETATM   10  H   UNL     1      45.031 -11.235   9.815  1.00  0.00     0.161 HD
ENDROOT
BRANCH   6  11
HETATM   11  C   UNL     1      42.423 -12.711   5.339  1.00  0.00     0.276 C 
HETATM   12  N   UNL     1      43.287 -13.778   5.191  1.00  0.00    -0.322 N 
HETATM   13  H   UNL     1      44.101 -13.725   5.802  1.00  0.00     0.169 HD
HETATM   14  O   UNL     1      41.382 -12.520   4.719  1.00  0.00    -0.266 OA
BRANCH  12  15
HETATM   15  C   UNL     1      43.183 -14.873   4.317  1.00  0.00     0.037 A 
HETATM   16  C   UNL     1      43.175 -14.758   2.925  1.00  0.00     0.066 A 
HETATM   17  C   UNL     1      43.068 -15.902   2.134  1.00  0.00     0.067 A 
HETATM   18  C   UNL     1      42.968 -17.163   2.708  1.00  0.00     0.036 A 
HETATM   19  C   UNL     1      42.975 -17.287   4.094  1.00  0.00     0.005 A 
HETATM   20  C   UNL     1      43.080 -16.146   4.895  1.00  0.00     0.029 A 
BRANCH  17  21
HETATM   21  O   UNL     1      43.056 -15.821   0.772  1.00  0.00    -0.361 OA
HETATM   22  H   UNL     1      42.983 -14.885   0.523  1.00  0.00     0.217 HD
ENDBRANCH  17  21
ENDBRANCH  12  15
ENDBRANCH   6  11
BRANCH   8  23
HETATM   23  C   UNL     1      41.678  -8.253   8.360  1.00  0.00     0.409 C 
HETATM   24  F   UNL     1      41.154  -9.260   9.081  1.00  0.00    -0.169 F 
HETATM   25  F   UNL     1      41.730  -7.163   9.168  1.00  0.00    -0.169 F 
HETATM   26  F   UNL     1      40.788  -7.954   7.384  1.00  0.00    -0.169 F 
ENDBRANCH   8  23
BRANCH   1  27
HETATM   27  C   UNL     1      43.813  -9.067  11.084  1.00  0.00    -0.035 A 
HETATM   28  C   UNL     1      43.241 -10.226  11.637  1.00  0.00     0.010 A 
HETATM   29  C   UNL     1      42.494 -10.172  12.817  1.00  0.00     0.007 A 
HETATM   30  C   UNL     1      42.293  -8.955  13.473  1.00  0.00    -0.062 A 
HETATM   31  C   UNL     1      41.517  -8.887  14.755  1.00  0.00     0.048 C 
HETATM   32  C   UNL     1      42.867  -7.799  12.939  1.00  0.00     0.007 A 
HETATM   33  C   UNL     1      43.608  -7.853  11.754  1.00  0.00     0.010 A 
ENDBRANCH   1  27
TORSDOF 5
ENDMDL
MODEL 5
REMARK VINA RESULT:      -8.2      5.467      8.934
REMARK  5 active torsions:
REMARK  status: ('A' for Active; 'I' for Inactive)
REMARK    1  A    between atoms: C_5  and  C_6 
REMARK    2  A    between atoms: C_11  and  C_12 
REMARK       I    between atoms: C_12  and  N_13 
REMARK    3  A    between atoms: N_13  and  C_14 
REMARK    4  A    between atoms: C_16  and  O_17 
REMARK    5  A    between atoms: C_23  and  C_24 
ROOT
HETATM    1  C   UNL     1      39.275 -11.679  -1.366  1.00  0.00     0.118 C 
HETATM    2  N   UNL     1      40.032 -12.910  -1.172  1.00  0.00    -0.366 N 
HETATM    3  C   UNL     1      40.128 -13.528   0.022  1.00  0.00     0.123 A 
HETATM    4  N   UNL     1      39.484 -13.057   1.131  1.00  0.00    -0.240 N 
HETATM    5  N   UNL     1      39.640 -13.832   2.224  1.00  0.00    -0.165 NA
HETATM    6  C   UNL     1      40.471 -14.813   1.798  1.00  0.00     0.148 A 
HETATM    7  C   UNL     1      40.795 -14.654   0.423  1.00  0.00     0.089 A 
HETATM    8  C   UNL     1      38.657 -11.868   1.148  1.00  0.00     0.221 C 
HETATM    9  C   UNL     1      38.200 -11.510  -0.278  1.00  0.00     0.066 C 
HETATM   10  H   UNL     1      40.604 -13.200  -1.965  1.00  0.00     0.161 HD
ENDROOT
BRANCH   6  11
HETATM   11  C   UNL     1      40.943 -15.885   2.693  1.00  0.00     0.276 C 
HETATM   12  N   UNL     1      42.118 -16.453   2.244  1.00  0.00    -0.322 N 
HETATM   13  H   UNL     1      42.455 -16.048   1.373  1.00  0.00     0.169 HD
HETATM   14  O   UNL     1      40.317 -16.194   3.701  1.00  0.00    -0.266 OA
BRANCH  12  15
HETATM   15  C   UNL     1      42.861 -17.498   2.821  1.00  0.00     0.037 A 
HETATM   16  C   UNL     1      42.984 -18.769   2.255  1.00  0.00     0.066 A 
HETATM   17  C   UNL     1      43.743 -19.745   2.900  1.00  0.00     0.067 A 
HETATM   18  C   UNL     1      44.383 -19.477   4.103  1.00  0.00     0.036 A 
HETATM   19  C   UNL     1      44.265 -18.214   4.675  1.00  0.00     0.005 A 
HETATM   20  C   UNL     1      43.505 -17.228   4.037  1.00  0.00     0.029 A 
BRANCH  17  21
HETATM   21  O   UNL     1      43.882 -20.995   2.372  1.00  0.00    -0.361 OA
HETATM   22  H   UNL     1      43.370 -21.616   2.918  1.00  0.00     0.217 HD
ENDBRANCH  17  21
ENDBRANCH  12  15
ENDBRANCH   6  11
BRANCH   8  23
HETATM   23  C   UNL     1      39.368 -10.747   1.871  1.00  0.00     0.409 C 
HETATM   24  F   UNL     1      40.708 -10.858   1.874  1.00  0.00    -0.169 F 
HETATM   25  F   UNL     1      39.064  -9.554   1.299  1.00  0.00    -0.169 F 
HETATM   26  F   UNL     1      38.970 -10.656   3.162  1.00  0.00    -0.169 F 
ENDBRANCH   8  23
BRANCH   1  27
HETATM   27  C   UNL     1      40.165 -10.469  -1.583  1.00  0.00    -0.035 A 
HETATM   28  C   UNL     1      39.639  -9.344  -2.242  1.00  0.00     0.010 A 
HETATM   29  C   UNL     1      40.428  -8.216  -2.489  1.00  0.00     0.007 A 
HETATM   30  C   UNL     1      41.766  -8.186  -2.089  1.00  0.00    -0.062 A 
HETATM   31  C   UNL     1      42.615  -6.972  -2.324  1.00  0.00     0.048 C 
HETATM   32  C   UNL     1      42.295  -9.293  -1.422  1.00  0.00     0.007 A 
HETATM   33  C   UNL     1      41.508 -10.424  -1.181  1.00  0.00     0.010 A 
ENDBRANCH   1  27
TORSDOF 5
ENDMDL
MODEL 6
REMARK VINA RESULT:      -8.0      3.909      9.016
REMARK  5 active torsions:
REMARK  status: ('A' for Active; 'I' for Inactive)
REMARK    1  A    between atoms: C_5  and  C_6 
REMARK    2  A    between atoms: C_11  and  C_12 
REMARK       I    between atoms: C_12  and  N_13 
REMARK    3  A    between atoms: N_13  and  C_14 
REMARK    4  A    between atoms: C_16  and  O_17 
REMARK    5  A    between atoms: C_23  and  C_24 
ROOT
HETATM    1  C   UNL     1      44.622  -9.079   9.730  1.00  0.00     0.118 C 
HETATM    2  N   UNL     1      44.746 -10.438   9.217  1.00  0.00    -0.366 N 
HETATM    3  C   UNL     1      44.089 -10.868   8.121  1.00  0.00     0.123 A 
HETATM    4  N   UNL     1      43.286 -10.040   7.390  1.00  0.00    -0.240 N 
HETATM    5  N   UNL     1      42.757 -10.618   6.294  1.00  0.00    -0.165 NA
HETATM    6  C   UNL     1      43.203 -11.895   6.366  1.00  0.00     0.148 A 
HETATM    7  C   UNL     1      44.041 -12.086   7.497  1.00  0.00     0.089 A 
HETATM    8  C   UNL     1      43.052  -8.646   7.709  1.00  0.00     0.221 C 
HETATM    9  C   UNL     1      44.165  -8.108   8.627  1.00  0.00     0.066 C 
HETATM   10  H   UNL     1      45.250 -11.088   9.820  1.00  0.00     0.161 HD
ENDROOT
BRANCH   6  11
HETATM   11  C   UNL     1      42.834 -12.912   5.364  1.00  0.00     0.276 C 
HETATM   12  N   UNL     1      41.992 -12.401   4.396  1.00  0.00    -0.322 N 
HETATM   13  H   UNL     1      41.761 -11.420   4.539  1.00  0.00     0.169 HD
HETATM   14  O   UNL     1      43.253 -14.061   5.439  1.00  0.00    -0.266 OA
BRANCH  12  15
HETATM   15  C   UNL     1      41.428 -13.062   3.291  1.00  0.00     0.037 A 
HETATM   16  C   UNL     1      40.506 -14.107   3.399  1.00  0.00     0.066 A 
HETATM   17  C   UNL     1      39.998 -14.705   2.246  1.00  0.00     0.067 A 
HETATM   18  C   UNL     1      40.392 -14.280   0.984  1.00  0.00     0.036 A 
HETATM   19  C   UNL     1      41.310 -13.240   0.868  1.00  0.00     0.005 A 
HETATM   20  C   UNL     1      41.827 -12.636   2.017  1.00  0.00     0.029 A 
BRANCH  17  21
HETATM   21  O   UNL     1      39.097 -15.727   2.318  1.00  0.00    -0.361 OA
HETATM   22  H   UNL     1      38.229 -15.390   2.038  1.00  0.00     0.217 HD
ENDBRANCH  17  21
ENDBRANCH  12  15
ENDBRANCH   6  11
BRANCH   8  23
HETATM   23  C   UNL     1      41.654  -8.463   8.257  1.00  0.00     0.409 C 
HETATM   24  F   UNL     1      41.236  -9.472   9.042  1.00  0.00    -0.169 F 
HETATM   25  F   UNL     1      41.586  -7.325   8.994  1.00  0.00    -0.169 F 
HETATM   26  F   UNL     1      40.744  -8.322   7.265  1.00  0.00    -0.169 F 
ENDBRANCH   8  23
BRANCH   1  27
HETATM   27  C   UNL     1      43.826  -9.007  11.019  1.00  0.00    -0.035 A 
HETATM   28  C   UNL     1      43.385 -10.201  11.617  1.00  0.00     0.010 A 
HETATM   29  C   UNL     1      42.625 -10.185  12.790  1.00  0.00     0.007 A 
HETATM   30  C   UNL     1      42.279  -8.974  13.394  1.00  0.00    -0.062 A 
HETATM   31  C   UNL     1      41.487  -8.944  14.667  1.00  0.00     0.048 C 
HETATM   32  C   UNL     1      42.722  -7.782  12.816  1.00  0.00     0.007 A 
HETATM   33  C   UNL     1      43.476  -7.798  11.638  1.00  0.00     0.010 A 
ENDBRANCH   1  27
TORSDOF 5
ENDMDL
MODEL 7
REMARK VINA RESULT:      -8.0      1.317      1.535
REMARK  5 active torsions:
REMARK  status: ('A' for Active; 'I' for Inactive)
REMARK    1  A    between atoms: C_5  and  C_6 
REMARK    2  A    between atoms: C_11  and  C_12 
REMARK       I    between atoms: C_12  and  N_13 
REMARK    3  A    between atoms: N_13  and  C_14 
REMARK    4  A    between atoms: C_16  and  O_17 
REMARK    5  A    between atoms: C_23  and  C_24 
ROOT
HETATM    1  C   UNL     1      40.614 -14.038   2.550  1.00  0.00     0.118 C 
HETATM    2  N   UNL     1      39.735 -13.831   3.694  1.00  0.00    -0.366 N 
HETATM    3  C   UNL     1      39.879 -12.799   4.549  1.00  0.00     0.123 A 
HETATM    4  N   UNL     1      40.844 -11.848   4.375  1.00  0.00    -0.240 N 
HETATM    5  N   UNL     1      40.805 -10.856   5.287  1.00  0.00    -0.165 NA
HETATM    6  C   UNL     1      39.799 -11.228   6.114  1.00  0.00     0.148 A 
HETATM    7  C   UNL     1      39.197 -12.440   5.680  1.00  0.00     0.089 A 
HETATM    8  C   UNL     1      41.800 -11.850   3.286  1.00  0.00     0.221 C 
HETATM    9  C   UNL     1      41.292 -12.724   2.125  1.00  0.00     0.066 C 
HETATM   10  H   UNL     1      39.091 -14.596   3.893  1.00  0.00     0.161 HD
ENDROOT
BRANCH   6  11
HETATM   11  C   UNL     1      39.421 -10.433   7.296  1.00  0.00     0.276 C 
HETATM   12  N   UNL     1      40.031  -9.194   7.302  1.00  0.00    -0.322 N 
HETATM   13  H   UNL     1      40.641  -9.041   6.501  1.00  0.00     0.169 HD
HETATM   14  O   UNL     1      38.656 -10.877   8.145  1.00  0.00    -0.266 OA
BRANCH  12  15
HETATM   15  C   UNL     1      39.922  -8.171   8.259  1.00  0.00     0.037 A 
HETATM   16  C   UNL     1      40.732  -8.078   9.393  1.00  0.00     0.066 A 
HETATM   17  C   UNL     1      40.552  -7.025  10.290  1.00  0.00     0.067 A 
HETATM   18  C   UNL     1      39.576  -6.060  10.077  1.00  0.00     0.036 A 
HETATM   19  C   UNL     1      38.764  -6.145   8.949  1.00  0.00     0.005 A 
HETATM   20  C   UNL     1      38.936  -7.198   8.045  1.00  0.00     0.029 A 
BRANCH  17  21
HETATM   21  O   UNL     1      41.326  -6.908  11.407  1.00  0.00    -0.361 OA
HETATM   22  H   UNL     1      41.286  -5.985  11.711  1.00  0.00     0.217 HD
ENDBRANCH  17  21
ENDBRANCH  12  15
ENDBRANCH   6  11
BRANCH   8  23
HETATM   23  C   UNL     1      43.171 -12.231   3.795  1.00  0.00     0.409 C 
HETATM   24  F   UNL     1      43.875 -11.202   4.301  1.00  0.00    -0.169 F 
HETATM   25  F   UNL     1      43.064 -13.166   4.774  1.00  0.00    -0.169 F 
HETATM   26  F   UNL     1      43.926 -12.793   2.821  1.00  0.00    -0.169 F 
ENDBRANCH   8  23
BRANCH   1  27
HETATM   27  C   UNL     1      41.555 -15.215   2.735  1.00  0.00    -0.035 A 
HETATM   28  C   UNL     1      42.418 -15.571   1.684  1.00  0.00     0.010 A 
HETATM   29  C   UNL     1      43.283 -16.664   1.796  1.00  0.00     0.007 A 
HETATM   30  C   UNL     1      43.304 -17.433   2.962  1.00  0.00    -0.062 A 
HETATM   31  C   UNL     1      44.247 -18.591   3.106  1.00  0.00     0.048 C 
HETATM   32  C   UNL     1      42.460 -17.081   4.018  1.00  0.00     0.007 A 
HETATM   33  C   UNL     1      41.590 -15.992   3.902  1.00  0.00     0.010 A 
ENDBRANCH   1  27
TORSDOF 5
ENDMDL
MODEL 8
REMARK VINA RESULT:      -7.8      2.553      3.416
REMARK  5 active torsions:
REMARK  status: ('A' for Active; 'I' for Inactive)
REMARK    1  A    between atoms: C_5  and  C_6 
REMARK    2  A    between atoms: C_11  and  C_12 
REMARK       I    between atoms: C_12  and  N_13 
REMARK    3  A    between atoms: N_13  and  C_14 
REMARK    4  A    between atoms: C_16  and  O_17 
REMARK    5  A    between atoms: C_23  and  C_24 
ROOT
HETATM    1  C   UNL     1      42.950 -11.356   3.252  1.00  0.00     0.118 C 
HETATM    2  N   UNL     1      42.169 -10.358   3.973  1.00  0.00    -0.366 N 
HETATM    3  C   UNL     1      42.241 -10.199   5.309  1.00  0.00     0.123 A 
HETATM    4  N   UNL     1      43.088 -10.944   6.079  1.00  0.00    -0.240 N 
HETATM    5  N   UNL     1      43.075 -10.611   7.386  1.00  0.00    -0.165 NA
HETATM    6  C   UNL     1      42.130  -9.644   7.454  1.00  0.00     0.148 A 
HETATM    7  C   UNL     1      41.588  -9.360   6.172  1.00  0.00     0.089 A 
HETATM    8  C   UNL     1      43.972 -11.967   5.559  1.00  0.00     0.221 C 
HETATM    9  C   UNL     1      44.202 -11.764   4.050  1.00  0.00     0.066 C 
HETATM   10  H   UNL     1      41.456  -9.882   3.421  1.00  0.00     0.161 HD
ENDROOT
BRANCH   6  11
HETATM   11  C   UNL     1      41.756  -9.002   8.728  1.00  0.00     0.276 C 
HETATM   12  N   UNL     1      42.394  -9.583   9.806  1.00  0.00    -0.322 N 
HETATM   13  H   UNL     1      43.002 -10.357   9.546  1.00  0.00     0.169 HD
HETATM   14  O   UNL     1      40.963  -8.068   8.762  1.00  0.00    -0.266 OA
BRANCH  12  15
HETATM   15  C   UNL     1      42.287  -9.251  11.167  1.00  0.00     0.037 A 
HETATM   16  C   UNL     1      41.275  -9.726  12.006  1.00  0.00     0.066 A 
HETATM   17  C   UNL     1      41.249  -9.343  13.347  1.00  0.00     0.067 A 
HETATM   18  C   UNL     1      42.215  -8.493  13.869  1.00  0.00     0.036 A 
HETATM   19  C   UNL     1      43.227  -8.016  13.041  1.00  0.00     0.005 A 
HETATM   20  C   UNL     1      43.261  -8.392  11.695  1.00  0.00     0.029 A 
BRANCH  17  21
HETATM   21  O   UNL     1      40.273  -9.789  14.190  1.00  0.00    -0.361 OA
HETATM   22  H   UNL     1      40.054 -10.704  13.946  1.00  0.00     0.217 HD
ENDBRANCH  17  21
ENDBRANCH  12  15
ENDBRANCH   6  11
BRANCH   8  23
HETATM   23  C   UNL     1      43.459 -13.340   5.928  1.00  0.00     0.409 C 
HETATM   24  F   UNL     1      42.126 -13.401   6.096  1.00  0.00    -0.169 F 
HETATM   25  F   UNL     1      43.786 -14.238   4.963  1.00  0.00    -0.169 F 
HETATM   26  F   UNL     1      44.028 -13.794   7.071  1.00  0.00    -0.169 F 
ENDBRANCH   8  23
BRANCH   1  27
HETATM   27  C   UNL     1      42.106 -12.512   2.746  1.00  0.00    -0.035 A 
HETATM   28  C   UNL     1      42.739 -13.580   2.086  1.00  0.00     0.010 A 
HETATM   29  C   UNL     1      42.001 -14.654   1.578  1.00  0.00     0.007 A 
HETATM   30  C   UNL     1      40.611 -14.685   1.711  1.00  0.00    -0.062 A 
HETATM   31  C   UNL     1      39.811 -15.844   1.195  1.00  0.00     0.048 C 
HETATM   32  C   UNL     1      39.974 -13.635   2.377  1.00  0.00     0.007 A 
HETATM   33  C   UNL     1      40.711 -12.557   2.878  1.00  0.00     0.010 A 
ENDBRANCH   1  27
TORSDOF 5
ENDMDL
MODEL 9
REMARK VINA RESULT:      -7.8     18.494     20.205
REMARK  5 active torsions:
REMARK  status: ('A' for Active; 'I' for Inactive)
REMARK    1  A    between atoms: C_5  and  C_6 
REMARK    2  A    between atoms: C_11  and  C_12 
REMARK       I    between atoms: C_12  and  N_13 
REMARK    3  A    between atoms: N_13  and  C_14 
REMARK    4  A    between atoms: C_16  and  O_17 
REMARK    5  A    between atoms: C_23  and  C_24 
ROOT
HETATM    1  C   UNL     1      45.488 -28.073  -0.527  1.00  0.00     0.118 C 
HETATM    2  N   UNL     1      44.893 -28.803   0.586  1.00  0.00    -0.366 N 
HETATM    3  C   UNL     1      45.606 -29.611   1.395  1.00  0.00     0.123 A 
HETATM    4  N   UNL     1      46.955 -29.770   1.248  1.00  0.00    -0.240 N 
HETATM    5  N   UNL     1      47.516 -30.566   2.180  1.00  0.00    -0.165 NA
HETATM    6  C   UNL     1      46.460 -30.975   2.921  1.00  0.00     0.148 A 
HETATM    7  C   UNL     1      45.248 -30.396   2.458  1.00  0.00     0.089 A 
HETATM    8  C   UNL     1      47.744 -29.112   0.227  1.00  0.00     0.221 C 
HETATM    9  C   UNL     1      47.001 -27.879  -0.319  1.00  0.00     0.066 C 
HETATM   10  H   UNL     1      43.874 -28.778   0.628  1.00  0.00     0.161 HD
ENDROOT
BRANCH   6  11
HETATM   11  C   UNL     1      46.611 -31.904   4.057  1.00  0.00     0.276 C 
HETATM   12  N   UNL     1      47.579 -31.480   4.945  1.00  0.00    -0.322 N 
HETATM   13  H   UNL     1      48.029 -30.609   4.667  1.00  0.00     0.169 HD
HETATM   14  O   UNL     1      45.933 -32.921   4.143  1.00  0.00    -0.266 OA
BRANCH  12  15
HETATM   15  C   UNL     1      48.007 -32.098   6.133  1.00  0.00     0.037 A 
HETATM   16  C   UNL     1      47.228 -32.183   7.289  1.00  0.00     0.066 A 
HETATM   17  C   UNL     1      47.736 -32.816   8.423  1.00  0.00     0.067 A 
HETATM   18  C   UNL     1      49.010 -33.368   8.426  1.00  0.00     0.036 A 
HETATM   19  C   UNL     1      49.794 -33.288   7.278  1.00  0.00     0.005 A 
HETATM   20  C   UNL     1      49.294 -32.654   6.137  1.00  0.00     0.029 A 
BRANCH  17  21
HETATM   21  O   UNL     1      46.999 -32.914   9.567  1.00  0.00    -0.361 OA
HETATM   22  H   UNL     1      47.521 -33.405  10.225  1.00  0.00     0.217 HD
ENDBRANCH  17  21
ENDBRANCH  12  15
ENDBRANCH   6  11
BRANCH   8  23
HETATM   23  C   UNL     1      48.158 -30.106  -0.835  1.00  0.00     0.409 C 
HETATM   24  F   UNL     1      48.315 -29.570  -2.058  1.00  0.00    -0.169 F 
HETATM   25  F   UNL     1      49.337 -30.690  -0.496  1.00  0.00    -0.169 F 
HETATM   26  F   UNL     1      47.261 -31.114  -0.951  1.00  0.00    -0.169 F 
ENDBRANCH   8  23
BRANCH   1  27
HETATM   27  C   UNL     1      45.094 -28.637  -1.880  1.00  0.00    -0.035 A 
HETATM   28  C   UNL     1      44.375 -29.844  -1.932  1.00  0.00     0.010 A 
HETATM   29  C   UNL     1      44.013 -30.418  -3.154  1.00  0.00     0.007 A 
HETATM   30  C   UNL     1      44.365 -29.803  -4.358  1.00  0.00    -0.062 A 
HETATM   31  C   UNL     1      43.959 -30.393  -5.676  1.00  0.00     0.048 C 
HETATM   32  C   UNL     1      45.069 -28.596  -4.317  1.00  0.00     0.007 A 
HETATM   33  C   UNL     1      45.437 -28.027  -3.094  1.00  0.00     0.010 A 
ENDBRANCH   1  27
TORSDOF 5
ENDMDL
MODEL 10
REMARK VINA RESULT:      -7.8      5.754      8.568
REMARK  5 active torsions:
REMARK  status: ('A' for Active; 'I' for Inactive)
REMARK    1  A    between atoms: C_5  and  C_6 
REMARK    2  A    between atoms: C_11  and  C_12 
REMARK       I    between atoms: C_12  and  N_13 
REMARK    3  A    between atoms: N_13  and  C_14 
REMARK    4  A    between atoms: C_16  and  O_17 
REMARK    5  A    between atoms: C_23  and  C_24 
ROOT
HETATM    1  C   UNL     1      40.385 -11.123  -1.816  1.00  0.00     0.118 C 
HETATM    2  N   UNL     1      40.597 -11.330  -0.388  1.00  0.00    -0.366 N 
HETATM    3  C   UNL     1      40.622 -12.553   0.177  1.00  0.00     0.123 A 
HETATM    4  N   UNL     1      40.485 -13.692  -0.564  1.00  0.00    -0.240 N 
HETATM    5  N   UNL     1      40.595 -14.828   0.154  1.00  0.00    -0.165 NA
HETATM    6  C   UNL     1      40.752 -14.384   1.424  1.00  0.00     0.148 A 
HETATM    7  C   UNL     1      40.774 -12.964   1.474  1.00  0.00     0.089 A 
HETATM    8  C   UNL     1      40.296 -13.710  -2.000  1.00  0.00     0.221 C 
HETATM    9  C   UNL     1      40.759 -12.380  -2.621  1.00  0.00     0.066 C 
HETATM   10  H   UNL     1      40.585 -10.484   0.182  1.00  0.00     0.161 HD
ENDROOT
BRANCH   6  11
HETATM   11  C   UNL     1      40.881 -15.305   2.567  1.00  0.00     0.276 C 
HETATM   12  N   UNL     1      42.113 -15.196   3.181  1.00  0.00    -0.322 N 
HETATM   13  H   UNL     1      42.725 -14.511   2.741  1.00  0.00     0.169 HD
HETATM   14  O   UNL     1      39.969 -16.061   2.883  1.00  0.00    -0.266 OA
BRANCH  12  15
HETATM   15  C   UNL     1      42.604 -15.908   4.289  1.00  0.00     0.037 A 
HETATM   16  C   UNL     1      42.370 -15.540   5.616  1.00  0.00     0.066 A 
HETATM   17  C   UNL     1      42.897 -16.308   6.653  1.00  0.00     0.067 A 
HETATM   18  C   UNL     1      43.657 -17.441   6.392  1.00  0.00     0.036 A 
HETATM   19  C   UNL     1      43.896 -17.816   5.073  1.00  0.00     0.005 A 
HETATM   20  C   UNL     1      43.373 -17.051   4.026  1.00  0.00     0.029 A 
BRANCH  17  21
HETATM   21  O   UNL     1      42.686 -15.973   7.959  1.00  0.00    -0.361 OA
HETATM   22  H   UNL     1      43.337 -16.446   8.505  1.00  0.00     0.217 HD
ENDBRANCH  17  21
ENDBRANCH  12  15
ENDBRANCH   6  11
BRANCH   8  23
HETATM   23  C   UNL     1      38.871 -14.088  -2.335  1.00  0.00     0.409 C 
HETATM   24  F   UNL     1      38.653 -15.414  -2.393  1.00  0.00    -0.169 F 
HETATM   25  F   UNL     1      38.021 -13.580  -1.405  1.00  0.00    -0.169 F 
HETATM   26  F   UNL     1      38.483 -13.565  -3.522  1.00  0.00    -0.169 F 
ENDBRANCH   8  23
BRANCH   1  27
HETATM   27  C   UNL     1      39.019 -10.542  -2.130  1.00  0.00    -0.035 A 
HETATM   28  C   UNL     1      38.703 -10.221  -3.462  1.00  0.00     0.010 A 
HETATM   29  C   UNL     1      37.468  -9.658  -3.797  1.00  0.00     0.007 A 
HETATM   30  C   UNL     1      36.517  -9.395  -2.808  1.00  0.00    -0.062 A 
HETATM   31  C   UNL     1      35.178  -8.818  -3.158  1.00  0.00     0.048 C 
HETATM   32  C   UNL     1      36.815  -9.722  -1.483  1.00  0.00     0.007 A 
HETATM   33  C   UNL     1      38.054 -10.278  -1.147  1.00  0.00     0.010 A 
ENDBRANCH   1  27
TORSDOF 5
ENDMDL
