MODEL 1
REMARK VINA RESULT:      -7.5      0.000      0.000
REMARK  8 active torsions:
REMARK  status: ('A' for Active; 'I' for Inactive)
REMARK    1  A    between atoms: C_2  and  N_3 
REMARK    2  A    between atoms: C_2  and  C_17 
REMARK    3  A    between atoms: N_3  and  N_4 
REMARK       I    between atoms: N_4  and  C_5 
REMARK    4  A    between atoms: C_5  and  C_6 
REMARK    5  A    between atoms: C_6  and  N_7 
REMARK    6  A    between atoms: N_7  and  C_8 
REMARK    7  A    between atoms: C_9  and  O_10 
REMARK       I    between atoms: C_17  and  N_18 
REMARK    8  A    between atoms: N_18  and  C_19 
ROOT
HETATM    1  N   UNL     1      39.061 -13.497   1.695  1.00  0.00    -0.225 NA
HETATM    2  H   UNL     1      38.286 -14.158   1.536  1.00  0.00     0.147 HD
ENDROOT
BRANCH   1   3
HETATM    3  C   UNL     1      40.264 -14.129   1.078  1.00  0.00     0.165 C 
HETATM    4  C   UNL     1      40.054 -14.560  -0.372  1.00  0.00     0.038 C 
BRANCH   3   5
HETATM    5  C   UNL     1      40.646 -15.381   1.912  1.00  0.00     0.241 C 
HETATM    6  N   UNL     1      42.014 -15.606   1.943  1.00  0.00    -0.326 N 
HETATM    7  H   UNL     1      42.548 -14.943   1.386  1.00  0.00     0.169 HD
HETATM    8  O   UNL     1      39.792 -16.046   2.489  1.00  0.00    -0.271 OA
BRANCH   6   9
HETATM    9  C   UNL     1      42.721 -16.646   2.571  1.00  0.00     0.036 A 
HETATM   10  C   UNL     1      42.875 -17.922   2.028  1.00  0.00     0.053 A 
HETATM   11  C   UNL     1      43.604 -18.890   2.723  1.00  0.00     0.036 A 
HETATM   12 CL   UNL     1      43.784 -20.468   2.057  1.00  0.00    -0.084 Cl
HETATM   13  C   UNL     1      44.188 -18.599   3.955  1.00  0.00     0.024 A 
HETATM   14  C   UNL     1      44.036 -17.328   4.503  1.00  0.00     0.004 A 
HETATM   15  C   UNL     1      43.300 -16.359   3.815  1.00  0.00     0.029 A 
ENDBRANCH   6   9
ENDBRANCH   3   5
ENDBRANCH   1   3
BRANCH   1  16
HETATM   16  N   UNL     1      39.176 -13.347   3.100  1.00  0.00    -0.290 N 
HETATM   17  C   UNL     1      39.341 -12.075   3.645  1.00  0.00     0.245 C 
HETATM   18  O   UNL     1      39.127 -11.034   3.028  1.00  0.00    -0.271 OA
HETATM   19  H   UNL     1      39.648 -14.085   3.635  1.00  0.00     0.183 HD
BRANCH  17  20
HETATM   20  C   UNL     1      39.814 -12.114   5.102  1.00  0.00     0.196 C 
BRANCH  20  21
HETATM   21  N   UNL     1      41.240 -12.480   5.194  1.00  0.00    -0.282 NA
HETATM   22  H   UNL     1      41.713 -12.476   4.286  1.00  0.00     0.128 HD
BRANCH  21  23
HETATM   23  C   UNL     1      41.605 -13.672   5.861  1.00  0.00     0.042 A 
HETATM   24  C   UNL     1      42.871 -13.726   6.497  1.00  0.00     0.089 A 
HETATM   25  C   UNL     1      43.238 -14.847   7.250  1.00  0.00     0.038 A 
HETATM   26  C   UNL     1      42.350 -15.912   7.401  1.00  0.00     0.003 A 
HETATM   27  C   UNL     1      41.094 -15.859   6.807  1.00  0.00     0.002 A 
HETATM   28  C   UNL     1      40.721 -14.743   6.053  1.00  0.00     0.026 A 
BRANCH  24  29
HETATM   29  O   UNL     1      43.677 -12.630   6.284  1.00  0.00    -0.354 OA
HETATM   30  C   UNL     1      44.092 -11.903   7.434  1.00  0.00     0.210 C 
ENDBRANCH  24  29
ENDBRANCH  21  23
ENDBRANCH  20  21
ENDBRANCH  17  20
ENDBRANCH   1  16
TORSDOF 8
ENDMDL
MODEL 2
REMARK VINA RESULT:      -7.3      1.060      2.062
REMARK  8 active torsions:
REMARK  status: ('A' for Active; 'I' for Inactive)
REMARK    1  A    between atoms: C_2  and  N_3 
REMARK    2  A    between atoms: C_2  and  C_17 
REMARK    3  A    between atoms: N_3  and  N_4 
REMARK       I    between atoms: N_4  and  C_5 
REMARK    4  A    between atoms: C_5  and  C_6 
REMARK    5  A    between atoms: C_6  and  N_7 
REMARK    6  A    between atoms: N_7  and  C_8 
REMARK    7  A    between atoms: C_9  and  O_10 
REMARK       I    between atoms: C_17  and  N_18 
REMARK    8  A    between atoms: N_18  and  C_19 
ROOT
HETATM    1  N   UNL     1      39.004 -13.887   2.619  1.00  0.00    -0.225 NA
HETATM    2  H   UNL     1      38.502 -14.710   2.985  1.00  0.00     0.147 HD
ENDROOT
BRANCH   1   3
HETATM    3  C   UNL     1      40.216 -14.427   1.933  1.00  0.00     0.165 C 
HETATM    4  C   UNL     1      39.961 -14.862   0.492  1.00  0.00     0.038 C 
BRANCH   3   5
HETATM    5  C   UNL     1      40.730 -15.653   2.732  1.00  0.00     0.241 C 
HETATM    6  N   UNL     1      42.048 -15.970   2.437  1.00  0.00    -0.326 N 
HETATM    7  H   UNL     1      42.456 -15.378   1.718  1.00  0.00     0.169 HD
HETATM    8  O   UNL     1      40.017 -16.224   3.552  1.00  0.00    -0.271 OA
BRANCH   6   9
HETATM    9  C   UNL     1      42.835 -17.019   2.941  1.00  0.00     0.036 A 
HETATM   10  C   UNL     1      42.998 -18.248   2.301  1.00  0.00     0.053 A 
HETATM   11  C   UNL     1      43.809 -19.229   2.876  1.00  0.00     0.036 A 
HETATM   12 CL   UNL     1      44.000 -20.751   2.091  1.00  0.00    -0.084 Cl
HETATM   13  C   UNL     1      44.468 -18.997   4.083  1.00  0.00     0.024 A 
HETATM   14  C   UNL     1      44.307 -17.774   4.727  1.00  0.00     0.004 A 
HETATM   15  C   UNL     1      43.489 -16.792   4.160  1.00  0.00     0.029 A 
ENDBRANCH   6   9
ENDBRANCH   3   5
ENDBRANCH   1   3
BRANCH   1  16
HETATM   16  N   UNL     1      39.319 -13.079   3.740  1.00  0.00    -0.290 N 
HETATM   17  C   UNL     1      39.255 -11.692   3.627  1.00  0.00     0.245 C 
HETATM   18  O   UNL     1      38.686 -11.106   2.708  1.00  0.00    -0.271 OA
HETATM   19  H   UNL     1      40.045 -13.404   4.390  1.00  0.00     0.183 HD
BRANCH  17  20
HETATM   20  C   UNL     1      39.967 -10.973   4.778  1.00  0.00     0.196 C 
BRANCH  20  21
HETATM   21  N   UNL     1      40.339 -11.913   5.850  1.00  0.00    -0.282 NA
HETATM   22  H   UNL     1      39.817 -11.758   6.717  1.00  0.00     0.128 HD
BRANCH  21  23
HETATM   23  C   UNL     1      41.703 -12.065   6.194  1.00  0.00     0.042 A 
HETATM   24  C   UNL     1      42.279 -13.357   6.107  1.00  0.00     0.089 A 
HETATM   25  C   UNL     1      43.646 -13.541   6.344  1.00  0.00     0.038 A 
HETATM   26  C   UNL     1      44.459 -12.448   6.645  1.00  0.00     0.003 A 
HETATM   27  C   UNL     1      43.911 -11.171   6.705  1.00  0.00     0.002 A 
HETATM   28  C   UNL     1      42.547 -10.980   6.470  1.00  0.00     0.026 A 
BRANCH  24  29
HETATM   29  O   UNL     1      41.394 -14.370   5.810  1.00  0.00    -0.354 OA
HETATM   30  C   UNL     1      41.301 -15.439   6.745  1.00  0.00     0.210 C 
ENDBRANCH  24  29
ENDBRANCH  21  23
ENDBRANCH  20  21
ENDBRANCH  17  20
ENDBRANCH   1  16
TORSDOF 8
ENDMDL
MODEL 3
REMARK VINA RESULT:      -7.2      3.787      7.453
REMARK  8 active torsions:
REMARK  status: ('A' for Active; 'I' for Inactive)
REMARK    1  A    between atoms: C_2  and  N_3 
REMARK    2  A    between atoms: C_2  and  C_17 
REMARK    3  A    between atoms: N_3  and  N_4 
REMARK       I    between atoms: N_4  and  C_5 
REMARK    4  A    between atoms: C_5  and  C_6 
REMARK    5  A    between atoms: C_6  and  N_7 
REMARK    6  A    between atoms: N_7  and  C_8 
REMARK    7  A    between atoms: C_9  and  O_10 
REMARK       I    between atoms: C_17  and  N_18 
REMARK    8  A    between atoms: N_18  and  C_19 
ROOT
HETATM    1  N   UNL     1      42.682 -13.708   4.962  1.00  0.00    -0.225 NA
HETATM    2  H   UNL     1      43.552 -13.393   5.418  1.00  0.00     0.147 HD
ENDROOT
BRANCH   1   3
HETATM    3  C   UNL     1      41.586 -12.914   5.593  1.00  0.00     0.165 C 
HETATM    4  C   UNL     1      40.500 -12.482   4.610  1.00  0.00     0.038 C 
BRANCH   3   5
HETATM    5  C   UNL     1      42.202 -11.643   6.234  1.00  0.00     0.241 C 
HETATM    6  N   UNL     1      43.299 -11.924   7.034  1.00  0.00    -0.326 N 
HETATM    7  H   UNL     1      43.503 -12.918   7.109  1.00  0.00     0.169 HD
HETATM    8  O   UNL     1      41.749 -10.527   5.996  1.00  0.00    -0.271 OA
BRANCH   6   9
HETATM    9  C   UNL     1      44.090 -11.040   7.787  1.00  0.00     0.036 A 
HETATM   10  C   UNL     1      43.724 -10.538   9.036  1.00  0.00     0.053 A 
HETATM   11  C   UNL     1      44.581  -9.668   9.714  1.00  0.00     0.036 A 
HETATM   12 CL   UNL     1      44.123  -9.040  11.252  1.00  0.00    -0.084 Cl
HETATM   13  C   UNL     1      45.807  -9.297   9.164  1.00  0.00     0.024 A 
HETATM   14  C   UNL     1      46.176  -9.793   7.917  1.00  0.00     0.004 A 
HETATM   15  C   UNL     1      45.318 -10.656   7.230  1.00  0.00     0.029 A 
ENDBRANCH   6   9
ENDBRANCH   3   5
ENDBRANCH   1   3
BRANCH   1  16
HETATM   16  N   UNL     1      42.576 -15.097   5.221  1.00  0.00    -0.290 N 
HETATM   17  C   UNL     1      43.067 -15.613   6.418  1.00  0.00     0.245 C 
HETATM   18  O   UNL     1      43.348 -14.923   7.396  1.00  0.00    -0.271 OA
HETATM   19  H   UNL     1      42.652 -15.751   4.432  1.00  0.00     0.183 HD
BRANCH  17  20
HETATM   20  C   UNL     1      43.214 -17.138   6.388  1.00  0.00     0.196 C 
BRANCH  20  21
HETATM   21  N   UNL     1      44.240 -17.559   5.416  1.00  0.00    -0.282 NA
HETATM   22  H   UNL     1      44.674 -16.772   4.926  1.00  0.00     0.128 HD
BRANCH  21  23
HETATM   23  C   UNL     1      43.914 -18.537   4.447  1.00  0.00     0.042 A 
HETATM   24  C   UNL     1      43.472 -18.102   3.173  1.00  0.00     0.089 A 
HETATM   25  C   UNL     1      43.230 -19.028   2.152  1.00  0.00     0.038 A 
HETATM   26  C   UNL     1      43.443 -20.388   2.375  1.00  0.00     0.003 A 
HETATM   27  C   UNL     1      43.903 -20.826   3.611  1.00  0.00     0.002 A 
HETATM   28  C   UNL     1      44.147 -19.907   4.635  1.00  0.00     0.026 A 
BRANCH  24  29
HETATM   29  O   UNL     1      43.287 -16.742   3.055  1.00  0.00    -0.354 OA
HETATM   30  C   UNL     1      43.326 -16.199   1.741  1.00  0.00     0.210 C 
ENDBRANCH  24  29
ENDBRANCH  21  23
ENDBRANCH  20  21
ENDBRANCH  17  20
ENDBRANCH   1  16
TORSDOF 8
ENDMDL
MODEL 4
REMARK VINA RESULT:      -7.2      3.547      6.771
REMARK  8 active torsions:
REMARK  status: ('A' for Active; 'I' for Inactive)
REMARK    1  A    between atoms: C_2  and  N_3 
REMARK    2  A    between atoms: C_2  and  C_17 
REMARK    3  A    between atoms: N_3  and  N_4 
REMARK       I    between atoms: N_4  and  C_5 
REMARK    4  A    between atoms: C_5  and  C_6 
REMARK    5  A    between atoms: C_6  and  N_7 
REMARK    6  A    between atoms: N_7  and  C_8 
REMARK    7  A    between atoms: C_9  and  O_10 
REMARK       I    between atoms: C_17  and  N_18 
REMARK    8  A    between atoms: N_18  and  C_19 
ROOT
HETATM    1  N   UNL     1      41.247 -14.753   5.498  1.00  0.00    -0.225 NA
HETATM    2  H   UNL     1      40.396 -15.332   5.546  1.00  0.00     0.147 HD
ENDROOT
BRANCH   1   3
HETATM    3  C   UNL     1      40.781 -13.340   5.619  1.00  0.00     0.165 C 
HETATM    4  C   UNL     1      39.817 -12.916   4.512  1.00  0.00     0.038 C 
BRANCH   3   5
HETATM    5  C   UNL     1      42.019 -12.406   5.575  1.00  0.00     0.241 C 
HETATM    6  N   UNL     1      42.530 -12.134   6.834  1.00  0.00    -0.326 N 
HETATM    7  H   UNL     1      41.993 -12.554   7.590  1.00  0.00     0.169 HD
HETATM    8  O   UNL     1      42.478 -12.006   4.508  1.00  0.00    -0.271 OA
BRANCH   6   9
HETATM    9  C   UNL     1      43.618 -11.318   7.187  1.00  0.00     0.036 A 
HETATM   10  C   UNL     1      43.492 -10.077   7.812  1.00  0.00     0.053 A 
HETATM   11  C   UNL     1      44.634  -9.340   8.131  1.00  0.00     0.036 A 
HETATM   12 CL   UNL     1      44.476  -7.802   8.893  1.00  0.00    -0.084 Cl
HETATM   13  C   UNL     1      45.907  -9.828   7.839  1.00  0.00     0.024 A 
HETATM   14  C   UNL     1      46.039 -11.064   7.212  1.00  0.00     0.004 A 
HETATM   15  C   UNL     1      44.899 -11.801   6.883  1.00  0.00     0.029 A 
ENDBRANCH   6   9
ENDBRANCH   3   5
ENDBRANCH   1   3
BRANCH   1  16
HETATM   16  N   UNL     1      41.849 -15.030   4.245  1.00  0.00    -0.290 N 
HETATM   17  C   UNL     1      41.216 -15.895   3.355  1.00  0.00     0.245 C 
HETATM   18  O   UNL     1      40.039 -16.235   3.452  1.00  0.00    -0.271 OA
HETATM   19  H   UNL     1      42.874 -15.063   4.190  1.00  0.00     0.183 HD
BRANCH  17  20
HETATM   20  C   UNL     1      42.146 -16.373   2.235  1.00  0.00     0.196 C 
BRANCH  20  21
HETATM   21  N   UNL     1      43.470 -16.753   2.762  1.00  0.00    -0.282 NA
HETATM   22  H   UNL     1      44.240 -16.471   2.150  1.00  0.00     0.128 HD
BRANCH  21  23
HETATM   23  C   UNL     1      43.701 -18.094   3.149  1.00  0.00     0.042 A 
HETATM   24  C   UNL     1      43.995 -18.360   4.510  1.00  0.00     0.089 A 
HETATM   25  C   UNL     1      44.136 -19.678   4.960  1.00  0.00     0.038 A 
HETATM   26  C   UNL     1      43.965 -20.743   4.075  1.00  0.00     0.003 A 
HETATM   27  C   UNL     1      43.648 -20.496   2.744  1.00  0.00     0.002 A 
HETATM   28  C   UNL     1      43.506 -19.183   2.288  1.00  0.00     0.026 A 
BRANCH  24  29
HETATM   29  O   UNL     1      44.150 -17.243   5.301  1.00  0.00    -0.354 OA
HETATM   30  C   UNL     1      43.643 -17.320   6.628  1.00  0.00     0.210 C 
ENDBRANCH  24  29
ENDBRANCH  21  23
ENDBRANCH  20  21
ENDBRANCH  17  20
ENDBRANCH   1  16
TORSDOF 8
ENDMDL
MODEL 5
REMARK VINA RESULT:      -7.2      4.668      8.869
REMARK  8 active torsions:
REMARK  status: ('A' for Active; 'I' for Inactive)
REMARK    1  A    between atoms: C_2  and  N_3 
REMARK    2  A    between atoms: C_2  and  C_17 
REMARK    3  A    between atoms: N_3  and  N_4 
REMARK       I    between atoms: N_4  and  C_5 
REMARK    4  A    between atoms: C_5  and  C_6 
REMARK    5  A    between atoms: C_6  and  N_7 
REMARK    6  A    between atoms: N_7  and  C_8 
REMARK    7  A    between atoms: C_9  and  O_10 
REMARK       I    between atoms: C_17  and  N_18 
REMARK    8  A    between atoms: N_18  and  C_19 
ROOT
HETATM    1  N   UNL     1      43.655 -12.543   8.000  1.00  0.00    -0.225 NA
HETATM    2  H   UNL     1      43.055 -12.299   8.802  1.00  0.00     0.147 HD
ENDROOT
BRANCH   1   3
HETATM    3  C   UNL     1      44.042 -11.242   7.377  1.00  0.00     0.165 C 
HETATM    4  C   UNL     1      45.548 -11.077   7.189  1.00  0.00     0.038 C 
BRANCH   3   5
HETATM    5  C   UNL     1      43.532 -10.090   8.281  1.00  0.00     0.241 C 
HETATM    6  N   UNL     1      43.333 -10.487   9.594  1.00  0.00    -0.326 N 
HETATM    7  H   UNL     1      43.513 -11.476   9.751  1.00  0.00     0.169 HD
HETATM    8  O   UNL     1      43.371  -8.956   7.838  1.00  0.00    -0.271 OA
BRANCH   6   9
HETATM    9  C   UNL     1      42.860  -9.733  10.681  1.00  0.00     0.036 A 
HETATM   10  C   UNL     1      41.519  -9.672  11.063  1.00  0.00     0.053 A 
HETATM   11  C   UNL     1      41.144  -8.900  12.165  1.00  0.00     0.036 A 
HETATM   12 CL   UNL     1      39.487  -8.817  12.629  1.00  0.00    -0.084 Cl
HETATM   13  C   UNL     1      42.093  -8.189  12.897  1.00  0.00     0.024 A 
HETATM   14  C   UNL     1      43.432  -8.243  12.519  1.00  0.00     0.004 A 
HETATM   15  C   UNL     1      43.811  -9.007  11.412  1.00  0.00     0.029 A 
ENDBRANCH   6   9
ENDBRANCH   3   5
ENDBRANCH   1   3
BRANCH   1  16
HETATM   16  N   UNL     1      42.869 -13.353   7.143  1.00  0.00    -0.290 N 
HETATM   17  C   UNL     1      42.809 -14.727   7.361  1.00  0.00     0.245 C 
HETATM   18  O   UNL     1      43.169 -15.271   8.403  1.00  0.00    -0.271 OA
HETATM   19  H   UNL     1      42.795 -13.092   6.153  1.00  0.00     0.183 HD
BRANCH  17  20
HETATM   20  C   UNL     1      42.238 -15.491   6.161  1.00  0.00     0.196 C 
BRANCH  20  21
HETATM   21  N   UNL     1      43.222 -15.584   5.067  1.00  0.00    -0.282 NA
HETATM   22  H   UNL     1      43.103 -14.854   4.359  1.00  0.00     0.128 HD
BRANCH  21  23
HETATM   23  C   UNL     1      43.386 -16.815   4.389  1.00  0.00     0.042 A 
HETATM   24  C   UNL     1      42.790 -16.964   3.112  1.00  0.00     0.089 A 
HETATM   25  C   UNL     1      43.005 -18.126   2.362  1.00  0.00     0.038 A 
HETATM   26  C   UNL     1      43.827 -19.139   2.856  1.00  0.00     0.003 A 
HETATM   27  C   UNL     1      44.440 -18.992   4.095  1.00  0.00     0.002 A 
HETATM   28  C   UNL     1      44.230 -17.835   4.850  1.00  0.00     0.026 A 
BRANCH  24  29
HETATM   29  O   UNL     1      41.993 -15.913   2.715  1.00  0.00    -0.354 OA
HETATM   30  C   UNL     1      42.443 -15.150   1.602  1.00  0.00     0.210 C 
ENDBRANCH  24  29
ENDBRANCH  21  23
ENDBRANCH  20  21
ENDBRANCH  17  20
ENDBRANCH   1  16
TORSDOF 8
ENDMDL
MODEL 6
REMARK VINA RESULT:      -7.1      2.503      6.188
REMARK  8 active torsions:
REMARK  status: ('A' for Active; 'I' for Inactive)
REMARK    1  A    between atoms: C_2  and  N_3 
REMARK    2  A    between atoms: C_2  and  C_17 
REMARK    3  A    between atoms: N_3  and  N_4 
REMARK       I    between atoms: N_4  and  C_5 
REMARK    4  A    between atoms: C_5  and  C_6 
REMARK    5  A    between atoms: C_6  and  N_7 
REMARK    6  A    between atoms: N_7  and  C_8 
REMARK    7  A    between atoms: C_9  and  O_10 
REMARK       I    between atoms: C_17  and  N_18 
REMARK    8  A    between atoms: N_18  and  C_19 
ROOT
HETATM    1  N   UNL     1      42.853 -13.881   4.392  1.00  0.00    -0.225 NA
HETATM    2  H   UNL     1      43.713 -14.259   3.968  1.00  0.00     0.147 HD
ENDROOT
BRANCH   1   3
HETATM    3  C   UNL     1      42.716 -14.571   5.709  1.00  0.00     0.165 C 
HETATM    4  C   UNL     1      43.956 -14.458   6.592  1.00  0.00     0.038 C 
BRANCH   3   5
HETATM    5  C   UNL     1      42.432 -16.074   5.451  1.00  0.00     0.241 C 
HETATM    6  N   UNL     1      43.550 -16.760   5.000  1.00  0.00    -0.326 N 
HETATM    7  H   UNL     1      44.365 -16.167   4.870  1.00  0.00     0.169 HD
HETATM    8  O   UNL     1      41.328 -16.561   5.673  1.00  0.00    -0.271 OA
BRANCH   6   9
HETATM    9  C   UNL     1      43.668 -18.114   4.643  1.00  0.00     0.036 A 
HETATM   10  C   UNL     1      43.643 -18.578   3.327  1.00  0.00     0.053 A 
HETATM   11  C   UNL     1      43.776 -19.944   3.070  1.00  0.00     0.036 A 
HETATM   12 CL   UNL     1      43.734 -20.518   1.445  1.00  0.00    -0.084 Cl
HETATM   13  C   UNL     1      43.940 -20.857   4.110  1.00  0.00     0.024 A 
HETATM   14  C   UNL     1      43.963 -20.400   5.425  1.00  0.00     0.004 A 
HETATM   15  C   UNL     1      43.821 -19.035   5.689  1.00  0.00     0.029 A 
ENDBRANCH   6   9
ENDBRANCH   3   5
ENDBRANCH   1   3
BRANCH   1  16
HETATM   16  N   UNL     1      41.798 -14.188   3.497  1.00  0.00    -0.290 N 
HETATM   17  C   UNL     1      42.087 -14.793   2.276  1.00  0.00     0.245 C 
HETATM   18  O   UNL     1      43.161 -15.333   2.017  1.00  0.00    -0.271 OA
HETATM   19  H   UNL     1      40.987 -13.559   3.459  1.00  0.00     0.183 HD
BRANCH  17  20
HETATM   20  C   UNL     1      40.917 -14.720   1.289  1.00  0.00     0.196 C 
BRANCH  20  21
HETATM   21  N   UNL     1      41.230 -13.838   0.149  1.00  0.00    -0.282 NA
HETATM   22  H   UNL     1      41.442 -12.878   0.433  1.00  0.00     0.128 HD
BRANCH  21  23
HETATM   23  C   UNL     1      40.332 -13.774  -0.942  1.00  0.00     0.042 A 
HETATM   24  C   UNL     1      40.420 -12.666  -1.822  1.00  0.00     0.089 A 
HETATM   25  C   UNL     1      39.619 -12.605  -2.967  1.00  0.00     0.038 A 
HETATM   26  C   UNL     1      38.742 -13.648  -3.265  1.00  0.00     0.003 A 
HETATM   27  C   UNL     1      38.666 -14.753  -2.426  1.00  0.00     0.002 A 
HETATM   28  C   UNL     1      39.463 -14.821  -1.280  1.00  0.00     0.026 A 
BRANCH  24  29
HETATM   29  O   UNL     1      41.311 -11.688  -1.438  1.00  0.00    -0.354 OA
HETATM   30  C   UNL     1      41.109 -10.386  -1.976  1.00  0.00     0.210 C 
ENDBRANCH  24  29
ENDBRANCH  21  23
ENDBRANCH  20  21
ENDBRANCH  17  20
ENDBRANCH   1  16
TORSDOF 8
ENDMDL
MODEL 7
REMARK VINA RESULT:      -7.1      2.053      5.479
REMARK  8 active torsions:
REMARK  status: ('A' for Active; 'I' for Inactive)
REMARK    1  A    between atoms: C_2  and  N_3 
REMARK    2  A    between atoms: C_2  and  C_17 
REMARK    3  A    between atoms: N_3  and  N_4 
REMARK       I    between atoms: N_4  and  C_5 
REMARK    4  A    between atoms: C_5  and  C_6 
REMARK    5  A    between atoms: C_6  and  N_7 
REMARK    6  A    between atoms: N_7  and  C_8 
REMARK    7  A    between atoms: C_9  and  O_10 
REMARK       I    between atoms: C_17  and  N_18 
REMARK    8  A    between atoms: N_18  and  C_19 
ROOT
HETATM    1  N   UNL     1      39.936 -13.650   5.066  1.00  0.00    -0.225 NA
HETATM    2  H   UNL     1      39.930 -12.728   5.527  1.00  0.00     0.147 HD
ENDROOT
BRANCH   1   3
HETATM    3  C   UNL     1      41.317 -14.185   5.252  1.00  0.00     0.165 C 
HETATM    4  C   UNL     1      42.387 -13.393   4.504  1.00  0.00     0.038 C 
BRANCH   3   5
HETATM    5  C   UNL     1      41.350 -15.652   4.746  1.00  0.00     0.241 C 
HETATM    6  N   UNL     1      42.638 -16.107   4.508  1.00  0.00    -0.326 N 
HETATM    7  H   UNL     1      43.354 -15.401   4.662  1.00  0.00     0.169 HD
HETATM    8  O   UNL     1      40.319 -16.306   4.621  1.00  0.00    -0.271 OA
BRANCH   6   9
HETATM    9  C   UNL     1      43.055 -17.360   4.026  1.00  0.00     0.036 A 
HETATM   10  C   UNL     1      43.621 -18.354   4.825  1.00  0.00     0.053 A 
HETATM   11  C   UNL     1      43.997 -19.573   4.256  1.00  0.00     0.036 A 
HETATM   12 CL   UNL     1      44.706 -20.795   5.241  1.00  0.00    -0.084 Cl
HETATM   13  C   UNL     1      43.810 -19.817   2.896  1.00  0.00     0.024 A 
HETATM   14  C   UNL     1      43.248 -18.827   2.093  1.00  0.00     0.004 A 
HETATM   15  C   UNL     1      42.879 -17.603   2.656  1.00  0.00     0.029 A 
ENDBRANCH   6   9
ENDBRANCH   3   5
ENDBRANCH   1   3
BRANCH   1  16
HETATM   16  N   UNL     1      39.613 -13.418   3.706  1.00  0.00    -0.290 N 
HETATM   17  C   UNL     1      39.266 -12.134   3.291  1.00  0.00     0.245 C 
HETATM   18  O   UNL     1      39.476 -11.121   3.955  1.00  0.00    -0.271 OA
HETATM   19  H   UNL     1      39.135 -14.160   3.181  1.00  0.00     0.183 HD
BRANCH  17  20
HETATM   20  C   UNL     1      38.599 -12.119   1.911  1.00  0.00     0.196 C 
BRANCH  20  21
HETATM   21  N   UNL     1      39.592 -12.283   0.833  1.00  0.00    -0.282 NA
HETATM   22  H   UNL     1      40.100 -11.420   0.623  1.00  0.00     0.128 HD
BRANCH  21  23
HETATM   23  C   UNL     1      39.187 -12.852  -0.397  1.00  0.00     0.042 A 
HETATM   24  C   UNL     1      39.620 -14.167  -0.705  1.00  0.00     0.089 A 
HETATM   25  C   UNL     1      39.168 -14.807  -1.865  1.00  0.00     0.038 A 
HETATM   26  C   UNL     1      38.270 -14.165  -2.716  1.00  0.00     0.003 A 
HETATM   27  C   UNL     1      37.816 -12.887  -2.411  1.00  0.00     0.002 A 
HETATM   28  C   UNL     1      38.263 -12.241  -1.255  1.00  0.00     0.026 A 
BRANCH  24  29
HETATM   29  O   UNL     1      40.509 -14.712   0.194  1.00  0.00    -0.354 OA
HETATM   30  C   UNL     1      40.008 -15.722   1.062  1.00  0.00     0.210 C 
ENDBRANCH  24  29
ENDBRANCH  21  23
ENDBRANCH  20  21
ENDBRANCH  17  20
ENDBRANCH   1  16
TORSDOF 8
ENDMDL
MODEL 8
REMARK VINA RESULT:      -7.1      2.803      6.079
REMARK  8 active torsions:
REMARK  status: ('A' for Active; 'I' for Inactive)
REMARK    1  A    between atoms: C_2  and  N_3 
REMARK    2  A    between atoms: C_2  and  C_17 
REMARK    3  A    between atoms: N_3  and  N_4 
REMARK       I    between atoms: N_4  and  C_5 
REMARK    4  A    between atoms: C_5  and  C_6 
REMARK    5  A    between atoms: C_6  and  N_7 
REMARK    6  A    between atoms: N_7  and  C_8 
REMARK    7  A    between atoms: C_9  and  O_10 
REMARK       I    between atoms: C_17  and  N_18 
REMARK    8  A    between atoms: N_18  and  C_19 
ROOT
HETATM    1  N   UNL     1      42.254 -13.631   4.722  1.00  0.00    -0.225 NA
HETATM    2  H   UNL     1      41.233 -13.710   4.843  1.00  0.00     0.147 HD
ENDROOT
BRANCH   1   3
HETATM    3  C   UNL     1      42.459 -13.172   3.316  1.00  0.00     0.165 C 
HETATM    4  C   UNL     1      42.655 -11.663   3.188  1.00  0.00     0.038 C 
BRANCH   3   5
HETATM    5  C   UNL     1      41.218 -13.578   2.478  1.00  0.00     0.241 C 
HETATM    6  N   UNL     1      41.141 -12.899   1.272  1.00  0.00    -0.326 N 
HETATM    7  H   UNL     1      41.882 -12.215   1.143  1.00  0.00     0.169 HD
HETATM    8  O   UNL     1      40.438 -14.441   2.872  1.00  0.00    -0.271 OA
BRANCH   6   9
HETATM    9  C   UNL     1      40.155 -12.986   0.274  1.00  0.00     0.036 A 
HETATM   10  C   UNL     1      40.010 -14.075  -0.587  1.00  0.00     0.053 A 
HETATM   11  C   UNL     1      38.994 -14.074  -1.544  1.00  0.00     0.036 A 
HETATM   12 CL   UNL     1      38.823 -15.414  -2.613  1.00  0.00    -0.084 Cl
HETATM   13  C   UNL     1      38.112 -12.999  -1.652  1.00  0.00     0.024 A 
HETATM   14  C   UNL     1      38.253 -11.909  -0.798  1.00  0.00     0.004 A 
HETATM   15  C   UNL     1      39.275 -11.901   0.156  1.00  0.00     0.029 A 
ENDBRANCH   6   9
ENDBRANCH   3   5
ENDBRANCH   1   3
BRANCH   1  16
HETATM   16  N   UNL     1      42.786 -14.923   4.963  1.00  0.00    -0.290 N 
HETATM   17  C   UNL     1      42.224 -15.724   5.954  1.00  0.00     0.245 C 
HETATM   18  O   UNL     1      41.125 -15.512   6.464  1.00  0.00    -0.271 OA
HETATM   19  H   UNL     1      43.796 -15.067   4.844  1.00  0.00     0.183 HD
BRANCH  17  20
HETATM   20  C   UNL     1      43.122 -16.905   6.339  1.00  0.00     0.196 C 
BRANCH  20  21
HETATM   21  N   UNL     1      44.087 -17.215   5.269  1.00  0.00    -0.282 NA
HETATM   22  H   UNL     1      44.311 -16.405   4.685  1.00  0.00     0.128 HD
BRANCH  21  23
HETATM   23  C   UNL     1      43.835 -18.308   4.406  1.00  0.00     0.042 A 
HETATM   24  C   UNL     1      43.407 -18.035   3.083  1.00  0.00     0.089 A 
HETATM   25  C   UNL     1      43.237 -19.077   2.164  1.00  0.00     0.038 A 
HETATM   26  C   UNL     1      43.511 -20.393   2.538  1.00  0.00     0.003 A 
HETATM   27  C   UNL     1      43.959 -20.670   3.824  1.00  0.00     0.002 A 
HETATM   28  C   UNL     1      44.131 -19.635   4.747  1.00  0.00     0.026 A 
BRANCH  24  29
HETATM   29  O   UNL     1      43.158 -16.707   2.813  1.00  0.00    -0.354 OA
HETATM   30  C   UNL     1      43.309 -16.285   1.463  1.00  0.00     0.210 C 
ENDBRANCH  24  29
ENDBRANCH  21  23
ENDBRANCH  20  21
ENDBRANCH  17  20
ENDBRANCH   1  16
TORSDOF 8
ENDMDL
MODEL 9
REMARK VINA RESULT:      -7.1      1.821      2.704
REMARK  8 active torsions:
REMARK  status: ('A' for Active; 'I' for Inactive)
REMARK    1  A    between atoms: C_2  and  N_3 
REMARK    2  A    between atoms: C_2  and  C_17 
REMARK    3  A    between atoms: N_3  and  N_4 
REMARK       I    between atoms: N_4  and  C_5 
REMARK    4  A    between atoms: C_5  and  C_6 
REMARK    5  A    between atoms: C_6  and  N_7 
REMARK    6  A    between atoms: N_7  and  C_8 
REMARK    7  A    between atoms: C_9  and  O_10 
REMARK       I    between atoms: C_17  and  N_18 
REMARK    8  A    between atoms: N_18  and  C_19 
ROOT
HETATM    1  N   UNL     1      39.160 -13.349   1.772  1.00  0.00    -0.225 NA
HETATM    2  H   UNL     1      38.276 -13.847   1.591  1.00  0.00     0.147 HD
ENDROOT
BRANCH   1   3
HETATM    3  C   UNL     1      40.211 -14.110   1.035  1.00  0.00     0.165 C 
HETATM    4  C   UNL     1      39.742 -14.653  -0.313  1.00  0.00     0.038 C 
BRANCH   3   5
HETATM    5  C   UNL     1      40.664 -15.306   1.915  1.00  0.00     0.241 C 
HETATM    6  N   UNL     1      42.026 -15.295   2.173  1.00  0.00    -0.326 N 
HETATM    7  H   UNL     1      42.520 -14.533   1.716  1.00  0.00     0.169 HD
HETATM    8  O   UNL     1      39.855 -16.126   2.339  1.00  0.00    -0.271 OA
BRANCH   6   9
HETATM    9  C   UNL     1      42.791 -16.219   2.905  1.00  0.00     0.036 A 
HETATM   10  C   UNL     1      43.268 -15.988   4.195  1.00  0.00     0.053 A 
HETATM   11  C   UNL     1      44.016 -16.972   4.847  1.00  0.00     0.036 A 
HETATM   12 CL   UNL     1      44.614 -16.680   6.436  1.00  0.00    -0.084 Cl
HETATM   13  C   UNL     1      44.288 -18.191   4.229  1.00  0.00     0.024 A 
HETATM   14  C   UNL     1      43.817 -18.427   2.940  1.00  0.00     0.004 A 
HETATM   15  C   UNL     1      43.077 -17.442   2.280  1.00  0.00     0.029 A 
ENDBRANCH   6   9
ENDBRANCH   3   5
ENDBRANCH   1   3
BRANCH   1  16
HETATM   16  N   UNL     1      39.349 -13.369   3.177  1.00  0.00    -0.290 N 
HETATM   17  C   UNL     1      39.306 -12.175   3.893  1.00  0.00     0.245 C 
HETATM   18  O   UNL     1      38.849 -11.125   3.446  1.00  0.00    -0.271 OA
HETATM   19  H   UNL     1      39.993 -14.062   3.576  1.00  0.00     0.183 HD
BRANCH  17  20
HETATM   20  C   UNL     1      39.885 -12.312   5.306  1.00  0.00     0.196 C 
BRANCH  20  21
HETATM   21  N   UNL     1      41.028 -13.243   5.329  1.00  0.00    -0.282 NA
HETATM   22  H   UNL     1      40.895 -14.025   5.976  1.00  0.00     0.128 HD
BRANCH  21  23
HETATM   23  C   UNL     1      42.331 -12.731   5.539  1.00  0.00     0.042 A 
HETATM   24  C   UNL     1      43.052 -12.247   4.419  1.00  0.00     0.089 A 
HETATM   25  C   UNL     1      44.304 -11.645   4.590  1.00  0.00     0.038 A 
HETATM   26  C   UNL     1      44.842 -11.495   5.868  1.00  0.00     0.003 A 
HETATM   27  C   UNL     1      44.131 -11.940   6.977  1.00  0.00     0.002 A 
HETATM   28  C   UNL     1      42.881 -12.542   6.815  1.00  0.00     0.026 A 
BRANCH  24  29
HETATM   29  O   UNL     1      42.440 -12.447   3.202  1.00  0.00    -0.354 OA
HETATM   30  C   UNL     1      42.317 -11.314   2.350  1.00  0.00     0.210 C 
ENDBRANCH  24  29
ENDBRANCH  21  23
ENDBRANCH  20  21
ENDBRANCH  17  20
ENDBRANCH   1  16
TORSDOF 8
ENDMDL
MODEL 10
REMARK VINA RESULT:      -7.0      1.320      1.943
REMARK  8 active torsions:
REMARK  status: ('A' for Active; 'I' for Inactive)
REMARK    1  A    between atoms: C_2  and  N_3 
REMARK    2  A    between atoms: C_2  and  C_17 
REMARK    3  A    between atoms: N_3  and  N_4 
REMARK       I    between atoms: N_4  and  C_5 
REMARK    4  A    between atoms: C_5  and  C_6 
REMARK    5  A    between atoms: C_6  and  N_7 
REMARK    6  A    between atoms: N_7  and  C_8 
REMARK    7  A    between atoms: C_9  and  O_10 
REMARK       I    between atoms: C_17  and  N_18 
REMARK    8  A    between atoms: N_18  and  C_19 
ROOT
HETATM    1  N   UNL     1      39.065 -13.315   1.950  1.00  0.00    -0.225 NA
HETATM    2  H   UNL     1      38.236 -13.842   1.637  1.00  0.00     0.147 HD
ENDROOT
BRANCH   1   3
HETATM    3  C   UNL     1      40.228 -13.944   1.258  1.00  0.00     0.165 C 
HETATM    4  C   UNL     1      39.959 -14.287  -0.205  1.00  0.00     0.038 C 
BRANCH   3   5
HETATM    5  C   UNL     1      40.600 -15.252   2.007  1.00  0.00     0.241 C 
HETATM    6  N   UNL     1      41.968 -15.404   2.172  1.00  0.00    -0.326 N 
HETATM    7  H   UNL     1      42.514 -14.661   1.744  1.00  0.00     0.169 HD
HETATM    8  O   UNL     1      39.733 -16.017   2.419  1.00  0.00    -0.271 OA
BRANCH   6   9
HETATM    9  C   UNL     1      42.670 -16.462   2.774  1.00  0.00     0.036 A 
HETATM   10  C   UNL     1      42.859 -17.711   2.180  1.00  0.00     0.053 A 
HETATM   11  C   UNL     1      43.579 -18.699   2.854  1.00  0.00     0.036 A 
HETATM   12 CL   UNL     1      43.802 -20.244   2.124  1.00  0.00    -0.084 Cl
HETATM   13  C   UNL     1      44.121 -18.457   4.115  1.00  0.00     0.024 A 
HETATM   14  C   UNL     1      43.933 -17.215   4.715  1.00  0.00     0.004 A 
HETATM   15  C   UNL     1      43.205 -16.225   4.048  1.00  0.00     0.029 A 
ENDBRANCH   6   9
ENDBRANCH   3   5
ENDBRANCH   1   3
BRANCH   1  16
HETATM   16  N   UNL     1      39.119 -13.455   3.359  1.00  0.00    -0.290 N 
HETATM   17  C   UNL     1      39.470 -12.360   4.146  1.00  0.00     0.245 C 
HETATM   18  O   UNL     1      39.478 -11.200   3.739  1.00  0.00    -0.271 OA
HETATM   19  H   UNL     1      39.423 -14.354   3.752  1.00  0.00     0.183 HD
BRANCH  17  20
HETATM   20  C   UNL     1      39.841 -12.757   5.579  1.00  0.00     0.196 C 
BRANCH  20  21
HETATM   21  N   UNL     1      40.691 -11.735   6.216  1.00  0.00    -0.282 NA
HETATM   22  H   UNL     1      40.537 -10.795   5.840  1.00  0.00     0.128 HD
BRANCH  21  23
HETATM   23  C   UNL     1      42.088 -11.944   6.287  1.00  0.00     0.042 A 
HETATM   24  C   UNL     1      42.930 -10.816   6.455  1.00  0.00     0.089 A 
HETATM   25  C   UNL     1      44.309 -10.981   6.626  1.00  0.00     0.038 A 
HETATM   26  C   UNL     1      44.864 -12.260   6.655  1.00  0.00     0.003 A 
HETATM   27  C   UNL     1      44.046 -13.375   6.520  1.00  0.00     0.002 A 
HETATM   28  C   UNL     1      42.669 -13.219   6.348  1.00  0.00     0.026 A 
BRANCH  24  29
HETATM   29  O   UNL     1      42.288  -9.598   6.407  1.00  0.00    -0.354 OA
HETATM   30  C   UNL     1      42.358  -8.787   7.573  1.00  0.00     0.210 C 
ENDBRANCH  24  29
ENDBRANCH  21  23
ENDBRANCH  20  21
ENDBRANCH  17  20
ENDBRANCH   1  16
TORSDOF 8
ENDMDL
