MODEL 1
REMARK VINA RESULT:      -9.2      0.000      0.000
REMARK  6 active torsions:
REMARK  status: ('A' for Active; 'I' for Inactive)
REMARK    1  A    between atoms: C_5  and  N_6 
REMARK    2  A    between atoms: N_6  and  C_7 
REMARK    3  A    between atoms: C_7  and  C_8 
REMARK    4  A    between atoms: N_10  and  C_12 
REMARK    5  A    between atoms: C_12  and  C_13 
REMARK    6  A    between atoms: C_14  and  C_15 
ROOT
HETATM    1  C   UNL     1      43.059 -14.134   5.827  1.00  0.00     0.031 C 
HETATM    2  C   UNL     1      41.874 -14.169   4.857  1.00  0.00     0.241 C 
HETATM    3  N   UNL     1      41.103 -15.422   5.227  1.00  0.00    -0.067 N 
HETATM    4  H   UNL     1      40.152 -15.140   5.499  1.00  0.00     0.280 HD
HETATM    5  C   UNL     1      41.756 -16.025   6.446  1.00  0.00     0.235 C 
HETATM    6  C   UNL     1      42.516 -14.858   7.053  1.00  0.00     0.035 C 
ENDROOT
BRANCH   3   7
HETATM    7  C   UNL     1      40.903 -16.415   4.104  1.00  0.00     0.277 C 
BRANCH   7   8
HETATM    8  C   UNL     1      41.826 -16.225   2.954  1.00  0.00     0.016 A 
HETATM    9  C   UNL     1      42.960 -17.039   2.622  1.00  0.00     0.102 A 
HETATM   10  N   UNL     1      43.571 -16.565   1.531  1.00  0.00    -0.174 NA
HETATM   11  N   UNL     1      42.834 -15.531   1.124  1.00  0.00    -0.288 N 
HETATM   12  H   UNL     1      43.113 -15.051   0.270  1.00  0.00     0.188 HD
HETATM   13  C   UNL     1      41.781 -15.270   1.952  1.00  0.00     0.120 A 
BRANCH   9  14
HETATM   14  C   UNL     1      43.459 -18.245   3.275  1.00  0.00     0.072 A 
HETATM   15  C   UNL     1      44.134 -18.175   4.496  1.00  0.00     0.132 A 
HETATM   16  F   UNL     1      44.405 -16.983   5.052  1.00  0.00    -0.205 F 
HETATM   17  C   UNL     1      44.565 -19.324   5.160  1.00  0.00     0.043 A 
HETATM   18  C   UNL     1      44.324 -20.577   4.601  1.00  0.00     0.006 A 
HETATM   19  C   UNL     1      43.666 -20.670   3.375  1.00  0.00     0.043 A 
HETATM   20  C   UNL     1      43.240 -19.511   2.722  1.00  0.00     0.132 A 
HETATM   21  F   UNL     1      42.657 -19.643   1.522  1.00  0.00    -0.205 F 
ENDBRANCH   9  14
ENDBRANCH   7   8
ENDBRANCH   3   7
BRANCH   1  22
HETATM   22  C   UNL     1      43.547 -12.705   6.093  1.00  0.00     0.127 C 
BRANCH  22  23
HETATM   23  N   UNL     1      43.492 -12.375   7.515  1.00  0.00    -0.376 N 
HETATM   24  H   UNL     1      42.950 -12.982   8.118  1.00  0.00     0.161 HD
BRANCH  23  25
HETATM   25  C   UNL     1      44.253 -11.360   8.063  1.00  0.00     0.101 A 
HETATM   26  N   UNL     1      43.856 -10.832   9.235  1.00  0.00    -0.347 N 
HETATM   27  C   UNL     1      44.500  -9.837   9.877  1.00  0.00     0.007 A 
HETATM   28  H   UNL     1      43.014 -11.207   9.658  1.00  0.00     0.167 HD
HETATM   29  C   UNL     1      43.951  -9.334  11.173  1.00  0.00     0.068 C 
HETATM   30  C   UNL     1      45.657  -9.303   9.315  1.00  0.00     0.025 A 
HETATM   31  C   UNL     1      46.114  -9.805   8.106  1.00  0.00     0.006 A 
HETATM   32  C   UNL     1      45.410 -10.831   7.478  1.00  0.00     0.048 A 
ENDBRANCH  23  25
ENDBRANCH  22  23
ENDBRANCH   1  22
TORSDOF 6
ENDMDL
MODEL 2
REMARK VINA RESULT:      -9.0      1.849      2.618
REMARK  6 active torsions:
REMARK  status: ('A' for Active; 'I' for Inactive)
REMARK    1  A    between atoms: C_5  and  N_6 
REMARK    2  A    between atoms: N_6  and  C_7 
REMARK    3  A    between atoms: C_7  and  C_8 
REMARK    4  A    between atoms: N_10  and  C_12 
REMARK    5  A    between atoms: C_12  and  C_13 
REMARK    6  A    between atoms: C_14  and  C_15 
ROOT
HETATM    1  C   UNL     1      41.819 -11.801   4.877  1.00  0.00     0.031 C 
HETATM    2  C   UNL     1      42.778 -12.946   4.536  1.00  0.00     0.241 C 
HETATM    3  N   UNL     1      43.176 -12.705   3.092  1.00  0.00    -0.067 N 
HETATM    4  H   UNL     1      44.198 -12.586   3.061  1.00  0.00     0.280 HD
HETATM    5  C   UNL     1      42.561 -11.399   2.653  1.00  0.00     0.235 C 
HETATM    6  C   UNL     1      42.293 -10.677   3.963  1.00  0.00     0.035 C 
ENDROOT
BRANCH   3   7
HETATM    7  C   UNL     1      42.893 -13.847   2.142  1.00  0.00     0.277 C 
BRANCH   7   8
HETATM    8  C   UNL     1      41.586 -14.516   2.370  1.00  0.00     0.016 A 
HETATM    9  C   UNL     1      41.371 -15.779   3.016  1.00  0.00     0.102 A 
HETATM   10  N   UNL     1      40.069 -16.080   3.032  1.00  0.00    -0.174 NA
HETATM   11  N   UNL     1      39.449 -15.034   2.485  1.00  0.00    -0.288 N 
HETATM   12  H   UNL     1      38.432 -15.049   2.441  1.00  0.00     0.188 HD
HETATM   13  C   UNL     1      40.314 -14.070   2.053  1.00  0.00     0.120 A 
BRANCH   9  14
HETATM   14  C   UNL     1      42.339 -16.681   3.634  1.00  0.00     0.072 A 
HETATM   15  C   UNL     1      42.444 -16.779   5.025  1.00  0.00     0.132 A 
HETATM   16  F   UNL     1      41.707 -15.983   5.817  1.00  0.00    -0.205 F 
HETATM   17  C   UNL     1      43.323 -17.679   5.629  1.00  0.00     0.043 A 
HETATM   18  C   UNL     1      44.121 -18.502   4.838  1.00  0.00     0.006 A 
HETATM   19  C   UNL     1      44.044 -18.409   3.450  1.00  0.00     0.043 A 
HETATM   20  C   UNL     1      43.160 -17.504   2.858  1.00  0.00     0.132 A 
HETATM   21  F   UNL     1      43.154 -17.412   1.521  1.00  0.00    -0.205 F 
ENDBRANCH   9  14
ENDBRANCH   7   8
ENDBRANCH   3   7
BRANCH   1  22
HETATM   22  C   UNL     1      41.835 -11.459   6.372  1.00  0.00     0.127 C 
BRANCH  22  23
HETATM   23  N   UNL     1      42.957 -12.098   7.056  1.00  0.00    -0.376 N 
HETATM   24  H   UNL     1      43.045 -13.104   6.977  1.00  0.00     0.161 HD
BRANCH  23  25
HETATM   25  C   UNL     1      43.949 -11.367   7.679  1.00  0.00     0.101 A 
HETATM   26  N   UNL     1      43.676 -10.819   8.878  1.00  0.00    -0.347 N 
HETATM   27  C   UNL     1      44.549 -10.080   9.592  1.00  0.00     0.007 A 
HETATM   28  H   UNL     1      42.751 -10.971   9.263  1.00  0.00     0.167 HD
HETATM   29  C   UNL     1      44.119  -9.521  10.910  1.00  0.00     0.068 C 
HETATM   30  C   UNL     1      45.824  -9.854   9.082  1.00  0.00     0.025 A 
HETATM   31  C   UNL     1      46.164 -10.391   7.849  1.00  0.00     0.006 A 
HETATM   32  C   UNL     1      45.225 -11.143   7.146  1.00  0.00     0.048 A 
ENDBRANCH  23  25
ENDBRANCH  22  23
ENDBRANCH   1  22
TORSDOF 6
ENDMDL
MODEL 3
REMARK VINA RESULT:      -9.0      1.825      2.925
REMARK  6 active torsions:
REMARK  status: ('A' for Active; 'I' for Inactive)
REMARK    1  A    between atoms: C_5  and  N_6 
REMARK    2  A    between atoms: N_6  and  C_7 
REMARK    3  A    between atoms: C_7  and  C_8 
REMARK    4  A    between atoms: N_10  and  C_12 
REMARK    5  A    between atoms: C_12  and  C_13 
REMARK    6  A    between atoms: C_14  and  C_15 
ROOT
HETATM    1  C   UNL     1      41.846 -11.820   4.909  1.00  0.00     0.031 C 
HETATM    2  C   UNL     1      42.792 -12.981   4.590  1.00  0.00     0.241 C 
HETATM    3  N   UNL     1      43.213 -12.759   3.150  1.00  0.00    -0.067 N 
HETATM    4  H   UNL     1      44.236 -12.655   3.130  1.00  0.00     0.280 HD
HETATM    5  C   UNL     1      42.622 -11.449   2.691  1.00  0.00     0.235 C 
HETATM    6  C   UNL     1      42.347 -10.711   3.991  1.00  0.00     0.035 C 
ENDROOT
BRANCH   3   7
HETATM    7  C   UNL     1      42.926 -13.905   2.206  1.00  0.00     0.277 C 
BRANCH   7   8
HETATM    8  C   UNL     1      41.600 -14.544   2.413  1.00  0.00     0.016 A 
HETATM    9  C   UNL     1      41.348 -15.812   3.036  1.00  0.00     0.102 A 
HETATM   10  N   UNL     1      40.038 -16.080   3.037  1.00  0.00    -0.174 NA
HETATM   11  N   UNL     1      39.449 -15.009   2.504  1.00  0.00    -0.288 N 
HETATM   12  H   UNL     1      38.433 -14.998   2.453  1.00  0.00     0.188 HD
HETATM   13  C   UNL     1      40.342 -14.061   2.095  1.00  0.00     0.120 A 
BRANCH   9  14
HETATM   14  C   UNL     1      42.288 -16.749   3.646  1.00  0.00     0.072 A 
HETATM   15  C   UNL     1      43.085 -17.583   2.857  1.00  0.00     0.132 A 
HETATM   16  F   UNL     1      42.942 -17.591   1.522  1.00  0.00    -0.205 F 
HETATM   17  C   UNL     1      44.029 -18.441   3.424  1.00  0.00     0.043 A 
HETATM   18  C   UNL     1      44.187 -18.478   4.808  1.00  0.00     0.006 A 
HETATM   19  C   UNL     1      43.390 -17.666   5.614  1.00  0.00     0.043 A 
HETATM   20  C   UNL     1      42.450 -16.812   5.033  1.00  0.00     0.132 A 
HETATM   21  F   UNL     1      41.671 -16.086   5.848  1.00  0.00    -0.205 F 
ENDBRANCH   9  14
ENDBRANCH   7   8
ENDBRANCH   3   7
BRANCH   1  22
HETATM   22  C   UNL     1      41.848 -11.465   6.401  1.00  0.00     0.127 C 
BRANCH  22  23
HETATM   23  N   UNL     1      42.961 -12.101   7.102  1.00  0.00    -0.376 N 
HETATM   24  H   UNL     1      43.044 -13.108   7.035  1.00  0.00     0.161 HD
BRANCH  23  25
HETATM   25  C   UNL     1      43.952 -11.367   7.724  1.00  0.00     0.101 A 
HETATM   26  N   UNL     1      43.676 -10.815   8.920  1.00  0.00    -0.347 N 
HETATM   27  C   UNL     1      44.546 -10.074   9.633  1.00  0.00     0.007 A 
HETATM   28  H   UNL     1      42.749 -10.967   9.305  1.00  0.00     0.167 HD
HETATM   29  C   UNL     1      44.114  -9.510  10.949  1.00  0.00     0.068 C 
HETATM   30  C   UNL     1      45.823  -9.849   9.125  1.00  0.00     0.025 A 
HETATM   31  C   UNL     1      46.165 -10.390   7.895  1.00  0.00     0.006 A 
HETATM   32  C   UNL     1      45.228 -11.145   7.192  1.00  0.00     0.048 A 
ENDBRANCH  23  25
ENDBRANCH  22  23
ENDBRANCH   1  22
TORSDOF 6
ENDMDL
MODEL 4
REMARK VINA RESULT:      -8.9      2.068      3.266
REMARK  6 active torsions:
REMARK  status: ('A' for Active; 'I' for Inactive)
REMARK    1  A    between atoms: C_5  and  N_6 
REMARK    2  A    between atoms: N_6  and  C_7 
REMARK    3  A    between atoms: C_7  and  C_8 
REMARK    4  A    between atoms: N_10  and  C_12 
REMARK    5  A    between atoms: C_12  and  C_13 
REMARK    6  A    between atoms: C_14  and  C_15 
ROOT
HETATM    1  C   UNL     1      43.379 -11.166   6.838  1.00  0.00     0.031 C 
HETATM    2  C   UNL     1      42.136 -11.436   5.986  1.00  0.00     0.241 C 
HETATM    3  N   UNL     1      42.327 -12.843   5.451  1.00  0.00    -0.067 N 
HETATM    4  H   UNL     1      41.540 -13.417   5.780  1.00  0.00     0.280 HD
HETATM    5  C   UNL     1      43.583 -13.407   6.068  1.00  0.00     0.235 C 
HETATM    6  C   UNL     1      43.776 -12.558   7.314  1.00  0.00     0.035 C 
ENDROOT
BRANCH   3   7
HETATM    7  C   UNL     1      42.293 -12.973   3.944  1.00  0.00     0.277 C 
BRANCH   7   8
HETATM    8  C   UNL     1      41.144 -13.763   3.429  1.00  0.00     0.016 A 
HETATM    9  C   UNL     1      41.094 -15.187   3.255  1.00  0.00     0.102 A 
HETATM   10  N   UNL     1      39.910 -15.554   2.755  1.00  0.00    -0.174 NA
HETATM   11  N   UNL     1      39.190 -14.435   2.671  1.00  0.00    -0.288 N 
HETATM   12  H   UNL     1      38.227 -14.509   2.347  1.00  0.00     0.188 HD
HETATM   13  C   UNL     1      39.888 -13.324   3.047  1.00  0.00     0.120 A 
BRANCH   9  14
HETATM   14  C   UNL     1      42.103 -16.196   3.567  1.00  0.00     0.072 A 
HETATM   15  C   UNL     1      42.285 -16.649   4.876  1.00  0.00     0.132 A 
HETATM   16  F   UNL     1      41.586 -16.104   5.884  1.00  0.00    -0.205 F 
HETATM   17  C   UNL     1      43.204 -17.655   5.180  1.00  0.00     0.043 A 
HETATM   18  C   UNL     1      43.966 -18.226   4.162  1.00  0.00     0.006 A 
HETATM   19  C   UNL     1      43.811 -17.777   2.851  1.00  0.00     0.043 A 
HETATM   20  C   UNL     1      42.887 -16.770   2.562  1.00  0.00     0.132 A 
HETATM   21  F   UNL     1      42.807 -16.333   1.297  1.00  0.00    -0.205 F 
ENDBRANCH   9  14
ENDBRANCH   7   8
ENDBRANCH   3   7
BRANCH   1  22
HETATM   22  C   UNL     1      43.103 -10.161   7.963  1.00  0.00     0.127 C 
BRANCH  22  23
HETATM   23  N   UNL     1      43.457 -10.708   9.270  1.00  0.00    -0.376 N 
HETATM   24  H   UNL     1      43.996 -11.565   9.291  1.00  0.00     0.161 HD
BRANCH  23  25
HETATM   25  C   UNL     1      43.197 -10.030  10.445  1.00  0.00     0.101 A 
HETATM   26  N   UNL     1      42.080 -10.346  11.126  1.00  0.00    -0.347 N 
HETATM   27  C   UNL     1      41.703  -9.762  12.281  1.00  0.00     0.007 A 
HETATM   28  H   UNL     1      41.484 -11.070  10.739  1.00  0.00     0.167 HD
HETATM   29  C   UNL     1      40.434 -10.201  12.937  1.00  0.00     0.068 C 
HETATM   30  C   UNL     1      42.503  -8.764  12.830  1.00  0.00     0.025 A 
HETATM   31  C   UNL     1      43.666  -8.392  12.172  1.00  0.00     0.006 A 
HETATM   32  C   UNL     1      44.010  -9.021  10.977  1.00  0.00     0.048 A 
ENDBRANCH  23  25
ENDBRANCH  22  23
ENDBRANCH   1  22
TORSDOF 6
ENDMDL
MODEL 5
REMARK VINA RESULT:      -8.8      3.612      7.586
REMARK  6 active torsions:
REMARK  status: ('A' for Active; 'I' for Inactive)
REMARK    1  A    between atoms: C_5  and  N_6 
REMARK    2  A    between atoms: N_6  and  C_7 
REMARK    3  A    between atoms: C_7  and  C_8 
REMARK    4  A    between atoms: N_10  and  C_12 
REMARK    5  A    between atoms: C_12  and  C_13 
REMARK    6  A    between atoms: C_14  and  C_15 
ROOT
HETATM    1  C   UNL     1      40.015 -14.354   2.477  1.00  0.00     0.031 C 
HETATM    2  C   UNL     1      40.741 -14.297   3.825  1.00  0.00     0.241 C 
HETATM    3  N   UNL     1      41.373 -15.666   3.986  1.00  0.00    -0.067 N 
HETATM    4  H   UNL     1      42.391 -15.538   4.067  1.00  0.00     0.280 HD
HETATM    5  C   UNL     1      41.120 -16.446   2.720  1.00  0.00     0.235 C 
HETATM    6  C   UNL     1      40.839 -15.366   1.690  1.00  0.00     0.035 C 
ENDROOT
BRANCH   3   7
HETATM    7  C   UNL     1      40.981 -16.418   5.239  1.00  0.00     0.277 C 
BRANCH   7   8
HETATM    8  C   UNL     1      41.996 -16.360   6.324  1.00  0.00     0.016 A 
HETATM    9  C   UNL     1      43.101 -17.257   6.512  1.00  0.00     0.102 A 
HETATM   10  N   UNL     1      43.799 -16.916   7.599  1.00  0.00    -0.174 NA
HETATM   11  N   UNL     1      43.224 -15.806   8.066  1.00  0.00    -0.288 N 
HETATM   12  H   UNL     1      43.640 -15.358   8.879  1.00  0.00     0.188 HD
HETATM   13  C   UNL     1      42.124 -15.436   7.347  1.00  0.00     0.120 A 
BRANCH   9  14
HETATM   14  C   UNL     1      43.526 -18.389   5.694  1.00  0.00     0.072 A 
HETATM   15  C   UNL     1      43.473 -19.694   6.190  1.00  0.00     0.132 A 
HETATM   16  F   UNL     1      43.102 -19.921   7.460  1.00  0.00    -0.205 F 
HETATM   17  C   UNL     1      43.820 -20.791   5.400  1.00  0.00     0.043 A 
HETATM   18  C   UNL     1      44.234 -20.592   4.084  1.00  0.00     0.006 A 
HETATM   19  C   UNL     1      44.310 -19.297   3.574  1.00  0.00     0.043 A 
HETATM   20  C   UNL     1      43.959 -18.208   4.377  1.00  0.00     0.132 A 
HETATM   21  F   UNL     1      44.094 -16.978   3.863  1.00  0.00    -0.205 F 
ENDBRANCH   9  14
ENDBRANCH   7   8
ENDBRANCH   3   7
BRANCH   1  22
HETATM   22  C   UNL     1      39.903 -12.972   1.821  1.00  0.00     0.127 C 
BRANCH  22  23
HETATM   23  N   UNL     1      40.202 -13.031   0.392  1.00  0.00    -0.376 N 
HETATM   24  H   UNL     1      41.136 -13.308   0.119  1.00  0.00     0.161 HD
BRANCH  23  25
HETATM   25  C   UNL     1      39.226 -12.854  -0.569  1.00  0.00     0.101 A 
HETATM   26  N   UNL     1      39.118 -13.778  -1.542  1.00  0.00    -0.347 N 
HETATM   27  C   UNL     1      38.216 -13.727  -2.541  1.00  0.00     0.007 A 
HETATM   28  H   UNL     1      39.763 -14.561  -1.518  1.00  0.00     0.167 HD
HETATM   29  C   UNL     1      38.204 -14.817  -3.565  1.00  0.00     0.068 C 
HETATM   30  C   UNL     1      37.323 -12.661  -2.596  1.00  0.00     0.025 A 
HETATM   31  C   UNL     1      37.386 -11.675  -1.624  1.00  0.00     0.006 A 
HETATM   32  C   UNL     1      38.341 -11.769  -0.612  1.00  0.00     0.048 A 
ENDBRANCH  23  25
ENDBRANCH  22  23
ENDBRANCH   1  22
TORSDOF 6
ENDMDL
MODEL 6
REMARK VINA RESULT:      -8.6      3.487      7.205
REMARK  6 active torsions:
REMARK  status: ('A' for Active; 'I' for Inactive)
REMARK    1  A    between atoms: C_5  and  N_6 
REMARK    2  A    between atoms: N_6  and  C_7 
REMARK    3  A    between atoms: C_7  and  C_8 
REMARK    4  A    between atoms: N_10  and  C_12 
REMARK    5  A    between atoms: C_12  and  C_13 
REMARK    6  A    between atoms: C_14  and  C_15 
ROOT
HETATM    1  C   UNL     1      40.735 -12.905   2.440  1.00  0.00     0.031 C 
HETATM    2  C   UNL     1      41.170 -12.391   3.816  1.00  0.00     0.241 C 
HETATM    3  N   UNL     1      42.591 -12.893   3.990  1.00  0.00    -0.067 N 
HETATM    4  H   UNL     1      43.203 -12.075   4.111  1.00  0.00     0.280 HD
HETATM    5  C   UNL     1      43.002 -13.573   2.708  1.00  0.00     0.235 C 
HETATM    6  C   UNL     1      42.052 -12.988   1.676  1.00  0.00     0.035 C 
ENDROOT
BRANCH   3   7
HETATM    7  C   UNL     1      42.833 -13.740   5.219  1.00  0.00     0.277 C 
BRANCH   7   8
HETATM    8  C   UNL     1      41.694 -14.624   5.580  1.00  0.00     0.016 A 
HETATM    9  C   UNL     1      41.510 -15.990   5.180  1.00  0.00     0.102 A 
HETATM   10  N   UNL     1      40.366 -16.471   5.676  1.00  0.00    -0.174 NA
HETATM   11  N   UNL     1      39.855 -15.493   6.423  1.00  0.00    -0.288 N 
HETATM   12  H   UNL     1      38.991 -15.678   6.929  1.00  0.00     0.188 HD
HETATM   13  C   UNL     1      40.604 -14.352   6.389  1.00  0.00     0.120 A 
BRANCH   9  14
HETATM   14  C   UNL     1      42.381 -16.848   4.382  1.00  0.00     0.072 A 
HETATM   15  C   UNL     1      43.465 -17.512   4.964  1.00  0.00     0.132 A 
HETATM   16  F   UNL     1      43.771 -17.307   6.255  1.00  0.00    -0.205 F 
HETATM   17  C   UNL     1      44.271 -18.381   4.226  1.00  0.00     0.043 A 
HETATM   18  C   UNL     1      43.999 -18.598   2.877  1.00  0.00     0.006 A 
HETATM   19  C   UNL     1      42.933 -17.934   2.273  1.00  0.00     0.043 A 
HETATM   20  C   UNL     1      42.135 -17.067   3.024  1.00  0.00     0.132 A 
HETATM   21  F   UNL     1      41.151 -16.411   2.392  1.00  0.00    -0.205 F 
ENDBRANCH   9  14
ENDBRANCH   7   8
ENDBRANCH   3   7
BRANCH   1  22
HETATM   22  C   UNL     1      39.677 -12.003   1.793  1.00  0.00     0.127 C 
BRANCH  22  23
HETATM   23  N   UNL     1      38.910 -12.721   0.777  1.00  0.00    -0.376 N 
HETATM   24  H   UNL     1      37.959 -12.984   1.005  1.00  0.00     0.161 HD
BRANCH  23  25
HETATM   25  C   UNL     1      39.393 -12.923  -0.501  1.00  0.00     0.101 A 
HETATM   26  N   UNL     1      39.808 -11.850  -1.199  1.00  0.00    -0.347 N 
HETATM   27  C   UNL     1      40.297 -11.903  -2.454  1.00  0.00     0.007 A 
HETATM   28  H   UNL     1      39.744 -10.943  -0.749  1.00  0.00     0.167 HD
HETATM   29  C   UNL     1      40.720 -10.635  -3.123  1.00  0.00     0.068 C 
HETATM   30  C   UNL     1      40.393 -13.136  -3.094  1.00  0.00     0.025 A 
HETATM   31  C   UNL     1      39.978 -14.278  -2.426  1.00  0.00     0.006 A 
HETATM   32  C   UNL     1      39.473 -14.171  -1.131  1.00  0.00     0.048 A 
ENDBRANCH  23  25
ENDBRANCH  22  23
ENDBRANCH   1  22
TORSDOF 6
ENDMDL
MODEL 7
REMARK VINA RESULT:      -8.5      3.600      7.818
REMARK  6 active torsions:
REMARK  status: ('A' for Active; 'I' for Inactive)
REMARK    1  A    between atoms: C_5  and  N_6 
REMARK    2  A    between atoms: N_6  and  C_7 
REMARK    3  A    between atoms: C_7  and  C_8 
REMARK    4  A    between atoms: N_10  and  C_12 
REMARK    5  A    between atoms: C_12  and  C_13 
REMARK    6  A    between atoms: C_14  and  C_15 
ROOT
HETATM    1  C   UNL     1      41.681 -12.240   1.745  1.00  0.00     0.031 C 
HETATM    2  C   UNL     1      41.027 -12.871   2.978  1.00  0.00     0.241 C 
HETATM    3  N   UNL     1      41.908 -12.458   4.142  1.00  0.00    -0.067 N 
HETATM    4  H   UNL     1      41.330 -11.921   4.802  1.00  0.00     0.280 HD
HETATM    5  C   UNL     1      42.968 -11.525   3.612  1.00  0.00     0.235 C 
HETATM    6  C   UNL     1      42.367 -11.005   2.317  1.00  0.00     0.035 C 
ENDROOT
BRANCH   3   7
HETATM    7  C   UNL     1      42.471 -13.597   4.963  1.00  0.00     0.277 C 
BRANCH   7   8
HETATM    8  C   UNL     1      41.444 -14.539   5.479  1.00  0.00     0.016 A 
HETATM    9  C   UNL     1      41.355 -15.945   5.204  1.00  0.00     0.102 A 
HETATM   10  N   UNL     1      40.296 -16.475   5.822  1.00  0.00    -0.174 NA
HETATM   11  N   UNL     1      39.754 -15.482   6.528  1.00  0.00    -0.288 N 
HETATM   12  H   UNL     1      38.947 -15.695   7.112  1.00  0.00     0.188 HD
HETATM   13  C   UNL     1      40.393 -14.290   6.346  1.00  0.00     0.120 A 
BRANCH   9  14
HETATM   14  C   UNL     1      42.241 -16.792   4.411  1.00  0.00     0.072 A 
HETATM   15  C   UNL     1      42.089 -16.893   3.025  1.00  0.00     0.132 A 
HETATM   16  F   UNL     1      41.071 -16.271   2.409  1.00  0.00    -0.205 F 
HETATM   17  C   UNL     1      42.964 -17.653   2.248  1.00  0.00     0.043 A 
HETATM   18  C   UNL     1      44.017 -18.333   2.856  1.00  0.00     0.006 A 
HETATM   19  C   UNL     1      44.177 -18.259   4.239  1.00  0.00     0.043 A 
HETATM   20  C   UNL     1      43.294 -17.495   5.005  1.00  0.00     0.132 A 
HETATM   21  F   UNL     1      43.454 -17.492   6.336  1.00  0.00    -0.205 F 
ENDBRANCH   9  14
ENDBRANCH   7   8
ENDBRANCH   3   7
BRANCH   1  22
HETATM   22  C   UNL     1      40.664 -11.950   0.635  1.00  0.00     0.127 C 
BRANCH  22  23
HETATM   23  N   UNL     1      40.910 -12.774  -0.547  1.00  0.00    -0.376 N 
HETATM   24  H   UNL     1      41.851 -13.114  -0.695  1.00  0.00     0.161 HD
BRANCH  23  25
HETATM   25  C   UNL     1      39.886 -13.199  -1.371  1.00  0.00     0.101 A 
HETATM   26  N   UNL     1      38.914 -12.320  -1.681  1.00  0.00    -0.347 N 
HETATM   27  C   UNL     1      37.858 -12.603  -2.469  1.00  0.00     0.007 A 
HETATM   28  H   UNL     1      38.985 -11.386  -1.292  1.00  0.00     0.167 HD
HETATM   29  C   UNL     1      36.843 -11.537  -2.732  1.00  0.00     0.068 C 
HETATM   30  C   UNL     1      37.738 -13.878  -3.013  1.00  0.00     0.025 A 
HETATM   31  C   UNL     1      38.706 -14.829  -2.726  1.00  0.00     0.006 A 
HETATM   32  C   UNL     1      39.778 -14.491  -1.902  1.00  0.00     0.048 A 
ENDBRANCH  23  25
ENDBRANCH  22  23
ENDBRANCH   1  22
TORSDOF 6
ENDMDL
MODEL 8
REMARK VINA RESULT:      -8.5      2.209      4.049
REMARK  6 active torsions:
REMARK  status: ('A' for Active; 'I' for Inactive)
REMARK    1  A    between atoms: C_5  and  N_6 
REMARK    2  A    between atoms: N_6  and  C_7 
REMARK    3  A    between atoms: C_7  and  C_8 
REMARK    4  A    between atoms: N_10  and  C_12 
REMARK    5  A    between atoms: C_12  and  C_13 
REMARK    6  A    between atoms: C_14  and  C_15 
ROOT
HETATM    1  C   UNL     1      43.354 -10.561   7.294  1.00  0.00     0.031 C 
HETATM    2  C   UNL     1      42.362 -11.476   6.570  1.00  0.00     0.241 C 
HETATM    3  N   UNL     1      43.216 -12.569   5.956  1.00  0.00    -0.067 N 
HETATM    4  H   UNL     1      42.904 -13.470   6.343  1.00  0.00     0.280 HD
HETATM    5  C   UNL     1      44.639 -12.357   6.409  1.00  0.00     0.235 C 
HETATM    6  C   UNL     1      44.487 -11.512   7.663  1.00  0.00     0.035 C 
ENDROOT
BRANCH   3   7
HETATM    7  C   UNL     1      43.085 -12.729   4.457  1.00  0.00     0.277 C 
BRANCH   7   8
HETATM    8  C   UNL     1      41.826 -13.391   4.026  1.00  0.00     0.016 A 
HETATM    9  C   UNL     1      41.509 -14.786   4.136  1.00  0.00     0.102 A 
HETATM   10  N   UNL     1      40.296 -15.031   3.632  1.00  0.00    -0.174 NA
HETATM   11  N   UNL     1      39.807 -13.844   3.271  1.00  0.00    -0.288 N 
HETATM   12  H   UNL     1      38.862 -13.810   2.896  1.00  0.00     0.188 HD
HETATM   13  C   UNL     1      40.692 -12.823   3.469  1.00  0.00     0.120 A 
BRANCH   9  14
HETATM   14  C   UNL     1      42.293 -15.871   4.719  1.00  0.00     0.072 A 
HETATM   15  C   UNL     1      43.290 -16.515   3.981  1.00  0.00     0.132 A 
HETATM   16  F   UNL     1      43.489 -16.197   2.692  1.00  0.00    -0.205 F 
HETATM   17  C   UNL     1      44.086 -17.514   4.544  1.00  0.00     0.043 A 
HETATM   18  C   UNL     1      43.889 -17.888   5.872  1.00  0.00     0.006 A 
HETATM   19  C   UNL     1      42.890 -17.270   6.621  1.00  0.00     0.043 A 
HETATM   20  C   UNL     1      42.101 -16.272   6.045  1.00  0.00     0.132 A 
HETATM   21  F   UNL     1      41.118 -15.740   6.786  1.00  0.00    -0.205 F 
ENDBRANCH   9  14
ENDBRANCH   7   8
ENDBRANCH   3   7
BRANCH   1  22
HETATM   22  C   UNL     1      42.713  -9.838   8.484  1.00  0.00     0.127 C 
BRANCH  22  23
HETATM   23  N   UNL     1      43.317 -10.249   9.750  1.00  0.00    -0.376 N 
HETATM   24  H   UNL     1      44.143 -10.833   9.709  1.00  0.00     0.161 HD
BRANCH  23  25
HETATM   25  C   UNL     1      42.879  -9.759  10.965  1.00  0.00     0.101 A 
HETATM   26  N   UNL     1      41.720 -10.233  11.460  1.00  0.00    -0.347 N 
HETATM   27  C   UNL     1      41.177  -9.841  12.628  1.00  0.00     0.007 A 
HETATM   28  H   UNL     1      41.226 -10.929  10.911  1.00  0.00     0.167 HD
HETATM   29  C   UNL     1      39.878 -10.442  13.064  1.00  0.00     0.068 C 
HETATM   30  C   UNL     1      41.835  -8.885  13.397  1.00  0.00     0.025 A 
HETATM   31  C   UNL     1      43.032  -8.357  12.939  1.00  0.00     0.006 A 
HETATM   32  C   UNL     1      43.552  -8.790  11.720  1.00  0.00     0.048 A 
ENDBRANCH  23  25
ENDBRANCH  22  23
ENDBRANCH   1  22
TORSDOF 6
ENDMDL
MODEL 9
REMARK VINA RESULT:      -8.4      2.325      3.937
REMARK  6 active torsions:
REMARK  status: ('A' for Active; 'I' for Inactive)
REMARK    1  A    between atoms: C_5  and  N_6 
REMARK    2  A    between atoms: N_6  and  C_7 
REMARK    3  A    between atoms: C_7  and  C_8 
REMARK    4  A    between atoms: N_10  and  C_12 
REMARK    5  A    between atoms: C_12  and  C_13 
REMARK    6  A    between atoms: C_14  and  C_15 
ROOT
HETATM    1  C   UNL     1      44.125 -11.648   7.194  1.00  0.00     0.031 C 
HETATM    2  C   UNL     1      44.477 -13.018   6.606  1.00  0.00     0.241 C 
HETATM    3  N   UNL     1      43.282 -13.396   5.751  1.00  0.00    -0.067 N 
HETATM    4  H   UNL     1      43.610 -13.519   4.784  1.00  0.00     0.280 HD
HETATM    5  C   UNL     1      42.324 -12.230   5.754  1.00  0.00     0.235 C 
HETATM    6  C   UNL     1      43.202 -11.052   6.138  1.00  0.00     0.035 C 
ENDROOT
BRANCH   3   7
HETATM    7  C   UNL     1      42.623 -14.711   6.104  1.00  0.00     0.277 C 
BRANCH   7   8
HETATM    8  C   UNL     1      43.259 -15.896   5.472  1.00  0.00     0.016 A 
HETATM    9  C   UNL     1      42.962 -16.440   4.177  1.00  0.00     0.102 A 
HETATM   10  N   UNL     1      43.715 -17.519   3.941  1.00  0.00    -0.174 NA
HETATM   11  N   UNL     1      44.518 -17.640   4.998  1.00  0.00    -0.288 N 
HETATM   12  H   UNL     1      45.207 -18.389   4.993  1.00  0.00     0.188 HD
HETATM   13  C   UNL     1      44.276 -16.700   5.959  1.00  0.00     0.120 A 
BRANCH   9  14
HETATM   14  C   UNL     1      42.027 -15.962   3.163  1.00  0.00     0.072 A 
HETATM   15  C   UNL     1      42.487 -15.395   1.971  1.00  0.00     0.132 A 
HETATM   16  F   UNL     1      43.801 -15.209   1.774  1.00  0.00    -0.205 F 
HETATM   17  C   UNL     1      41.605 -14.988   0.969  1.00  0.00     0.043 A 
HETATM   18  C   UNL     1      40.232 -15.143   1.150  1.00  0.00     0.006 A 
HETATM   19  C   UNL     1      39.752 -15.691   2.338  1.00  0.00     0.043 A 
HETATM   20  C   UNL     1      40.646 -16.094   3.333  1.00  0.00     0.132 A 
HETATM   21  F   UNL     1      40.139 -16.569   4.480  1.00  0.00    -0.205 F 
ENDBRANCH   9  14
ENDBRANCH   7   8
ENDBRANCH   3   7
BRANCH   1  22
HETATM   22  C   UNL     1      45.373 -10.811   7.500  1.00  0.00     0.127 C 
BRANCH  22  23
HETATM   23  N   UNL     1      45.410 -10.395   8.900  1.00  0.00    -0.376 N 
HETATM   24  H   UNL     1      46.092 -10.837   9.503  1.00  0.00     0.161 HD
BRANCH  23  25
HETATM   25  C   UNL     1      44.648  -9.345   9.373  1.00  0.00     0.101 A 
HETATM   26  N   UNL     1      44.212  -9.400  10.646  1.00  0.00    -0.347 N 
HETATM   27  C   UNL     1      43.460  -8.449  11.233  1.00  0.00     0.007 A 
HETATM   28  H   UNL     1      44.467 -10.215  11.194  1.00  0.00     0.167 HD
HETATM   29  C   UNL     1      43.035  -8.633  12.655  1.00  0.00     0.068 C 
HETATM   30  C   UNL     1      43.094  -7.323  10.500  1.00  0.00     0.025 A 
HETATM   31  C   UNL     1      43.510  -7.211   9.182  1.00  0.00     0.006 A 
HETATM   32  C   UNL     1      44.283  -8.224   8.617  1.00  0.00     0.048 A 
ENDBRANCH  23  25
ENDBRANCH  22  23
ENDBRANCH   1  22
TORSDOF 6
ENDMDL
MODEL 10
REMARK VINA RESULT:      -7.7      2.638      3.817
REMARK  6 active torsions:
REMARK  status: ('A' for Active; 'I' for Inactive)
REMARK    1  A    between atoms: C_5  and  N_6 
REMARK    2  A    between atoms: N_6  and  C_7 
REMARK    3  A    between atoms: C_7  and  C_8 
REMARK    4  A    between atoms: N_10  and  C_12 
REMARK    5  A    between atoms: C_12  and  C_13 
REMARK    6  A    between atoms: C_14  and  C_15 
ROOT
HETATM    1  C   UNL     1      40.650 -10.723   6.885  1.00  0.00     0.031 C 
HETATM    2  C   UNL     1      41.324 -10.681   5.510  1.00  0.00     0.241 C 
HETATM    3  N   UNL     1      40.623 -11.753   4.698  1.00  0.00    -0.067 N 
HETATM    4  H   UNL     1      40.193 -11.300   3.880  1.00  0.00     0.280 HD
HETATM    5  C   UNL     1      39.503 -12.313   5.539  1.00  0.00     0.235 C 
HETATM    6  C   UNL     1      39.246 -11.218   6.560  1.00  0.00     0.035 C 
ENDROOT
BRANCH   3   7
HETATM    7  C   UNL     1      41.524 -12.820   4.117  1.00  0.00     0.277 C 
BRANCH   7   8
HETATM    8  C   UNL     1      40.795 -13.964   3.509  1.00  0.00     0.016 A 
HETATM    9  C   UNL     1      41.001 -15.357   3.790  1.00  0.00     0.102 A 
HETATM   10  N   UNL     1      40.181 -16.108   3.048  1.00  0.00    -0.174 NA
HETATM   11  N   UNL     1      39.423 -15.250   2.364  1.00  0.00    -0.288 N 
HETATM   12  H   UNL     1      38.695 -15.629   1.762  1.00  0.00     0.188 HD
HETATM   13  C   UNL     1      39.761 -13.947   2.589  1.00  0.00     0.120 A 
BRANCH   9  14
HETATM   14  C   UNL     1      41.912 -15.986   4.741  1.00  0.00     0.072 A 
HETATM   15  C   UNL     1      43.132 -16.522   4.320  1.00  0.00     0.132 A 
HETATM   16  F   UNL     1      43.452 -16.535   3.017  1.00  0.00    -0.205 F 
HETATM   17  C   UNL     1      44.038 -17.074   5.227  1.00  0.00     0.043 A 
HETATM   18  C   UNL     1      43.729 -17.101   6.585  1.00  0.00     0.006 A 
HETATM   19  C   UNL     1      42.509 -16.587   7.024  1.00  0.00     0.043 A 
HETATM   20  C   UNL     1      41.612 -16.037   6.105  1.00  0.00     0.132 A 
HETATM   21  F   UNL     1      40.431 -15.600   6.564  1.00  0.00    -0.205 F 
ENDBRANCH   9  14
ENDBRANCH   7   8
ENDBRANCH   3   7
BRANCH   1  22
HETATM   22  C   UNL     1      40.701  -9.366   7.596  1.00  0.00     0.127 C 
BRANCH  22  23
HETATM   23  N   UNL     1      40.643  -9.519   9.048  1.00  0.00    -0.376 N 
HETATM   24  H   UNL     1      39.783  -9.871   9.449  1.00  0.00     0.161 HD
BRANCH  23  25
HETATM   25  C   UNL     1      41.750  -9.328   9.851  1.00  0.00     0.101 A 
HETATM   26  N   UNL     1      41.582  -9.373  11.186  1.00  0.00    -0.347 N 
HETATM   27  C   UNL     1      42.573  -9.200  12.082  1.00  0.00     0.007 A 
HETATM   28  H   UNL     1      40.645  -9.545  11.535  1.00  0.00     0.167 HD
HETATM   29  C   UNL     1      42.253  -9.268  13.541  1.00  0.00     0.068 C 
HETATM   30  C   UNL     1      43.866  -8.960  11.628  1.00  0.00     0.025 A 
HETATM   31  C   UNL     1      44.102  -8.898  10.263  1.00  0.00     0.006 A 
HETATM   32  C   UNL     1      43.043  -9.078   9.374  1.00  0.00     0.048 A 
ENDBRANCH  23  25
ENDBRANCH  22  23
ENDBRANCH   1  22
TORSDOF 6
ENDMDL
