MODEL 1
REMARK VINA RESULT:      -8.4      0.000      0.000
REMARK  5 active torsions:
REMARK  status: ('A' for Active; 'I' for Inactive)
REMARK    1  A    between atoms: C_3  and  O_4 
REMARK    2  A    between atoms: O_4  and  C_5 
REMARK    3  A    between atoms: C_8  and  N_9 
REMARK       I    between atoms: N_9  and  C_10 
REMARK    4  A    between atoms: C_10  and  C_11 
REMARK    5  A    between atoms: C_11  and  C_12 
ROOT
HETATM    1  C   UNL     1      44.323 -17.667   5.032  1.00  0.00     0.004 A 
HETATM    2  C   UNL     1      43.595 -16.533   4.672  1.00  0.00     0.037 A 
HETATM    3  C   UNL     1      42.891 -16.506   3.466  1.00  0.00     0.077 A 
HETATM    4  C   UNL     1      42.889 -17.624   2.629  1.00  0.00     0.059 A 
HETATM    5  C   UNL     1      43.614 -18.765   2.992  1.00  0.00     0.047 A 
HETATM    6  C   UNL     1      43.605 -19.921   2.144  1.00  0.00     0.099 C 
HETATM    7  N   UNL     1      43.599 -20.860   1.462  1.00  0.00    -0.191 NA
HETATM    8  C   UNL     1      44.334 -18.782   4.193  1.00  0.00     0.023 A 
ENDROOT
BRANCH   3   9
HETATM    9  O   UNL     1      42.145 -15.376   3.213  1.00  0.00    -0.311 OA
BRANCH   9  10
HETATM   10  C   UNL     1      42.326 -14.323   4.075  1.00  0.00     0.076 A 
HETATM   11  C   UNL     1      43.202 -13.304   3.714  1.00  0.00     0.039 A 
HETATM   12  C   UNL     1      43.366 -12.195   4.551  1.00  0.00     0.032 A 
HETATM   13  C   UNL     1      42.632 -12.087   5.735  1.00  0.00     0.034 A 
HETATM   14  C   UNL     1      41.729 -13.107   6.070  1.00  0.00     0.032 A 
HETATM   15  C   UNL     1      41.575 -14.224   5.244  1.00  0.00     0.039 A 
BRANCH  13  16
HETATM   16  N   UNL     1      42.722 -10.989   6.619  1.00  0.00    -0.327 N 
HETATM   17  C   UNL     1      43.622 -10.819   7.664  1.00  0.00     0.227 C 
HETATM   18  O   UNL     1      44.442 -11.652   8.042  1.00  0.00    -0.273 OA
HETATM   19  H   UNL     1      42.030 -10.262   6.490  1.00  0.00     0.169 HD
BRANCH  17  20
HETATM   20  C   UNL     1      43.435  -9.468   8.363  1.00  0.00     0.159 C 
BRANCH  20  21
HETATM   21  C   UNL     1      43.385  -9.541   9.861  1.00  0.00     0.017 A 
HETATM   22  N   UNL     1      43.172 -10.714  10.552  1.00  0.00    -0.369 N 
HETATM   23  H   UNL     1      43.069 -11.625  10.113  1.00  0.00     0.165 HD
HETATM   24  C   UNL     1      43.157 -10.465  11.898  1.00  0.00     0.088 A 
HETATM   25  C   UNL     1      43.358  -9.117  12.083  1.00  0.00     0.019 A 
HETATM   26  C   UNL     1      43.501  -8.533  10.802  1.00  0.00     0.027 A 
ENDBRANCH  20  21
ENDBRANCH  17  20
ENDBRANCH  13  16
ENDBRANCH   9  10
ENDBRANCH   3   9
TORSDOF 5
ENDMDL
MODEL 2
REMARK VINA RESULT:      -7.8      5.764      8.104
REMARK  5 active torsions:
REMARK  status: ('A' for Active; 'I' for Inactive)
REMARK    1  A    between atoms: C_3  and  O_4 
REMARK    2  A    between atoms: O_4  and  C_5 
REMARK    3  A    between atoms: C_8  and  N_9 
REMARK       I    between atoms: N_9  and  C_10 
REMARK    4  A    between atoms: C_10  and  C_11 
REMARK    5  A    between atoms: C_11  and  C_12 
ROOT
HETATM    1  C   UNL     1      44.235 -17.448   5.060  1.00  0.00     0.004 A 
HETATM    2  C   UNL     1      43.137 -16.605   4.888  1.00  0.00     0.037 A 
HETATM    3  C   UNL     1      42.245 -16.821   3.836  1.00  0.00     0.077 A 
HETATM    4  C   UNL     1      42.432 -17.901   2.969  1.00  0.00     0.059 A 
HETATM    5  C   UNL     1      43.529 -18.752   3.145  1.00  0.00     0.047 A 
HETATM    6  C   UNL     1      43.718 -19.869   2.267  1.00  0.00     0.099 C 
HETATM    7  N   UNL     1      43.874 -20.776   1.560  1.00  0.00    -0.191 NA
HETATM    8  C   UNL     1      44.432 -18.521   4.190  1.00  0.00     0.023 A 
ENDROOT
BRANCH   3   9
HETATM    9  O   UNL     1      41.152 -15.986   3.771  1.00  0.00    -0.311 OA
BRANCH   9  10
HETATM   10  C   UNL     1      40.996 -15.279   2.605  1.00  0.00     0.076 A 
HETATM   11  C   UNL     1      41.828 -14.188   2.365  1.00  0.00     0.039 A 
HETATM   12  C   UNL     1      41.723 -13.483   1.162  1.00  0.00     0.032 A 
HETATM   13  C   UNL     1      40.809 -13.882   0.183  1.00  0.00     0.034 A 
HETATM   14  C   UNL     1      40.001 -15.003   0.426  1.00  0.00     0.032 A 
HETATM   15  C   UNL     1      40.091 -15.700   1.634  1.00  0.00     0.039 A 
BRANCH  13  16
HETATM   16  N   UNL     1      40.662 -13.239  -1.065  1.00  0.00    -0.327 N 
HETATM   17  C   UNL     1      39.811 -12.185  -1.375  1.00  0.00     0.227 C 
HETATM   18  O   UNL     1      38.979 -11.693  -0.617  1.00  0.00    -0.273 OA
HETATM   19  H   UNL     1      41.218 -13.614  -1.824  1.00  0.00     0.169 HD
BRANCH  17  20
HETATM   20  C   UNL     1      39.977 -11.727  -2.829  1.00  0.00     0.159 C 
BRANCH  20  21
HETATM   21  C   UNL     1      40.444 -10.309  -2.987  1.00  0.00     0.017 A 
HETATM   22  N   UNL     1      40.452  -9.398  -1.954  1.00  0.00    -0.369 N 
HETATM   23  H   UNL     1      40.181  -9.615  -0.998  1.00  0.00     0.165 HD
HETATM   24  C   UNL     1      40.907  -8.188  -2.404  1.00  0.00     0.088 A 
HETATM   25  C   UNL     1      41.192  -8.313  -3.744  1.00  0.00     0.019 A 
HETATM   26  C   UNL     1      40.901  -9.648  -4.114  1.00  0.00     0.027 A 
ENDBRANCH  20  21
ENDBRANCH  17  20
ENDBRANCH  13  16
ENDBRANCH   9  10
ENDBRANCH   3   9
TORSDOF 5
ENDMDL
MODEL 3
REMARK VINA RESULT:      -7.8      1.429      2.150
REMARK  5 active torsions:
REMARK  status: ('A' for Active; 'I' for Inactive)
REMARK    1  A    between atoms: C_3  and  O_4 
REMARK    2  A    between atoms: O_4  and  C_5 
REMARK    3  A    between atoms: C_8  and  N_9 
REMARK       I    between atoms: N_9  and  C_10 
REMARK    4  A    between atoms: C_10  and  C_11 
REMARK    5  A    between atoms: C_11  and  C_12 
ROOT
HETATM    1  C   UNL     1      43.146 -16.400   1.523  1.00  0.00     0.004 A 
HETATM    2  C   UNL     1      42.210 -15.411   1.828  1.00  0.00     0.037 A 
HETATM    3  C   UNL     1      41.662 -15.336   3.110  1.00  0.00     0.077 A 
HETATM    4  C   UNL     1      42.072 -16.232   4.101  1.00  0.00     0.059 A 
HETATM    5  C   UNL     1      43.016 -17.219   3.798  1.00  0.00     0.047 A 
HETATM    6  C   UNL     1      43.450 -18.132   4.815  1.00  0.00     0.099 C 
HETATM    7  N   UNL     1      43.807 -18.872   5.635  1.00  0.00    -0.191 NA
HETATM    8  C   UNL     1      43.549 -17.304   2.506  1.00  0.00     0.023 A 
ENDROOT
BRANCH   3   9
HETATM    9  O   UNL     1      40.794 -14.294   3.350  1.00  0.00    -0.311 OA
BRANCH   9  10
HETATM   10  C   UNL     1      41.223 -13.339   4.238  1.00  0.00     0.076 A 
HETATM   11  C   UNL     1      40.427 -13.042   5.341  1.00  0.00     0.039 A 
HETATM   12  C   UNL     1      40.865 -12.110   6.286  1.00  0.00     0.032 A 
HETATM   13  C   UNL     1      42.113 -11.494   6.151  1.00  0.00     0.034 A 
HETATM   14  C   UNL     1      42.918 -11.828   5.051  1.00  0.00     0.032 A 
HETATM   15  C   UNL     1      42.476 -12.747   4.095  1.00  0.00     0.039 A 
BRANCH  13  16
HETATM   16  N   UNL     1      42.636 -10.564   7.074  1.00  0.00    -0.327 N 
HETATM   17  C   UNL     1      43.686 -10.757   7.964  1.00  0.00     0.227 C 
HETATM   18  O   UNL     1      44.280 -11.816   8.146  1.00  0.00    -0.273 OA
HETATM   19  H   UNL     1      42.168  -9.666   7.109  1.00  0.00     0.169 HD
BRANCH  17  20
HETATM   20  C   UNL     1      43.993  -9.489   8.768  1.00  0.00     0.159 C 
BRANCH  20  21
HETATM   21  C   UNL     1      43.595  -9.554  10.213  1.00  0.00     0.017 A 
HETATM   22  N   UNL     1      43.142 -10.705  10.819  1.00  0.00    -0.369 N 
HETATM   23  H   UNL     1      43.075 -11.607  10.355  1.00  0.00     0.165 HD
HETATM   24  C   UNL     1      42.837 -10.452  12.129  1.00  0.00     0.088 A 
HETATM   25  C   UNL     1      43.089  -9.123  12.375  1.00  0.00     0.019 A 
HETATM   26  C   UNL     1      43.566  -8.554  11.170  1.00  0.00     0.027 A 
ENDBRANCH  20  21
ENDBRANCH  17  20
ENDBRANCH  13  16
ENDBRANCH   9  10
ENDBRANCH   3   9
TORSDOF 5
ENDMDL
MODEL 4
REMARK VINA RESULT:      -7.7      5.712      8.039
REMARK  5 active torsions:
REMARK  status: ('A' for Active; 'I' for Inactive)
REMARK    1  A    between atoms: C_3  and  O_4 
REMARK    2  A    between atoms: O_4  and  C_5 
REMARK    3  A    between atoms: C_8  and  N_9 
REMARK       I    between atoms: N_9  and  C_10 
REMARK    4  A    between atoms: C_10  and  C_11 
REMARK    5  A    between atoms: C_11  and  C_12 
ROOT
HETATM    1  C   UNL     1      43.720 -19.234   6.079  1.00  0.00     0.004 A 
HETATM    2  C   UNL     1      43.472 -17.870   5.926  1.00  0.00     0.037 A 
HETATM    3  C   UNL     1      43.392 -17.312   4.648  1.00  0.00     0.077 A 
HETATM    4  C   UNL     1      43.530 -18.122   3.518  1.00  0.00     0.059 A 
HETATM    5  C   UNL     1      43.772 -19.492   3.671  1.00  0.00     0.047 A 
HETATM    6  C   UNL     1      43.901 -20.331   2.516  1.00  0.00     0.099 C 
HETATM    7  N   UNL     1      44.004 -21.015   1.584  1.00  0.00    -0.191 NA
HETATM    8  C   UNL     1      43.871 -20.045   4.954  1.00  0.00     0.023 A 
ENDROOT
BRANCH   3   9
HETATM    9  O   UNL     1      43.080 -15.972   4.579  1.00  0.00    -0.311 OA
BRANCH   9  10
HETATM   10  C   UNL     1      42.335 -15.577   3.495  1.00  0.00     0.076 A 
HETATM   11  C   UNL     1      42.945 -14.816   2.503  1.00  0.00     0.039 A 
HETATM   12  C   UNL     1      42.222 -14.444   1.365  1.00  0.00     0.032 A 
HETATM   13  C   UNL     1      40.897 -14.857   1.201  1.00  0.00     0.034 A 
HETATM   14  C   UNL     1      40.305 -15.652   2.195  1.00  0.00     0.032 A 
HETATM   15  C   UNL     1      41.021 -16.011   3.341  1.00  0.00     0.039 A 
BRANCH  13  16
HETATM   16  N   UNL     1      40.110 -14.545   0.071  1.00  0.00    -0.327 N 
HETATM   17  C   UNL     1      39.468 -13.344  -0.204  1.00  0.00     0.227 C 
HETATM   18  O   UNL     1      39.418 -12.374   0.548  1.00  0.00    -0.273 OA
HETATM   19  H   UNL     1      39.975 -15.297  -0.594  1.00  0.00     0.169 HD
BRANCH  17  20
HETATM   20  C   UNL     1      38.751 -13.377  -1.559  1.00  0.00     0.159 C 
BRANCH  20  21
HETATM   21  C   UNL     1      38.411 -12.027  -2.119  1.00  0.00     0.017 A 
HETATM   22  N   UNL     1      37.279 -11.327  -1.763  1.00  0.00    -0.369 N 
HETATM   23  H   UNL     1      36.605 -11.644  -1.071  1.00  0.00     0.165 HD
HETATM   24  C   UNL     1      37.228 -10.144  -2.451  1.00  0.00     0.088 A 
HETATM   25  C   UNL     1      38.335 -10.078  -3.264  1.00  0.00     0.019 A 
HETATM   26  C   UNL     1      39.081 -11.263  -3.058  1.00  0.00     0.027 A 
ENDBRANCH  20  21
ENDBRANCH  17  20
ENDBRANCH  13  16
ENDBRANCH   9  10
ENDBRANCH   3   9
TORSDOF 5
ENDMDL
MODEL 5
REMARK VINA RESULT:      -7.7      2.211      9.761
REMARK  5 active torsions:
REMARK  status: ('A' for Active; 'I' for Inactive)
REMARK    1  A    between atoms: C_3  and  O_4 
REMARK    2  A    between atoms: O_4  and  C_5 
REMARK    3  A    between atoms: C_8  and  N_9 
REMARK       I    between atoms: N_9  and  C_10 
REMARK    4  A    between atoms: C_10  and  C_11 
REMARK    5  A    between atoms: C_11  and  C_12 
ROOT
HETATM    1  C   UNL     1      43.236 -10.773  12.150  1.00  0.00     0.004 A 
HETATM    2  C   UNL     1      44.025 -10.605  11.012  1.00  0.00     0.037 A 
HETATM    3  C   UNL     1      44.248  -9.327  10.497  1.00  0.00     0.077 A 
HETATM    4  C   UNL     1      43.709  -8.208  11.136  1.00  0.00     0.059 A 
HETATM    5  C   UNL     1      42.924  -8.375  12.283  1.00  0.00     0.047 A 
HETATM    6  C   UNL     1      42.378  -7.230  12.951  1.00  0.00     0.099 C 
HETATM    7  N   UNL     1      41.936  -6.306  13.498  1.00  0.00    -0.191 NA
HETATM    8  C   UNL     1      42.685  -9.659  12.786  1.00  0.00     0.023 A 
ENDROOT
BRANCH   3   9
HETATM    9  O   UNL     1      45.089  -9.238   9.410  1.00  0.00    -0.311 OA
BRANCH   9  10
HETATM   10  C   UNL     1      44.740  -9.982   8.310  1.00  0.00     0.076 A 
HETATM   11  C   UNL     1      43.501  -9.761   7.715  1.00  0.00     0.039 A 
HETATM   12  C   UNL     1      43.144 -10.471   6.565  1.00  0.00     0.032 A 
HETATM   13  C   UNL     1      44.034 -11.379   5.986  1.00  0.00     0.034 A 
HETATM   14  C   UNL     1      45.292 -11.568   6.578  1.00  0.00     0.032 A 
HETATM   15  C   UNL     1      45.646 -10.873   7.739  1.00  0.00     0.039 A 
BRANCH  13  16
HETATM   16  N   UNL     1      43.757 -12.114   4.812  1.00  0.00    -0.327 N 
HETATM   17  C   UNL     1      42.898 -13.197   4.678  1.00  0.00     0.227 C 
HETATM   18  O   UNL     1      42.296 -13.748   5.596  1.00  0.00    -0.273 OA
HETATM   19  H   UNL     1      44.271 -11.833   3.985  1.00  0.00     0.169 HD
BRANCH  17  20
HETATM   20  C   UNL     1      42.827 -13.693   3.229  1.00  0.00     0.159 C 
BRANCH  20  21
HETATM   21  C   UNL     1      43.026 -15.171   3.064  1.00  0.00     0.017 A 
HETATM   22  N   UNL     1      43.176 -16.034   4.127  1.00  0.00    -0.369 N 
HETATM   23  H   UNL     1      43.129 -15.754   5.103  1.00  0.00     0.165 HD
HETATM   24  C   UNL     1      43.361 -17.311   3.667  1.00  0.00     0.088 A 
HETATM   25  C   UNL     1      43.335 -17.274   2.292  1.00  0.00     0.019 A 
HETATM   26  C   UNL     1      43.125 -15.928   1.910  1.00  0.00     0.027 A 
ENDBRANCH  20  21
ENDBRANCH  17  20
ENDBRANCH  13  16
ENDBRANCH   9  10
ENDBRANCH   3   9
TORSDOF 5
ENDMDL
MODEL 6
REMARK VINA RESULT:      -7.4      1.719      1.981
REMARK  5 active torsions:
REMARK  status: ('A' for Active; 'I' for Inactive)
REMARK    1  A    between atoms: C_3  and  O_4 
REMARK    2  A    between atoms: O_4  and  C_5 
REMARK    3  A    between atoms: C_8  and  N_9 
REMARK       I    between atoms: N_9  and  C_10 
REMARK    4  A    between atoms: C_10  and  C_11 
REMARK    5  A    between atoms: C_11  and  C_12 
ROOT
HETATM    1  C   UNL     1      44.291 -17.577   4.972  1.00  0.00     0.004 A 
HETATM    2  C   UNL     1      43.530 -16.473   4.588  1.00  0.00     0.037 A 
HETATM    3  C   UNL     1      42.821 -16.495   3.384  1.00  0.00     0.077 A 
HETATM    4  C   UNL     1      42.847 -17.635   2.576  1.00  0.00     0.059 A 
HETATM    5  C   UNL     1      43.605 -18.745   2.964  1.00  0.00     0.047 A 
HETATM    6  C   UNL     1      43.625 -19.922   2.146  1.00  0.00     0.099 C 
HETATM    7  N   UNL     1      43.643 -20.877   1.488  1.00  0.00    -0.191 NA
HETATM    8  C   UNL     1      44.330 -18.712   4.162  1.00  0.00     0.023 A 
ENDROOT
BRANCH   3   9
HETATM    9  O   UNL     1      42.042 -15.394   3.106  1.00  0.00    -0.311 OA
BRANCH   9  10
HETATM   10  C   UNL     1      42.122 -14.353   3.998  1.00  0.00     0.076 A 
HETATM   11  C   UNL     1      41.359 -14.406   5.161  1.00  0.00     0.039 A 
HETATM   12  C   UNL     1      41.461 -13.383   6.109  1.00  0.00     0.032 A 
HETATM   13  C   UNL     1      42.347 -12.320   5.913  1.00  0.00     0.034 A 
HETATM   14  C   UNL     1      43.132 -12.297   4.751  1.00  0.00     0.032 A 
HETATM   15  C   UNL     1      43.021 -13.310   3.793  1.00  0.00     0.039 A 
BRANCH  13  16
HETATM   16  N   UNL     1      42.525 -11.264   6.834  1.00  0.00    -0.327 N 
HETATM   17  C   UNL     1      41.771 -10.102   6.940  1.00  0.00     0.227 C 
HETATM   18  O   UNL     1      40.866  -9.767   6.181  1.00  0.00    -0.273 OA
HETATM   19  H   UNL     1      43.312 -11.357   7.464  1.00  0.00     0.169 HD
BRANCH  17  20
HETATM   20  C   UNL     1      42.245  -9.219   8.100  1.00  0.00     0.159 C 
BRANCH  20  21
HETATM   21  C   UNL     1      41.364  -9.260   9.315  1.00  0.00     0.017 A 
HETATM   22  N   UNL     1      40.117  -9.844   9.323  1.00  0.00    -0.369 N 
HETATM   23  H   UNL     1      39.705 -10.324   8.527  1.00  0.00     0.165 HD
HETATM   24  C   UNL     1      39.546  -9.706  10.560  1.00  0.00     0.088 A 
HETATM   25  C   UNL     1      40.430  -9.021  11.361  1.00  0.00     0.019 A 
HETATM   26  C   UNL     1      41.575  -8.739  10.579  1.00  0.00     0.027 A 
ENDBRANCH  20  21
ENDBRANCH  17  20
ENDBRANCH  13  16
ENDBRANCH   9  10
ENDBRANCH   3   9
TORSDOF 5
ENDMDL
MODEL 7
REMARK VINA RESULT:      -7.4      5.481      9.114
REMARK  5 active torsions:
REMARK  status: ('A' for Active; 'I' for Inactive)
REMARK    1  A    between atoms: C_3  and  O_4 
REMARK    2  A    between atoms: O_4  and  C_5 
REMARK    3  A    between atoms: C_8  and  N_9 
REMARK       I    between atoms: N_9  and  C_10 
REMARK    4  A    between atoms: C_10  and  C_11 
REMARK    5  A    between atoms: C_11  and  C_12 
ROOT
HETATM    1  C   UNL     1      42.285 -16.534   6.791  1.00  0.00     0.004 A 
HETATM    2  C   UNL     1      42.379 -16.731   5.413  1.00  0.00     0.037 A 
HETATM    3  C   UNL     1      42.876 -15.716   4.593  1.00  0.00     0.077 A 
HETATM    4  C   UNL     1      43.310 -14.511   5.152  1.00  0.00     0.059 A 
HETATM    5  C   UNL     1      43.222 -14.316   6.535  1.00  0.00     0.047 A 
HETATM    6  C   UNL     1      43.677 -13.087   7.116  1.00  0.00     0.099 C 
HETATM    7  N   UNL     1      44.047 -12.095   7.592  1.00  0.00    -0.191 NA
HETATM    8  C   UNL     1      42.705 -15.328   7.352  1.00  0.00     0.023 A 
ENDROOT
BRANCH   3   9
HETATM    9  O   UNL     1      42.998 -16.009   3.253  1.00  0.00    -0.311 OA
BRANCH   9  10
HETATM   10  C   UNL     1      42.035 -15.485   2.426  1.00  0.00     0.076 A 
HETATM   11  C   UNL     1      42.242 -14.226   1.869  1.00  0.00     0.039 A 
HETATM   12  C   UNL     1      41.300 -13.692   0.984  1.00  0.00     0.032 A 
HETATM   13  C   UNL     1      40.165 -14.426   0.629  1.00  0.00     0.034 A 
HETATM   14  C   UNL     1      39.987 -15.707   1.174  1.00  0.00     0.032 A 
HETATM   15  C   UNL     1      40.918 -16.237   2.072  1.00  0.00     0.039 A 
BRANCH  13  16
HETATM   16  N   UNL     1      39.183 -13.968  -0.276  1.00  0.00    -0.327 N 
HETATM   17  C   UNL     1      39.262 -13.936  -1.663  1.00  0.00     0.227 C 
HETATM   18  O   UNL     1      40.252 -14.232  -2.327  1.00  0.00    -0.273 OA
HETATM   19  H   UNL     1      38.340 -13.591   0.141  1.00  0.00     0.169 HD
BRANCH  17  20
HETATM   20  C   UNL     1      37.967 -13.415  -2.297  1.00  0.00     0.159 C 
BRANCH  20  21
HETATM   21  C   UNL     1      37.983 -11.954  -2.638  1.00  0.00     0.017 A 
HETATM   22  N   UNL     1      39.143 -11.242  -2.852  1.00  0.00    -0.369 N 
HETATM   23  H   UNL     1      40.075 -11.649  -2.834  1.00  0.00     0.165 HD
HETATM   24  C   UNL     1      38.843  -9.934  -3.120  1.00  0.00     0.088 A 
HETATM   25  C   UNL     1      37.476  -9.794  -3.076  1.00  0.00     0.019 A 
HETATM   26  C   UNL     1      36.932 -11.064  -2.771  1.00  0.00     0.027 A 
ENDBRANCH  20  21
ENDBRANCH  17  20
ENDBRANCH  13  16
ENDBRANCH   9  10
ENDBRANCH   3   9
TORSDOF 5
ENDMDL
MODEL 8
REMARK VINA RESULT:      -7.3      1.814      9.462
REMARK  5 active torsions:
REMARK  status: ('A' for Active; 'I' for Inactive)
REMARK    1  A    between atoms: C_3  and  O_4 
REMARK    2  A    between atoms: O_4  and  C_5 
REMARK    3  A    between atoms: C_8  and  N_9 
REMARK       I    between atoms: N_9  and  C_10 
REMARK    4  A    between atoms: C_10  and  C_11 
REMARK    5  A    between atoms: C_11  and  C_12 
ROOT
HETATM    1  C   UNL     1      43.148  -6.750   9.736  1.00  0.00     0.004 A 
HETATM    2  C   UNL     1      43.930  -7.408   8.786  1.00  0.00     0.037 A 
HETATM    3  C   UNL     1      44.337  -8.725   9.005  1.00  0.00     0.077 A 
HETATM    4  C   UNL     1      43.938  -9.400  10.161  1.00  0.00     0.059 A 
HETATM    5  C   UNL     1      43.147  -8.744  11.111  1.00  0.00     0.047 A 
HETATM    6  C   UNL     1      42.722  -9.435  12.293  1.00  0.00     0.099 C 
HETATM    7  N   UNL     1      42.374  -9.991  13.250  1.00  0.00    -0.191 NA
HETATM    8  C   UNL     1      42.756  -7.416  10.898  1.00  0.00     0.023 A 
ENDROOT
BRANCH   3   9
HETATM    9  O   UNL     1      45.052  -9.326   7.993  1.00  0.00    -0.311 OA
BRANCH   9  10
HETATM   10  C   UNL     1      44.446 -10.388   7.368  1.00  0.00     0.076 A 
HETATM   11  C   UNL     1      45.125 -11.600   7.294  1.00  0.00     0.039 A 
HETATM   12  C   UNL     1      44.509 -12.710   6.708  1.00  0.00     0.032 A 
HETATM   13  C   UNL     1      43.202 -12.621   6.222  1.00  0.00     0.034 A 
HETATM   14  C   UNL     1      42.518 -11.401   6.333  1.00  0.00     0.032 A 
HETATM   15  C   UNL     1      43.137 -10.285   6.903  1.00  0.00     0.039 A 
BRANCH  13  16
HETATM   16  N   UNL     1      42.503 -13.701   5.640  1.00  0.00    -0.327 N 
HETATM   17  C   UNL     1      42.458 -14.052   4.296  1.00  0.00     0.227 C 
HETATM   18  O   UNL     1      42.963 -13.414   3.376  1.00  0.00    -0.273 OA
HETATM   19  H   UNL     1      41.948 -14.261   6.276  1.00  0.00     0.169 HD
BRANCH  17  20
HETATM   20  C   UNL     1      41.631 -15.321   4.065  1.00  0.00     0.159 C 
BRANCH  20  21
HETATM   21  C   UNL     1      42.436 -16.531   3.689  1.00  0.00     0.017 A 
HETATM   22  N   UNL     1      43.199 -17.239   4.592  1.00  0.00    -0.369 N 
HETATM   23  H   UNL     1      43.252 -17.028   5.585  1.00  0.00     0.165 HD
HETATM   24  C   UNL     1      43.833 -18.272   3.955  1.00  0.00     0.088 A 
HETATM   25  C   UNL     1      43.483 -18.231   2.626  1.00  0.00     0.019 A 
HETATM   26  C   UNL     1      42.603 -17.135   2.456  1.00  0.00     0.027 A 
ENDBRANCH  20  21
ENDBRANCH  17  20
ENDBRANCH  13  16
ENDBRANCH   9  10
ENDBRANCH   3   9
TORSDOF 5
ENDMDL
MODEL 9
REMARK VINA RESULT:      -7.2      2.547      9.226
REMARK  5 active torsions:
REMARK  status: ('A' for Active; 'I' for Inactive)
REMARK    1  A    between atoms: C_3  and  O_4 
REMARK    2  A    between atoms: O_4  and  C_5 
REMARK    3  A    between atoms: C_8  and  N_9 
REMARK       I    between atoms: N_9  and  C_10 
REMARK    4  A    between atoms: C_10  and  C_11 
REMARK    5  A    between atoms: C_11  and  C_12 
ROOT
HETATM    1  C   UNL     1      44.089  -7.757   9.201  1.00  0.00     0.004 A 
HETATM    2  C   UNL     1      44.758  -8.809   8.575  1.00  0.00     0.037 A 
HETATM    3  C   UNL     1      44.847 -10.055   9.200  1.00  0.00     0.077 A 
HETATM    4  C   UNL     1      44.240 -10.262  10.441  1.00  0.00     0.059 A 
HETATM    5  C   UNL     1      43.563  -9.209  11.068  1.00  0.00     0.047 A 
HETATM    6  C   UNL     1      42.927  -9.418  12.335  1.00  0.00     0.099 C 
HETATM    7  N   UNL     1      42.409  -9.584  13.360  1.00  0.00    -0.191 NA
HETATM    8  C   UNL     1      43.493  -7.956  10.447  1.00  0.00     0.023 A 
ENDROOT
BRANCH   3   9
HETATM    9  O   UNL     1      45.466 -11.059   8.489  1.00  0.00    -0.311 OA
BRANCH   9  10
HETATM   10  C   UNL     1      44.841 -11.462   7.335  1.00  0.00     0.076 A 
HETATM   11  C   UNL     1      45.458 -11.209   6.114  1.00  0.00     0.039 A 
HETATM   12  C   UNL     1      44.866 -11.654   4.928  1.00  0.00     0.032 A 
HETATM   13  C   UNL     1      43.672 -12.379   4.960  1.00  0.00     0.034 A 
HETATM   14  C   UNL     1      43.078 -12.654   6.201  1.00  0.00     0.032 A 
HETATM   15  C   UNL     1      43.659 -12.196   7.388  1.00  0.00     0.039 A 
BRANCH  13  16
HETATM   16  N   UNL     1      43.026 -12.884   3.810  1.00  0.00    -0.327 N 
HETATM   17  C   UNL     1      42.442 -12.154   2.782  1.00  0.00     0.227 C 
HETATM   18  O   UNL     1      42.321 -10.932   2.754  1.00  0.00    -0.273 OA
HETATM   19  H   UNL     1      42.957 -13.892   3.750  1.00  0.00     0.169 HD
BRANCH  17  20
HETATM   20  C   UNL     1      41.887 -13.064   1.681  1.00  0.00     0.159 C 
BRANCH  20  21
HETATM   21  C   UNL     1      42.173 -14.525   1.874  1.00  0.00     0.017 A 
HETATM   22  N   UNL     1      43.354 -15.119   1.490  1.00  0.00    -0.369 N 
HETATM   23  H   UNL     1      44.139 -14.619   1.082  1.00  0.00     0.165 HD
HETATM   24  C   UNL     1      43.315 -16.458   1.773  1.00  0.00     0.088 A 
HETATM   25  C   UNL     1      42.095 -16.736   2.343  1.00  0.00     0.019 A 
HETATM   26  C   UNL     1      41.373 -15.520   2.407  1.00  0.00     0.027 A 
ENDBRANCH  20  21
ENDBRANCH  17  20
ENDBRANCH  13  16
ENDBRANCH   9  10
ENDBRANCH   3   9
TORSDOF 5
ENDMDL
MODEL 10
REMARK VINA RESULT:      -7.2      5.538      7.449
REMARK  5 active torsions:
REMARK  status: ('A' for Active; 'I' for Inactive)
REMARK    1  A    between atoms: C_3  and  O_4 
REMARK    2  A    between atoms: O_4  and  C_5 
REMARK    3  A    between atoms: C_8  and  N_9 
REMARK       I    between atoms: N_9  and  C_10 
REMARK    4  A    between atoms: C_10  and  C_11 
REMARK    5  A    between atoms: C_11  and  C_12 
ROOT
HETATM    1  C   UNL     1      43.032 -15.665   4.546  1.00  0.00     0.004 A 
HETATM    2  C   UNL     1      41.829 -15.191   4.022  1.00  0.00     0.037 A 
HETATM    3  C   UNL     1      41.175 -15.903   3.014  1.00  0.00     0.077 A 
HETATM    4  C   UNL     1      41.706 -17.108   2.548  1.00  0.00     0.059 A 
HETATM    5  C   UNL     1      42.909 -17.588   3.078  1.00  0.00     0.047 A 
HETATM    6  C   UNL     1      43.453 -18.831   2.613  1.00  0.00     0.099 C 
HETATM    7  N   UNL     1      43.895 -19.837   2.242  1.00  0.00    -0.191 NA
HETATM    8  C   UNL     1      43.573 -16.862   4.074  1.00  0.00     0.023 A 
ENDROOT
BRANCH   3   9
HETATM    9  O   UNL     1      39.961 -15.405   2.595  1.00  0.00    -0.311 OA
BRANCH   9  10
HETATM   10  C   UNL     1      40.007 -14.296   1.786  1.00  0.00     0.076 A 
HETATM   11  C   UNL     1      39.497 -13.093   2.267  1.00  0.00     0.039 A 
HETATM   12  C   UNL     1      39.578 -11.939   1.481  1.00  0.00     0.032 A 
HETATM   13  C   UNL     1      40.194 -11.975   0.228  1.00  0.00     0.034 A 
HETATM   14  C   UNL     1      40.732 -13.188  -0.229  1.00  0.00     0.032 A 
HETATM   15  C   UNL     1      40.638 -14.348   0.546  1.00  0.00     0.039 A 
BRANCH  13  16
HETATM   16  N   UNL     1      40.338 -10.849  -0.612  1.00  0.00    -0.327 N 
HETATM   17  C   UNL     1      41.312  -9.861  -0.539  1.00  0.00     0.227 C 
HETATM   18  O   UNL     1      42.169  -9.768   0.335  1.00  0.00    -0.273 OA
HETATM   19  H   UNL     1      39.628 -10.738  -1.326  1.00  0.00     0.169 HD
BRANCH  17  20
HETATM   20  C   UNL     1      41.162  -8.829  -1.663  1.00  0.00     0.159 C 
BRANCH  20  21
HETATM   21  C   UNL     1      42.164  -7.712  -1.621  1.00  0.00     0.017 A 
HETATM   22  N   UNL     1      42.480  -7.025  -0.470  1.00  0.00    -0.369 N 
HETATM   23  H   UNL     1      42.096  -7.238   0.447  1.00  0.00     0.165 HD
HETATM   24  C   UNL     1      43.404  -6.053  -0.747  1.00  0.00     0.088 A 
HETATM   25  C   UNL     1      43.685  -6.106  -2.092  1.00  0.00     0.019 A 
HETATM   26  C   UNL     1      42.905  -7.150  -2.645  1.00  0.00     0.027 A 
ENDBRANCH  20  21
ENDBRANCH  17  20
ENDBRANCH  13  16
ENDBRANCH   9  10
ENDBRANCH   3   9
TORSDOF 5
ENDMDL
