MODEL 1
REMARK VINA RESULT:      -8.7      0.000      0.000
REMARK  9 active torsions:
REMARK  status: ('A' for Active; 'I' for Inactive)
REMARK    1  A    between atoms: C_4  and  C_5 
REMARK    2  A    between atoms: C_11  and  C_12 
REMARK    3  A    between atoms: C_15  and  C_16 
REMARK    4  A    between atoms: C_16  and  N_17 
REMARK    5  A    between atoms: N_17  and  C_18 
REMARK    6  A    between atoms: C_18  and  N_19 
REMARK    7  A    between atoms: N_19  and  C_20 
REMARK    8  A    between atoms: C_22  and  C_23 
REMARK    9  A    between atoms: C_23  and  O_24 
ROOT
HETATM    1  C   UNL     1      42.387 -15.123   2.568  1.00  0.00     0.067 C 
HETATM    2  C   UNL     1      41.843 -16.469   3.123  1.00  0.00     0.001 C 
HETATM    3  C   UNL     1      40.722 -16.229   4.161  1.00  0.00     0.040 C 
HETATM    4  C   UNL     1      41.269 -15.476   5.384  1.00  0.00     0.206 C 
HETATM    5  N   UNL     1      42.692 -15.017   5.046  1.00  0.00    -0.065 N 
HETATM    6  H   UNL     1      43.028 -14.413   5.810  1.00  0.00     0.280 HD
HETATM    7  C   UNL     1      42.772 -14.216   3.757  1.00  0.00     0.246 C 
HETATM    8  C   UNL     1      43.011 -17.162   3.865  1.00  0.00     0.033 C 
HETATM    9  C   UNL     1      43.592 -16.236   4.941  1.00  0.00     0.236 C 
ENDROOT
BRANCH   4  10
HETATM   10  C   UNL     1      40.385 -14.331   5.918  1.00  0.00     0.155 C 
BRANCH  10  11
HETATM   11  N   UNL     1      41.115 -13.166   6.404  1.00  0.00    -0.365 N 
HETATM   12  H   UNL     1      42.073 -13.317   6.699  1.00  0.00     0.161 HD
BRANCH  11  13
HETATM   13  C   UNL     1      40.872 -11.867   6.043  1.00  0.00     0.172 C 
HETATM   14  S   UNL     1      39.367 -11.150   6.113  1.00  0.00    -0.041 SA
BRANCH  13  15
HETATM   15  N   UNL     1      41.969 -11.108   5.734  1.00  0.00    -0.333 N 
HETATM   16  H   UNL     1      41.866 -10.549   4.890  1.00  0.00     0.168 HD
BRANCH  15  17
HETATM   17  C   UNL     1      43.250 -11.080   6.332  1.00  0.00     0.035 A 
HETATM   18  C   UNL     1      43.451 -10.788   7.683  1.00  0.00     0.047 A 
HETATM   19  C   UNL     1      44.742 -10.714   8.224  1.00  0.00     0.041 A 
HETATM   20  C   UNL     1      45.845 -11.001   7.421  1.00  0.00     0.018 A 
HETATM   21  C   UNL     1      45.648 -11.359   6.084  1.00  0.00     0.003 A 
HETATM   22  C   UNL     1      44.356 -11.402   5.545  1.00  0.00     0.029 A 
BRANCH  19  23
HETATM   23  C   UNL     1      44.853 -10.282   9.639  1.00  0.00     0.293 C 
HETATM   24  O   UNL     1      45.509  -9.305   9.976  1.00  0.00    -0.259 OA
BRANCH  23  25
HETATM   25  O   UNL     1      44.133 -11.092  10.447  1.00  0.00    -0.323 OA
HETATM   26  C   UNL     1      43.420 -10.402  11.476  1.00  0.00     0.213 C 
ENDBRANCH  23  25
ENDBRANCH  19  23
ENDBRANCH  15  17
ENDBRANCH  13  15
ENDBRANCH  11  13
ENDBRANCH  10  11
ENDBRANCH   4  10
BRANCH   1  27
HETATM   27  C   UNL     1      41.490 -14.434   1.574  1.00  0.00     0.038 A 
HETATM   28  N   UNL     1      41.446 -13.063   1.417  1.00  0.00    -0.277 N 
HETATM   29  C   UNL     1      42.209 -12.048   2.110  1.00  0.00     0.179 C 
HETATM   30  N   UNL     1      40.572 -12.659   0.488  1.00  0.00    -0.172 NA
HETATM   31  C   UNL     1      40.110 -13.785  -0.063  1.00  0.00     0.096 A 
HETATM   32  C   UNL     1      40.637 -14.919   0.596  1.00  0.00     0.062 A 
BRANCH  31  33
HETATM   33  C   UNL     1      39.179 -13.769  -1.238  1.00  0.00     0.035 A 
HETATM   34  S   UNL     1      37.958 -12.601  -1.492  1.00  0.00    -0.100 SA
HETATM   35  C   UNL     1      37.430 -13.373  -2.926  1.00  0.00     0.050 A 
HETATM   36  C   UNL     1      38.176 -14.496  -3.212  1.00  0.00     0.008 A 
HETATM   37  C   UNL     1      39.194 -14.719  -2.239  1.00  0.00     0.022 A 
ENDBRANCH  31  33
ENDBRANCH   1  27
TORSDOF 9
ENDMDL
MODEL 2
REMARK VINA RESULT:      -8.7      4.138      8.277
REMARK  9 active torsions:
REMARK  status: ('A' for Active; 'I' for Inactive)
REMARK    1  A    between atoms: C_4  and  C_5 
REMARK    2  A    between atoms: C_11  and  C_12 
REMARK    3  A    between atoms: C_15  and  C_16 
REMARK    4  A    between atoms: C_16  and  N_17 
REMARK    5  A    between atoms: N_17  and  C_18 
REMARK    6  A    between atoms: C_18  and  N_19 
REMARK    7  A    between atoms: N_19  and  C_20 
REMARK    8  A    between atoms: C_22  and  C_23 
REMARK    9  A    between atoms: C_23  and  O_24 
ROOT
HETATM    1  C   UNL     1      42.137 -13.687   3.544  1.00  0.00     0.067 C 
HETATM    2  C   UNL     1      40.611 -13.547   3.798  1.00  0.00     0.001 C 
HETATM    3  C   UNL     1      39.795 -14.220   2.670  1.00  0.00     0.040 C 
HETATM    4  C   UNL     1      40.049 -13.520   1.326  1.00  0.00     0.206 C 
HETATM    5  N   UNL     1      41.208 -12.537   1.529  1.00  0.00    -0.065 N 
HETATM    6  H   UNL     1      41.465 -12.146   0.612  1.00  0.00     0.280 HD
HETATM    7  C   UNL     1      42.449 -13.189   2.116  1.00  0.00     0.246 C 
HETATM    8  C   UNL     1      40.278 -12.036   3.762  1.00  0.00     0.033 C 
HETATM    9  C   UNL     1      40.747 -11.413   2.441  1.00  0.00     0.236 C 
ENDROOT
BRANCH   4  10
HETATM   10  C   UNL     1      40.262 -14.450   0.114  1.00  0.00     0.155 C 
BRANCH  10  11
HETATM   11  N   UNL     1      39.174 -14.453  -0.857  1.00  0.00    -0.365 N 
HETATM   12  H   UNL     1      38.237 -14.312  -0.494  1.00  0.00     0.161 HD
BRANCH  11  13
HETATM   13  C   UNL     1      39.286 -14.109  -2.178  1.00  0.00     0.172 C 
HETATM   14  S   UNL     1      38.304 -14.717  -3.382  1.00  0.00    -0.041 SA
BRANCH  13  15
HETATM   15  N   UNL     1      40.179 -13.114  -2.472  1.00  0.00    -0.333 N 
HETATM   16  H   UNL     1      41.108 -13.446  -2.719  1.00  0.00     0.168 HD
BRANCH  15  17
HETATM   17  C   UNL     1      40.042 -11.710  -2.362  1.00  0.00     0.035 A 
HETATM   18  C   UNL     1      40.879 -10.925  -1.566  1.00  0.00     0.047 A 
HETATM   19  C   UNL     1      40.673  -9.545  -1.440  1.00  0.00     0.041 A 
HETATM   20  C   UNL     1      39.659  -8.928  -2.170  1.00  0.00     0.018 A 
HETATM   21  C   UNL     1      38.858  -9.696  -3.020  1.00  0.00     0.003 A 
HETATM   22  C   UNL     1      39.052 -11.080  -3.117  1.00  0.00     0.029 A 
BRANCH  19  23
HETATM   23  C   UNL     1      41.544  -8.822  -0.480  1.00  0.00     0.293 C 
HETATM   24  O   UNL     1      41.100  -8.265   0.516  1.00  0.00    -0.259 OA
BRANCH  23  25
HETATM   25  O   UNL     1      42.840  -8.893  -0.857  1.00  0.00    -0.323 OA
HETATM   26  C   UNL     1      43.267  -7.804  -1.679  1.00  0.00     0.213 C 
ENDBRANCH  23  25
ENDBRANCH  19  23
ENDBRANCH  15  17
ENDBRANCH  13  15
ENDBRANCH  11  13
ENDBRANCH  10  11
ENDBRANCH   4  10
BRANCH   1  27
HETATM   27  C   UNL     1      42.708 -15.052   3.823  1.00  0.00     0.038 A 
HETATM   28  N   UNL     1      43.280 -15.402   5.030  1.00  0.00    -0.277 N 
HETATM   29  C   UNL     1      43.436 -14.599   6.223  1.00  0.00     0.179 C 
HETATM   30  N   UNL     1      43.734 -16.660   5.062  1.00  0.00    -0.172 NA
HETATM   31  C   UNL     1      43.356 -17.193   3.897  1.00  0.00     0.096 A 
HETATM   32  C   UNL     1      42.731 -16.222   3.081  1.00  0.00     0.062 A 
BRANCH  31  33
HETATM   33  C   UNL     1      43.575 -18.641   3.579  1.00  0.00     0.035 A 
HETATM   34  S   UNL     1      44.146 -19.803   4.694  1.00  0.00    -0.100 SA
HETATM   35  C   UNL     1      44.129 -21.039   3.510  1.00  0.00     0.050 A 
HETATM   36  C   UNL     1      43.688 -20.579   2.289  1.00  0.00     0.008 A 
HETATM   37  C   UNL     1      43.359 -19.192   2.332  1.00  0.00     0.022 A 
ENDBRANCH  31  33
ENDBRANCH   1  27
TORSDOF 9
ENDMDL
MODEL 3
REMARK VINA RESULT:      -8.5      3.243      5.831
REMARK  9 active torsions:
REMARK  status: ('A' for Active; 'I' for Inactive)
REMARK    1  A    between atoms: C_4  and  C_5 
REMARK    2  A    between atoms: C_11  and  C_12 
REMARK    3  A    between atoms: C_15  and  C_16 
REMARK    4  A    between atoms: C_16  and  N_17 
REMARK    5  A    between atoms: N_17  and  C_18 
REMARK    6  A    between atoms: C_18  and  N_19 
REMARK    7  A    between atoms: N_19  and  C_20 
REMARK    8  A    between atoms: C_22  and  C_23 
REMARK    9  A    between atoms: C_23  and  O_24 
ROOT
HETATM    1  C   UNL     1      40.391 -12.865   4.500  1.00  0.00     0.067 C 
HETATM    2  C   UNL     1      41.064 -11.590   3.920  1.00  0.00     0.001 C 
HETATM    3  C   UNL     1      42.468 -11.375   4.531  1.00  0.00     0.040 C 
HETATM    4  C   UNL     1      42.367 -11.129   6.045  1.00  0.00     0.206 C 
HETATM    5  N   UNL     1      40.920 -11.413   6.464  1.00  0.00    -0.065 N 
HETATM    6  H   UNL     1      40.865 -11.364   7.491  1.00  0.00     0.280 HD
HETATM    7  C   UNL     1      40.434 -12.790   6.042  1.00  0.00     0.246 C 
HETATM    8  C   UNL     1      40.194 -10.382   4.340  1.00  0.00     0.033 C 
HETATM    9  C   UNL     1      40.014 -10.351   5.863  1.00  0.00     0.236 C 
ENDROOT
BRANCH   4  10
HETATM   10  C   UNL     1      43.397 -11.875   6.917  1.00  0.00     0.155 C 
BRANCH  10  11
HETATM   11  N   UNL     1      43.590 -11.319   8.251  1.00  0.00    -0.365 N 
HETATM   12  H   UNL     1      43.077 -11.758   9.008  1.00  0.00     0.161 HD
BRANCH  11  13
HETATM   13  C   UNL     1      44.711 -10.661   8.684  1.00  0.00     0.172 C 
HETATM   14  S   UNL     1      45.981 -10.238   7.688  1.00  0.00    -0.041 SA
BRANCH  13  15
HETATM   15  N   UNL     1      44.697 -10.228   9.983  1.00  0.00    -0.333 N 
HETATM   16  H   UNL     1      45.205 -10.828  10.628  1.00  0.00     0.168 HD
BRANCH  15  17
HETATM   17  C   UNL     1      43.986  -9.159  10.575  1.00  0.00     0.035 A 
HETATM   18  C   UNL     1      43.675  -9.114  11.936  1.00  0.00     0.047 A 
HETATM   19  C   UNL     1      42.920  -8.063  12.472  1.00  0.00     0.041 A 
HETATM   20  C   UNL     1      42.525  -7.007  11.652  1.00  0.00     0.018 A 
HETATM   21  C   UNL     1      42.888  -7.011  10.303  1.00  0.00     0.003 A 
HETATM   22  C   UNL     1      43.619  -8.080   9.769  1.00  0.00     0.029 A 
BRANCH  19  23
HETATM   23  C   UNL     1      42.545  -8.169  13.905  1.00  0.00     0.293 C 
HETATM   24  O   UNL     1      41.862  -9.089  14.336  1.00  0.00    -0.259 OA
BRANCH  23  25
HETATM   25  O   UNL     1      43.071  -7.147  14.616  1.00  0.00    -0.323 OA
HETATM   26  C   UNL     1      42.207  -6.647  15.640  1.00  0.00     0.213 C 
ENDBRANCH  23  25
ENDBRANCH  19  23
ENDBRANCH  15  17
ENDBRANCH  13  15
ENDBRANCH  11  13
ENDBRANCH  10  11
ENDBRANCH   4  10
BRANCH   1  27
HETATM   27  C   UNL     1      40.922 -14.167   3.964  1.00  0.00     0.038 A 
HETATM   28  N   UNL     1      40.668 -14.621   2.685  1.00  0.00    -0.277 N 
HETATM   29  C   UNL     1      39.901 -13.986   1.636  1.00  0.00     0.179 C 
HETATM   30  N   UNL     1      41.227 -15.807   2.417  1.00  0.00    -0.172 NA
HETATM   31  C   UNL     1      41.959 -16.094   3.495  1.00  0.00     0.096 A 
HETATM   32  C   UNL     1      41.785 -15.112   4.497  1.00  0.00     0.062 A 
BRANCH  31  33
HETATM   33  C   UNL     1      42.846 -17.302   3.553  1.00  0.00     0.035 A 
HETATM   34  S   UNL     1      43.738 -17.784   4.929  1.00  0.00    -0.100 SA
HETATM   35  C   UNL     1      44.427 -19.110   4.095  1.00  0.00     0.050 A 
HETATM   36  C   UNL     1      43.980 -19.191   2.794  1.00  0.00     0.008 A 
HETATM   37  C   UNL     1      43.058 -18.148   2.484  1.00  0.00     0.022 A 
ENDBRANCH  31  33
ENDBRANCH   1  27
TORSDOF 9
ENDMDL
MODEL 4
REMARK VINA RESULT:      -8.4      3.221      5.728
REMARK  9 active torsions:
REMARK  status: ('A' for Active; 'I' for Inactive)
REMARK    1  A    between atoms: C_4  and  C_5 
REMARK    2  A    between atoms: C_11  and  C_12 
REMARK    3  A    between atoms: C_15  and  C_16 
REMARK    4  A    between atoms: C_16  and  N_17 
REMARK    5  A    between atoms: N_17  and  C_18 
REMARK    6  A    between atoms: C_18  and  N_19 
REMARK    7  A    between atoms: N_19  and  C_20 
REMARK    8  A    between atoms: C_22  and  C_23 
REMARK    9  A    between atoms: C_23  and  O_24 
ROOT
HETATM    1  C   UNL     1      41.412 -12.718   3.419  1.00  0.00     0.067 C 
HETATM    2  C   UNL     1      42.474 -11.759   2.810  1.00  0.00     0.001 C 
HETATM    3  C   UNL     1      43.794 -11.810   3.613  1.00  0.00     0.040 C 
HETATM    4  C   UNL     1      43.573 -11.311   5.049  1.00  0.00     0.206 C 
HETATM    5  N   UNL     1      42.063 -11.154   5.257  1.00  0.00    -0.065 N 
HETATM    6  H   UNL     1      41.893 -10.932   6.248  1.00  0.00     0.280 HD
HETATM    7  C   UNL     1      41.279 -12.414   4.928  1.00  0.00     0.246 C 
HETATM    8  C   UNL     1      41.918 -10.321   2.937  1.00  0.00     0.033 C 
HETATM    9  C   UNL     1      41.563 -10.007   4.395  1.00  0.00     0.236 C 
ENDROOT
BRANCH   4  10
HETATM   10  C   UNL     1      44.244 -12.145   6.160  1.00  0.00     0.155 C 
BRANCH  10  11
HETATM   11  N   UNL     1      43.720 -11.916   7.502  1.00  0.00    -0.365 N 
HETATM   12  H   UNL     1      43.214 -12.683   7.932  1.00  0.00     0.161 HD
BRANCH  11  13
HETATM   13  C   UNL     1      44.240 -11.044   8.421  1.00  0.00     0.172 C 
HETATM   14  S   UNL     1      45.645 -10.176   8.185  1.00  0.00    -0.041 SA
BRANCH  13  15
HETATM   15  N   UNL     1      43.472 -10.800   9.528  1.00  0.00    -0.333 N 
HETATM   16  H   UNL     1      42.925 -11.599   9.841  1.00  0.00     0.168 HD
BRANCH  15  17
HETATM   17  C   UNL     1      43.230  -9.588  10.215  1.00  0.00     0.035 A 
HETATM   18  C   UNL     1      42.679  -8.462   9.599  1.00  0.00     0.047 A 
HETATM   19  C   UNL     1      42.508  -7.263  10.302  1.00  0.00     0.041 A 
HETATM   20  C   UNL     1      42.830  -7.204  11.657  1.00  0.00     0.018 A 
HETATM   21  C   UNL     1      43.320  -8.345  12.298  1.00  0.00     0.003 A 
HETATM   22  C   UNL     1      43.515  -9.532  11.580  1.00  0.00     0.029 A 
BRANCH  19  23
HETATM   23  C   UNL     1      42.024  -6.093   9.526  1.00  0.00     0.293 C 
HETATM   24  O   UNL     1      41.832  -4.999  10.042  1.00  0.00    -0.259 OA
BRANCH  23  25
HETATM   25  O   UNL     1      41.860  -6.415   8.224  1.00  0.00    -0.323 OA
HETATM   26  C   UNL     1      41.461  -5.317   7.400  1.00  0.00     0.213 C 
ENDBRANCH  23  25
ENDBRANCH  19  23
ENDBRANCH  15  17
ENDBRANCH  13  15
ENDBRANCH  11  13
ENDBRANCH  10  11
ENDBRANCH   4  10
BRANCH   1  27
HETATM   27  C   UNL     1      41.634 -14.179   3.135  1.00  0.00     0.038 A 
HETATM   28  N   UNL     1      41.070 -14.837   2.060  1.00  0.00    -0.277 N 
HETATM   29  C   UNL     1      40.212 -14.305   1.025  1.00  0.00     0.179 C 
HETATM   30  N   UNL     1      41.388 -16.135   2.001  1.00  0.00    -0.172 NA
HETATM   31  C   UNL     1      42.270 -16.320   2.987  1.00  0.00     0.096 A 
HETATM   32  C   UNL     1      42.440 -15.133   3.736  1.00  0.00     0.062 A 
BRANCH  31  33
HETATM   33  C   UNL     1      42.966 -17.631   3.192  1.00  0.00     0.035 A 
HETATM   34  S   UNL     1      43.828 -18.060   4.605  1.00  0.00    -0.100 SA
HETATM   35  C   UNL     1      44.278 -19.574   3.946  1.00  0.00     0.050 A 
HETATM   36  C   UNL     1      43.775 -19.755   2.676  1.00  0.00     0.008 A 
HETATM   37  C   UNL     1      43.008 -18.633   2.244  1.00  0.00     0.022 A 
ENDBRANCH  31  33
ENDBRANCH   1  27
TORSDOF 9
ENDMDL
MODEL 5
REMARK VINA RESULT:      -8.3      4.170      8.683
REMARK  9 active torsions:
REMARK  status: ('A' for Active; 'I' for Inactive)
REMARK    1  A    between atoms: C_4  and  C_5 
REMARK    2  A    between atoms: C_11  and  C_12 
REMARK    3  A    between atoms: C_15  and  C_16 
REMARK    4  A    between atoms: C_16  and  N_17 
REMARK    5  A    between atoms: N_17  and  C_18 
REMARK    6  A    between atoms: C_18  and  N_19 
REMARK    7  A    between atoms: N_19  and  C_20 
REMARK    8  A    between atoms: C_22  and  C_23 
REMARK    9  A    between atoms: C_23  and  O_24 
ROOT
HETATM    1  C   UNL     1      42.558 -15.102   4.664  1.00  0.00     0.067 C 
HETATM    2  C   UNL     1      43.141 -14.835   3.248  1.00  0.00     0.001 C 
HETATM    3  C   UNL     1      42.510 -13.572   2.617  1.00  0.00     0.040 C 
HETATM    4  C   UNL     1      41.001 -13.768   2.405  1.00  0.00     0.206 C 
HETATM    5  N   UNL     1      40.601 -15.068   3.111  1.00  0.00    -0.065 N 
HETATM    6  H   UNL     1      39.575 -15.153   3.076  1.00  0.00     0.280 HD
HETATM    7  C   UNL     1      41.016 -15.109   4.572  1.00  0.00     0.246 C 
HETATM    8  C   UNL     1      42.744 -16.036   2.357  1.00  0.00     0.033 C 
HETATM    9  C   UNL     1      41.225 -16.242   2.374  1.00  0.00     0.236 C 
ENDROOT
BRANCH   4  10
HETATM   10  C   UNL     1      40.107 -12.576   2.802  1.00  0.00     0.155 C 
BRANCH  10  11
HETATM   11  N   UNL     1      40.822 -11.336   3.081  1.00  0.00    -0.365 N 
HETATM   12  H   UNL     1      41.695 -11.417   3.591  1.00  0.00     0.161 HD
BRANCH  11  13
HETATM   13  C   UNL     1      40.752 -10.191   2.332  1.00  0.00     0.172 C 
HETATM   14  S   UNL     1      39.824  -8.868   2.744  1.00  0.00    -0.041 SA
BRANCH  13  15
HETATM   15  N   UNL     1      41.603 -10.114   1.262  1.00  0.00    -0.333 N 
HETATM   16  H   UNL     1      42.532  -9.768   1.491  1.00  0.00     0.168 HD
BRANCH  15  17
HETATM   17  C   UNL     1      41.351 -10.320  -0.115  1.00  0.00     0.035 A 
HETATM   18  C   UNL     1      40.822 -11.509  -0.620  1.00  0.00     0.047 A 
HETATM   19  C   UNL     1      40.640 -11.694  -1.997  1.00  0.00     0.041 A 
HETATM   20  C   UNL     1      40.929 -10.652  -2.878  1.00  0.00     0.018 A 
HETATM   21  C   UNL     1      41.397  -9.436  -2.374  1.00  0.00     0.003 A 
HETATM   22  C   UNL     1      41.603  -9.270  -0.999  1.00  0.00     0.029 A 
BRANCH  19  23
HETATM   23  C   UNL     1      40.183 -13.034  -2.441  1.00  0.00     0.293 C 
HETATM   24  O   UNL     1      40.758 -13.666  -3.318  1.00  0.00    -0.259 OA
BRANCH  23  25
HETATM   25  O   UNL     1      39.096 -13.428  -1.739  1.00  0.00    -0.323 OA
HETATM   26  C   UNL     1      37.854 -13.165  -2.395  1.00  0.00     0.213 C 
ENDBRANCH  23  25
ENDBRANCH  19  23
ENDBRANCH  15  17
ENDBRANCH  13  15
ENDBRANCH  11  13
ENDBRANCH  10  11
ENDBRANCH   4  10
BRANCH   1  27
HETATM   27  C   UNL     1      43.074 -14.193   5.748  1.00  0.00     0.038 A 
HETATM   28  N   UNL     1      43.252 -14.598   7.055  1.00  0.00    -0.277 N 
HETATM   29  C   UNL     1      43.016 -15.901   7.638  1.00  0.00     0.179 C 
HETATM   30  N   UNL     1      43.708 -13.630   7.858  1.00  0.00    -0.172 NA
HETATM   31  C   UNL     1      43.947 -12.595   7.048  1.00  0.00     0.096 A 
HETATM   32  C   UNL     1      43.547 -12.891   5.725  1.00  0.00     0.062 A 
BRANCH  31  33
HETATM   33  C   UNL     1      44.582 -11.331   7.543  1.00  0.00     0.035 A 
HETATM   34  S   UNL     1      43.769 -10.124   8.440  1.00  0.00    -0.100 SA
HETATM   35  C   UNL     1      45.165  -9.134   8.492  1.00  0.00     0.050 A 
HETATM   36  C   UNL     1      46.234  -9.715   7.846  1.00  0.00     0.008 A 
HETATM   37  C   UNL     1      45.898 -10.991   7.305  1.00  0.00     0.022 A 
ENDBRANCH  31  33
ENDBRANCH   1  27
TORSDOF 9
ENDMDL
MODEL 6
REMARK VINA RESULT:      -8.2      5.113      8.624
REMARK  9 active torsions:
REMARK  status: ('A' for Active; 'I' for Inactive)
REMARK    1  A    between atoms: C_4  and  C_5 
REMARK    2  A    between atoms: C_11  and  C_12 
REMARK    3  A    between atoms: C_15  and  C_16 
REMARK    4  A    between atoms: C_16  and  N_17 
REMARK    5  A    between atoms: N_17  and  C_18 
REMARK    6  A    between atoms: C_18  and  N_19 
REMARK    7  A    between atoms: N_19  and  C_20 
REMARK    8  A    between atoms: C_22  and  C_23 
REMARK    9  A    between atoms: C_23  and  O_24 
ROOT
HETATM    1  C   UNL     1      42.619 -13.498   4.153  1.00  0.00     0.067 C 
HETATM    2  C   UNL     1      41.134 -13.203   4.502  1.00  0.00     0.001 C 
HETATM    3  C   UNL     1      40.194 -13.658   3.362  1.00  0.00     0.040 C 
HETATM    4  C   UNL     1      40.476 -12.861   2.078  1.00  0.00     0.206 C 
HETATM    5  N   UNL     1      41.755 -12.049   2.310  1.00  0.00    -0.065 N 
HETATM    6  H   UNL     1      42.019 -11.600   1.421  1.00  0.00     0.280 HD
HETATM    7  C   UNL     1      42.930 -12.899   2.764  1.00  0.00     0.246 C 
HETATM    8  C   UNL     1      40.990 -11.668   4.627  1.00  0.00     0.033 C 
HETATM    9  C   UNL     1      41.476 -10.975   3.348  1.00  0.00     0.236 C 
ENDROOT
BRANCH   4  10
HETATM   10  C   UNL     1      40.520 -13.683   0.774  1.00  0.00     0.155 C 
BRANCH  10  11
HETATM   11  N   UNL     1      39.365 -13.513  -0.100  1.00  0.00    -0.365 N 
HETATM   12  H   UNL     1      38.462 -13.769   0.282  1.00  0.00     0.161 HD
BRANCH  11  13
HETATM   13  C   UNL     1      39.269 -12.607  -1.123  1.00  0.00     0.172 C 
HETATM   14  S   UNL     1      37.823 -12.005  -1.697  1.00  0.00    -0.041 SA
BRANCH  13  15
HETATM   15  N   UNL     1      40.449 -12.092  -1.590  1.00  0.00    -0.333 N 
HETATM   16  H   UNL     1      41.120 -12.795  -1.892  1.00  0.00     0.168 HD
BRANCH  15  17
HETATM   17  C   UNL     1      40.917 -10.758  -1.597  1.00  0.00     0.035 A 
HETATM   18  C   UNL     1      40.992  -9.986  -2.759  1.00  0.00     0.047 A 
HETATM   19  C   UNL     1      41.515  -8.686  -2.732  1.00  0.00     0.041 A 
HETATM   20  C   UNL     1      41.908  -8.125  -1.518  1.00  0.00     0.018 A 
HETATM   21  C   UNL     1      41.775  -8.867  -0.341  1.00  0.00     0.003 A 
HETATM   22  C   UNL     1      41.278 -10.175  -0.382  1.00  0.00     0.029 A 
BRANCH  19  23
HETATM   23  C   UNL     1      41.661  -7.994  -4.037  1.00  0.00     0.293 C 
HETATM   24  O   UNL     1      40.794  -8.035  -4.900  1.00  0.00    -0.259 OA
BRANCH  23  25
HETATM   25  O   UNL     1      42.837  -7.330  -4.100  1.00  0.00    -0.323 OA
HETATM   26  C   UNL     1      43.062  -6.666  -5.346  1.00  0.00     0.213 C 
ENDBRANCH  23  25
ENDBRANCH  19  23
ENDBRANCH  15  17
ENDBRANCH  13  15
ENDBRANCH  11  13
ENDBRANCH  10  11
ENDBRANCH   4  10
BRANCH   1  27
HETATM   27  C   UNL     1      43.028 -14.942   4.270  1.00  0.00     0.038 A 
HETATM   28  N   UNL     1      43.473 -15.511   5.447  1.00  0.00    -0.277 N 
HETATM   29  C   UNL     1      43.621 -14.897   6.748  1.00  0.00     0.179 C 
HETATM   30  N   UNL     1      43.794 -16.804   5.328  1.00  0.00    -0.172 NA
HETATM   31  C   UNL     1      43.450 -17.131   4.080  1.00  0.00     0.096 A 
HETATM   32  C   UNL     1      42.987 -15.998   3.374  1.00  0.00     0.062 A 
BRANCH  31  33
HETATM   33  C   UNL     1      43.545 -18.539   3.575  1.00  0.00     0.035 A 
HETATM   34  S   UNL     1      44.152 -19.856   4.480  1.00  0.00    -0.100 SA
HETATM   35  C   UNL     1      43.939 -20.936   3.170  1.00  0.00     0.050 A 
HETATM   36  C   UNL     1      43.406 -20.309   2.065  1.00  0.00     0.008 A 
HETATM   37  C   UNL     1      43.171 -18.923   2.303  1.00  0.00     0.022 A 
ENDBRANCH  31  33
ENDBRANCH   1  27
TORSDOF 9
ENDMDL
MODEL 7
REMARK VINA RESULT:      -8.2      5.021      9.147
REMARK  9 active torsions:
REMARK  status: ('A' for Active; 'I' for Inactive)
REMARK    1  A    between atoms: C_4  and  C_5 
REMARK    2  A    between atoms: C_11  and  C_12 
REMARK    3  A    between atoms: C_15  and  C_16 
REMARK    4  A    between atoms: C_16  and  N_17 
REMARK    5  A    between atoms: N_17  and  C_18 
REMARK    6  A    between atoms: C_18  and  N_19 
REMARK    7  A    between atoms: N_19  and  C_20 
REMARK    8  A    between atoms: C_22  and  C_23 
REMARK    9  A    between atoms: C_23  and  O_24 
ROOT
HETATM    1  C   UNL     1      42.479 -13.593   4.049  1.00  0.00     0.067 C 
HETATM    2  C   UNL     1      40.958 -13.349   4.254  1.00  0.00     0.001 C 
HETATM    3  C   UNL     1      40.131 -14.039   3.144  1.00  0.00     0.040 C 
HETATM    4  C   UNL     1      40.458 -13.435   1.770  1.00  0.00     0.206 C 
HETATM    5  N   UNL     1      41.668 -12.510   1.948  1.00  0.00    -0.065 N 
HETATM    6  H   UNL     1      41.970 -12.189   1.017  1.00  0.00     0.280 HD
HETATM    7  C   UNL     1      42.855 -13.197   2.604  1.00  0.00     0.246 C 
HETATM    8  C   UNL     1      40.717 -11.827   4.122  1.00  0.00     0.033 C 
HETATM    9  C   UNL     1      41.253 -11.310   2.781  1.00  0.00     0.236 C 
ENDROOT
BRANCH   4  10
HETATM   10  C   UNL     1      40.644 -14.444   0.619  1.00  0.00     0.155 C 
BRANCH  10  11
HETATM   11  N   UNL     1      39.577 -14.447  -0.375  1.00  0.00    -0.365 N 
HETATM   12  H   UNL     1      38.636 -14.284  -0.036  1.00  0.00     0.161 HD
BRANCH  11  13
HETATM   13  C   UNL     1      39.724 -14.130  -1.700  1.00  0.00     0.172 C 
HETATM   14  S   UNL     1      38.626 -14.552  -2.883  1.00  0.00    -0.041 SA
BRANCH  13  15
HETATM   15  N   UNL     1      40.775 -13.310  -2.014  1.00  0.00    -0.333 N 
HETATM   16  H   UNL     1      41.669 -13.789  -2.092  1.00  0.00     0.168 HD
BRANCH  15  17
HETATM   17  C   UNL     1      40.826 -11.901  -2.120  1.00  0.00     0.035 A 
HETATM   18  C   UNL     1      40.228 -11.195  -3.167  1.00  0.00     0.047 A 
HETATM   19  C   UNL     1      40.350  -9.803  -3.266  1.00  0.00     0.041 A 
HETATM   20  C   UNL     1      41.023  -9.097  -2.270  1.00  0.00     0.018 A 
HETATM   21  C   UNL     1      41.568  -9.788  -1.185  1.00  0.00     0.003 A 
HETATM   22  C   UNL     1      41.466 -11.182  -1.109  1.00  0.00     0.029 A 
BRANCH  19  23
HETATM   23  C   UNL     1      39.778  -9.163  -4.477  1.00  0.00     0.293 C 
HETATM   24  O   UNL     1      40.460  -8.510  -5.256  1.00  0.00    -0.259 OA
BRANCH  23  25
HETATM   25  O   UNL     1      38.456  -9.424  -4.579  1.00  0.00    -0.323 OA
HETATM   26  C   UNL     1      37.807  -8.724  -5.643  1.00  0.00     0.213 C 
ENDBRANCH  23  25
ENDBRANCH  19  23
ENDBRANCH  15  17
ENDBRANCH  13  15
ENDBRANCH  11  13
ENDBRANCH  10  11
ENDBRANCH   4  10
BRANCH   1  27
HETATM   27  C   UNL     1      42.961 -14.969   4.421  1.00  0.00     0.038 A 
HETATM   28  N   UNL     1      43.352 -15.316   5.699  1.00  0.00    -0.277 N 
HETATM   29  C   UNL     1      43.369 -14.499   6.892  1.00  0.00     0.179 C 
HETATM   30  N   UNL     1      43.755 -16.587   5.809  1.00  0.00    -0.172 NA
HETATM   31  C   UNL     1      43.522 -17.127   4.610  1.00  0.00     0.096 A 
HETATM   32  C   UNL     1      43.047 -16.152   3.704  1.00  0.00     0.062 A 
BRANCH  31  33
HETATM   33  C   UNL     1      43.734 -18.587   4.343  1.00  0.00     0.035 A 
HETATM   34  S   UNL     1      43.719 -19.301   2.790  1.00  0.00    -0.100 SA
HETATM   35  C   UNL     1      43.967 -20.866   3.438  1.00  0.00     0.050 A 
HETATM   36  C   UNL     1      44.069 -20.845   4.812  1.00  0.00     0.008 A 
HETATM   37  C   UNL     1      43.943 -19.525   5.334  1.00  0.00     0.022 A 
ENDBRANCH  31  33
ENDBRANCH   1  27
TORSDOF 9
ENDMDL
MODEL 8
REMARK VINA RESULT:      -8.2      4.529      7.667
REMARK  9 active torsions:
REMARK  status: ('A' for Active; 'I' for Inactive)
REMARK    1  A    between atoms: C_4  and  C_5 
REMARK    2  A    between atoms: C_11  and  C_12 
REMARK    3  A    between atoms: C_15  and  C_16 
REMARK    4  A    between atoms: C_16  and  N_17 
REMARK    5  A    between atoms: N_17  and  C_18 
REMARK    6  A    between atoms: C_18  and  N_19 
REMARK    7  A    between atoms: N_19  and  C_20 
REMARK    8  A    between atoms: C_22  and  C_23 
REMARK    9  A    between atoms: C_23  and  O_24 
ROOT
HETATM    1  C   UNL     1      39.570 -11.810  -3.051  1.00  0.00     0.067 C 
HETATM    2  C   UNL     1      38.326 -12.148  -2.182  1.00  0.00     0.001 C 
HETATM    3  C   UNL     1      38.716 -12.314  -0.695  1.00  0.00     0.040 C 
HETATM    4  C   UNL     1      39.672 -13.504  -0.516  1.00  0.00     0.206 C 
HETATM    5  N   UNL     1      40.092 -13.973  -1.912  1.00  0.00    -0.065 N 
HETATM    6  H   UNL     1      40.821 -14.694  -1.807  1.00  0.00     0.280 HD
HETATM    7  C   UNL     1      40.669 -12.859  -2.770  1.00  0.00     0.246 C 
HETATM    8  C   UNL     1      37.786 -13.513  -2.667  1.00  0.00     0.033 C 
HETATM    9  C   UNL     1      38.888 -14.579  -2.613  1.00  0.00     0.236 C 
ENDROOT
BRANCH   4  10
HETATM   10  C   UNL     1      40.874 -13.264   0.420  1.00  0.00     0.155 C 
BRANCH  10  11
HETATM   11  N   UNL     1      40.961 -14.175   1.556  1.00  0.00    -0.365 N 
HETATM   12  H   UNL     1      41.858 -14.619   1.717  1.00  0.00     0.161 HD
BRANCH  11  13
HETATM   13  C   UNL     1      40.190 -14.112   2.686  1.00  0.00     0.172 C 
HETATM   14  S   UNL     1      39.281 -12.781   3.116  1.00  0.00    -0.041 SA
BRANCH  13  15
HETATM   15  N   UNL     1      40.082 -15.268   3.411  1.00  0.00    -0.333 N 
HETATM   16  H   UNL     1      39.136 -15.640   3.465  1.00  0.00     0.168 HD
BRANCH  15  17
HETATM   17  C   UNL     1      41.048 -15.944   4.191  1.00  0.00     0.035 A 
HETATM   18  C   UNL     1      42.035 -16.762   3.636  1.00  0.00     0.047 A 
HETATM   19  C   UNL     1      42.939 -17.460   4.447  1.00  0.00     0.041 A 
HETATM   20  C   UNL     1      42.900 -17.288   5.830  1.00  0.00     0.018 A 
HETATM   21  C   UNL     1      41.959 -16.421   6.390  1.00  0.00     0.003 A 
HETATM   22  C   UNL     1      41.040 -15.750   5.573  1.00  0.00     0.029 A 
BRANCH  19  23
HETATM   23  C   UNL     1      43.872 -18.392   3.766  1.00  0.00     0.293 C 
HETATM   24  O   UNL     1      44.912 -18.774   4.286  1.00  0.00    -0.259 OA
BRANCH  23  25
HETATM   25  O   UNL     1      43.396 -18.745   2.551  1.00  0.00    -0.323 OA
HETATM   26  C   UNL     1      43.618 -20.117   2.216  1.00  0.00     0.213 C 
ENDBRANCH  23  25
ENDBRANCH  19  23
ENDBRANCH  15  17
ENDBRANCH  13  15
ENDBRANCH  11  13
ENDBRANCH  10  11
ENDBRANCH   4  10
BRANCH   1  27
HETATM   27  C   UNL     1      40.069 -10.396  -2.930  1.00  0.00     0.038 A 
HETATM   28  N   UNL     1      39.470  -9.324  -3.562  1.00  0.00    -0.277 N 
HETATM   29  C   UNL     1      38.298  -9.315  -4.411  1.00  0.00     0.179 C 
HETATM   30  N   UNL     1      40.080  -8.156  -3.329  1.00  0.00    -0.172 NA
HETATM   31  C   UNL     1      41.032  -8.437  -2.437  1.00  0.00     0.096 A 
HETATM   32  C   UNL     1      41.079  -9.825  -2.173  1.00  0.00     0.062 A 
BRANCH  31  33
HETATM   33  C   UNL     1      41.882  -7.367  -1.820  1.00  0.00     0.035 A 
HETATM   34  S   UNL     1      41.322  -6.218  -0.686  1.00  0.00    -0.100 SA
HETATM   35  C   UNL     1      42.850  -5.450  -0.614  1.00  0.00     0.050 A 
HETATM   36  C   UNL     1      43.774  -6.063  -1.433  1.00  0.00     0.008 A 
HETATM   37  C   UNL     1      43.215  -7.178  -2.124  1.00  0.00     0.022 A 
ENDBRANCH  31  33
ENDBRANCH   1  27
TORSDOF 9
ENDMDL
MODEL 9
REMARK VINA RESULT:      -8.0      3.923      7.913
REMARK  9 active torsions:
REMARK  status: ('A' for Active; 'I' for Inactive)
REMARK    1  A    between atoms: C_4  and  C_5 
REMARK    2  A    between atoms: C_11  and  C_12 
REMARK    3  A    between atoms: C_15  and  C_16 
REMARK    4  A    between atoms: C_16  and  N_17 
REMARK    5  A    between atoms: N_17  and  C_18 
REMARK    6  A    between atoms: C_18  and  N_19 
REMARK    7  A    between atoms: N_19  and  C_20 
REMARK    8  A    between atoms: C_22  and  C_23 
REMARK    9  A    between atoms: C_23  and  O_24 
ROOT
HETATM    1  C   UNL     1      42.692 -13.609   4.042  1.00  0.00     0.067 C 
HETATM    2  C   UNL     1      41.189 -13.287   4.268  1.00  0.00     0.001 C 
HETATM    3  C   UNL     1      40.307 -13.960   3.191  1.00  0.00     0.040 C 
HETATM    4  C   UNL     1      40.637 -13.403   1.797  1.00  0.00     0.206 C 
HETATM    5  N   UNL     1      41.894 -12.536   1.931  1.00  0.00    -0.065 N 
HETATM    6  H   UNL     1      42.193 -12.251   0.988  1.00  0.00     0.280 HD
HETATM    7  C   UNL     1      43.058 -13.266   2.582  1.00  0.00     0.246 C 
HETATM    8  C   UNL     1      41.019 -11.758   4.106  1.00  0.00     0.033 C 
HETATM    9  C   UNL     1      41.554 -11.298   2.744  1.00  0.00     0.236 C 
ENDROOT
BRANCH   4  10
HETATM   10  C   UNL     1      40.751 -14.447   0.667  1.00  0.00     0.155 C 
BRANCH  10  11
HETATM   11  N   UNL     1      40.526 -13.925  -0.677  1.00  0.00    -0.365 N 
HETATM   12  H   UNL     1      41.311 -13.957  -1.317  1.00  0.00     0.161 HD
BRANCH  11  13
HETATM   13  C   UNL     1      39.318 -13.886  -1.322  1.00  0.00     0.172 C 
HETATM   14  S   UNL     1      38.894 -14.920  -2.561  1.00  0.00    -0.041 SA
BRANCH  13  15
HETATM   15  N   UNL     1      38.385 -13.025  -0.810  1.00  0.00    -0.333 N 
HETATM   16  H   UNL     1      37.505 -13.468  -0.555  1.00  0.00     0.168 HD
BRANCH  15  17
HETATM   17  C   UNL     1      38.414 -11.616  -0.701  1.00  0.00     0.035 A 
HETATM   18  C   UNL     1      38.555 -10.951   0.519  1.00  0.00     0.047 A 
HETATM   19  C   UNL     1      38.522  -9.552   0.590  1.00  0.00     0.041 A 
HETATM   20  C   UNL     1      38.412  -8.803  -0.581  1.00  0.00     0.018 A 
HETATM   21  C   UNL     1      38.336  -9.459  -1.813  1.00  0.00     0.003 A 
HETATM   22  C   UNL     1      38.341 -10.859  -1.871  1.00  0.00     0.029 A 
BRANCH  19  23
HETATM   23  C   UNL     1      38.563  -8.947   1.945  1.00  0.00     0.293 C 
HETATM   24  O   UNL     1      38.854  -7.773   2.129  1.00  0.00    -0.259 OA
BRANCH  23  25
HETATM   25  O   UNL     1      38.224  -9.855   2.887  1.00  0.00    -0.323 OA
HETATM   26  C   UNL     1      38.279  -9.353   4.224  1.00  0.00     0.213 C 
ENDBRANCH  23  25
ENDBRANCH  19  23
ENDBRANCH  15  17
ENDBRANCH  13  15
ENDBRANCH  11  13
ENDBRANCH  10  11
ENDBRANCH   4  10
BRANCH   1  27
HETATM   27  C   UNL     1      43.113 -15.000   4.437  1.00  0.00     0.038 A 
HETATM   28  N   UNL     1      43.435 -15.355   5.732  1.00  0.00    -0.277 N 
HETATM   29  C   UNL     1      43.425 -14.535   6.924  1.00  0.00     0.179 C 
HETATM   30  N   UNL     1      43.793 -16.637   5.862  1.00  0.00    -0.172 NA
HETATM   31  C   UNL     1      43.597 -17.174   4.654  1.00  0.00     0.096 A 
HETATM   32  C   UNL     1      43.193 -16.186   3.727  1.00  0.00     0.062 A 
BRANCH  31  33
HETATM   33  C   UNL     1      43.774 -18.640   4.399  1.00  0.00     0.035 A 
HETATM   34  S   UNL     1      43.782 -19.361   2.850  1.00  0.00    -0.100 SA
HETATM   35  C   UNL     1      43.967 -20.929   3.511  1.00  0.00     0.050 A 
HETATM   36  C   UNL     1      44.031 -20.905   4.887  1.00  0.00     0.008 A 
HETATM   37  C   UNL     1      43.928 -19.578   5.400  1.00  0.00     0.022 A 
ENDBRANCH  31  33
ENDBRANCH   1  27
TORSDOF 9
ENDMDL
MODEL 10
REMARK VINA RESULT:      -7.9      2.640      5.413
REMARK  9 active torsions:
REMARK  status: ('A' for Active; 'I' for Inactive)
REMARK    1  A    between atoms: C_4  and  C_5 
REMARK    2  A    between atoms: C_11  and  C_12 
REMARK    3  A    between atoms: C_15  and  C_16 
REMARK    4  A    between atoms: C_16  and  N_17 
REMARK    5  A    between atoms: N_17  and  C_18 
REMARK    6  A    between atoms: C_18  and  N_19 
REMARK    7  A    between atoms: N_19  and  C_20 
REMARK    8  A    between atoms: C_22  and  C_23 
REMARK    9  A    between atoms: C_23  and  O_24 
ROOT
HETATM    1  C   UNL     1      39.809 -12.934   1.916  1.00  0.00     0.067 C 
HETATM    2  C   UNL     1      40.853 -12.244   0.995  1.00  0.00     0.001 C 
HETATM    3  C   UNL     1      41.705 -11.225   1.787  1.00  0.00     0.040 C 
HETATM    4  C   UNL     1      40.824 -10.087   2.326  1.00  0.00     0.206 C 
HETATM    5  N   UNL     1      39.362 -10.481   2.088  1.00  0.00    -0.065 N 
HETATM    6  H   UNL     1      38.759  -9.784   2.547  1.00  0.00     0.280 HD
HETATM    7  C   UNL     1      39.008 -11.844   2.662  1.00  0.00     0.246 C 
HETATM    8  C   UNL     1      40.066 -11.448  -0.073  1.00  0.00     0.033 C 
HETATM    9  C   UNL     1      39.087 -10.474   0.594  1.00  0.00     0.236 C 
ENDROOT
BRANCH   4  10
HETATM   10  C   UNL     1      41.096  -9.660   3.783  1.00  0.00     0.155 C 
BRANCH  10  11
HETATM   11  N   UNL     1      40.440 -10.480   4.796  1.00  0.00    -0.365 N 
HETATM   12  H   UNL     1      40.087 -11.382   4.496  1.00  0.00     0.161 HD
BRANCH  11  13
HETATM   13  C   UNL     1      40.690 -10.431   6.142  1.00  0.00     0.172 C 
HETATM   14  S   UNL     1      39.841  -9.471   7.210  1.00  0.00    -0.041 SA
BRANCH  13  15
HETATM   15  N   UNL     1      41.607 -11.328   6.622  1.00  0.00    -0.333 N 
HETATM   16  H   UNL     1      41.204 -12.206   6.940  1.00  0.00     0.168 HD
BRANCH  15  17
HETATM   17  C   UNL     1      42.993 -11.172   6.855  1.00  0.00     0.035 A 
HETATM   18  C   UNL     1      43.513 -10.221   7.735  1.00  0.00     0.047 A 
HETATM   19  C   UNL     1      44.895 -10.060   7.895  1.00  0.00     0.041 A 
HETATM   20  C   UNL     1      45.772 -10.906   7.216  1.00  0.00     0.018 A 
HETATM   21  C   UNL     1      45.259 -11.904   6.384  1.00  0.00     0.003 A 
HETATM   22  C   UNL     1      43.876 -12.038   6.208  1.00  0.00     0.029 A 
BRANCH  19  23
HETATM   23  C   UNL     1      45.346  -8.945   8.764  1.00  0.00     0.293 C 
HETATM   24  O   UNL     1      45.351  -7.780   8.385  1.00  0.00    -0.259 OA
BRANCH  23  25
HETATM   25  O   UNL     1      45.712  -9.402   9.982  1.00  0.00    -0.323 OA
HETATM   26  C   UNL     1      44.618  -9.601  10.880  1.00  0.00     0.213 C 
ENDBRANCH  23  25
ENDBRANCH  19  23
ENDBRANCH  15  17
ENDBRANCH  13  15
ENDBRANCH  11  13
ENDBRANCH  10  11
ENDBRANCH   4  10
BRANCH   1  27
HETATM   27  C   UNL     1      40.367 -13.983   2.841  1.00  0.00     0.038 A 
HETATM   28  N   UNL     1      40.374 -15.330   2.542  1.00  0.00    -0.277 N 
HETATM   29  C   UNL     1      39.896 -15.995   1.350  1.00  0.00     0.179 C 
HETATM   30  N   UNL     1      40.907 -16.089   3.507  1.00  0.00    -0.172 NA
HETATM   31  C   UNL     1      41.366 -15.223   4.413  1.00  0.00     0.096 A 
HETATM   32  C   UNL     1      41.034 -13.897   4.052  1.00  0.00     0.062 A 
BRANCH  31  33
HETATM   33  C   UNL     1      42.144 -15.668   5.614  1.00  0.00     0.035 A 
HETATM   34  S   UNL     1      43.243 -16.978   5.626  1.00  0.00    -0.100 SA
HETATM   35  C   UNL     1      43.563 -16.776   7.295  1.00  0.00     0.050 A 
HETATM   36  C   UNL     1      42.853 -15.725   7.834  1.00  0.00     0.008 A 
HETATM   37  C   UNL     1      42.039 -15.079   6.858  1.00  0.00     0.022 A 
ENDBRANCH  31  33
ENDBRANCH   1  27
TORSDOF 9
ENDMDL
