MODEL 1
REMARK VINA RESULT:      -9.1      0.000      0.000
REMARK  3 active torsions:
REMARK  status: ('A' for Active; 'I' for Inactive)
REMARK    1  A    between atoms: C_6  and  N_7 
REMARK       I    between atoms: N_7  and  C_8 
REMARK    2  A    between atoms: C_8  and  C_9 
REMARK    3  A    between atoms: C_9  and  C_10 
ROOT
HETATM    1  C   UNL     1      40.466 -13.857   0.950  1.00  0.00     0.286 C 
HETATM    2  N   UNL     1      41.052 -13.948  -0.466  1.00  0.00    -0.056 N 
HETATM    3  H   UNL     1      41.804 -13.227  -0.525  1.00  0.00     0.278 HD
HETATM    4  H   UNL     1      41.537 -14.844  -0.599  1.00  0.00     0.278 HD
HETATM    5  C   UNL     1      40.114 -13.662  -1.601  1.00  0.00     0.209 C 
HETATM    6  C   UNL     1      39.330 -12.362  -1.313  1.00  0.00     0.115 C 
HETATM    7  N   UNL     1      38.681 -12.392  -0.007  1.00  0.00    -0.353 N 
HETATM    8  C   UNL     1      39.290 -12.874   1.119  1.00  0.00     0.249 C 
HETATM    9  O   UNL     1      38.863 -12.566   2.228  1.00  0.00    -0.271 OA
HETATM   10  C   UNL     1      39.204 -14.864  -1.846  1.00  0.00     0.035 C 
HETATM   11  C   UNL     1      38.210 -14.562  -2.968  1.00  0.00     0.002 C 
HETATM   12  C   UNL     1      37.404 -13.295  -2.686  1.00  0.00     0.002 C 
HETATM   13  C   UNL     1      38.308 -12.090  -2.420  1.00  0.00     0.027 C 
HETATM   14  H   UNL     1      37.973 -11.688   0.199  1.00  0.00     0.163 HD
ENDROOT
BRANCH   1  15
HETATM   15  C   UNL     1      41.569 -13.485   1.956  1.00  0.00     0.146 C 
BRANCH  15  16
HETATM   16  C   UNL     1      41.731 -14.675   2.874  1.00  0.00     0.224 C 
HETATM   17  N   UNL     1      42.957 -15.285   2.836  1.00  0.00    -0.327 N 
HETATM   18  H   UNL     1      43.732 -14.791   2.403  1.00  0.00     0.169 HD
HETATM   19  O   UNL     1      40.721 -15.058   3.471  1.00  0.00    -0.273 OA
BRANCH  17  20
HETATM   20  C   UNL     1      43.260 -16.587   3.295  1.00  0.00     0.035 A 
HETATM   21  C   UNL     1      43.210 -17.729   2.490  1.00  0.00     0.037 A 
HETATM   22  C   UNL     1      43.607 -18.988   2.977  1.00  0.00    -0.054 A 
HETATM   23  C   UNL     1      44.018 -19.112   4.316  1.00  0.00    -0.056 A 
HETATM   24  C   UNL     1      43.557 -20.177   2.055  1.00  0.00     0.049 C 
HETATM   25  C   UNL     1      44.455 -20.432   4.890  1.00  0.00     0.049 C 
HETATM   26  C   UNL     1      44.064 -17.966   5.122  1.00  0.00     0.009 A 
HETATM   27  C   UNL     1      43.694 -16.717   4.616  1.00  0.00     0.030 A 
ENDBRANCH  17  20
ENDBRANCH  15  16
ENDBRANCH   1  15
TORSDOF 3
ENDMDL
MODEL 2
REMARK VINA RESULT:      -8.8      2.186      3.394
REMARK  3 active torsions:
REMARK  status: ('A' for Active; 'I' for Inactive)
REMARK    1  A    between atoms: C_6  and  N_7 
REMARK       I    between atoms: N_7  and  C_8 
REMARK    2  A    between atoms: C_8  and  C_9 
REMARK    3  A    between atoms: C_9  and  C_10 
ROOT
HETATM    1  C   UNL     1      41.211 -13.102   4.438  1.00  0.00     0.286 C 
HETATM    2  N   UNL     1      39.831 -13.656   4.058  1.00  0.00    -0.056 N 
HETATM    3  H   UNL     1      39.831 -14.665   4.323  1.00  0.00     0.278 HD
HETATM    4  H   UNL     1      39.099 -13.233   4.641  1.00  0.00     0.278 HD
HETATM    5  C   UNL     1      39.465 -13.611   2.604  1.00  0.00     0.209 C 
HETATM    6  C   UNL     1      40.634 -14.161   1.756  1.00  0.00     0.115 C 
HETATM    7  N   UNL     1      41.895 -13.498   2.066  1.00  0.00    -0.353 N 
HETATM    8  C   UNL     1      42.292 -13.205   3.343  1.00  0.00     0.249 C 
HETATM    9  O   UNL     1      43.475 -12.979   3.582  1.00  0.00    -0.271 OA
HETATM   10  C   UNL     1      39.059 -12.192   2.209  1.00  0.00     0.035 C 
HETATM   11  C   UNL     1      38.734 -12.125   0.716  1.00  0.00     0.002 C 
HETATM   12  C   UNL     1      39.891 -12.638  -0.140  1.00  0.00     0.002 C 
HETATM   13  C   UNL     1      40.317 -14.051   0.262  1.00  0.00     0.027 C 
HETATM   14  H   UNL     1      42.681 -13.627   1.431  1.00  0.00     0.163 HD
ENDROOT
BRANCH   1  15
HETATM   15  C   UNL     1      41.728 -13.796   5.710  1.00  0.00     0.146 C 
BRANCH  15  16
HETATM   16  C   UNL     1      41.811 -15.270   5.390  1.00  0.00     0.224 C 
HETATM   17  N   UNL     1      43.030 -15.708   4.943  1.00  0.00    -0.327 N 
HETATM   18  H   UNL     1      43.840 -15.109   5.075  1.00  0.00     0.169 HD
HETATM   19  O   UNL     1      40.757 -15.910   5.439  1.00  0.00    -0.273 OA
BRANCH  17  20
HETATM   20  C   UNL     1      43.286 -16.913   4.249  1.00  0.00     0.035 A 
HETATM   21  C   UNL     1      43.728 -18.087   4.865  1.00  0.00     0.037 A 
HETATM   22  C   UNL     1      43.883 -19.282   4.138  1.00  0.00    -0.054 A 
HETATM   23  C   UNL     1      43.635 -19.286   2.755  1.00  0.00    -0.056 A 
HETATM   24  C   UNL     1      44.337 -20.523   4.861  1.00  0.00     0.049 C 
HETATM   25  C   UNL     1      43.782 -20.535   1.928  1.00  0.00     0.049 C 
HETATM   26  C   UNL     1      43.195 -18.107   2.140  1.00  0.00     0.009 A 
HETATM   27  C   UNL     1      43.017 -16.934   2.879  1.00  0.00     0.030 A 
ENDBRANCH  17  20
ENDBRANCH  15  16
ENDBRANCH   1  15
TORSDOF 3
ENDMDL
MODEL 3
REMARK VINA RESULT:      -8.3      4.883      7.516
REMARK  3 active torsions:
REMARK  status: ('A' for Active; 'I' for Inactive)
REMARK    1  A    between atoms: C_6  and  N_7 
REMARK       I    between atoms: N_7  and  C_8 
REMARK    2  A    between atoms: C_8  and  C_9 
REMARK    3  A    between atoms: C_9  and  C_10 
ROOT
HETATM    1  C   UNL     1      42.521 -11.702   6.080  1.00  0.00     0.286 C 
HETATM    2  N   UNL     1      43.341 -12.349   7.205  1.00  0.00    -0.056 N 
HETATM    3  H   UNL     1      42.657 -12.709   7.905  1.00  0.00     0.278 HD
HETATM    4  H   UNL     1      43.828 -13.186   6.861  1.00  0.00     0.278 HD
HETATM    5  C   UNL     1      44.272 -11.448   7.961  1.00  0.00     0.209 C 
HETATM    6  C   UNL     1      43.529 -10.157   8.370  1.00  0.00     0.115 C 
HETATM    7  N   UNL     1      42.884  -9.513   7.231  1.00  0.00    -0.353 N 
HETATM    8  C   UNL     1      42.201 -10.205   6.270  1.00  0.00     0.249 C 
HETATM    9  O   UNL     1      41.396  -9.623   5.547  1.00  0.00    -0.271 OA
HETATM   10  C   UNL     1      45.528 -11.177   7.135  1.00  0.00     0.035 C 
HETATM   11  C   UNL     1      46.459 -10.218   7.876  1.00  0.00     0.002 C 
HETATM   12  C   UNL     1      45.749  -8.921   8.262  1.00  0.00     0.002 C 
HETATM   13  C   UNL     1      44.480  -9.185   9.074  1.00  0.00     0.027 C 
HETATM   14  H   UNL     1      42.548  -8.557   7.341  1.00  0.00     0.163 HD
ENDROOT
BRANCH   1  15
HETATM   15  C   UNL     1      41.202 -12.468   5.879  1.00  0.00     0.146 C 
BRANCH  15  16
HETATM   16  C   UNL     1      41.573 -13.922   5.700  1.00  0.00     0.224 C 
HETATM   17  N   UNL     1      42.504 -14.176   4.727  1.00  0.00    -0.327 N 
HETATM   18  H   UNL     1      43.050 -13.401   4.363  1.00  0.00     0.169 HD
HETATM   19  O   UNL     1      40.924 -14.746   6.349  1.00  0.00    -0.273 OA
BRANCH  17  20
HETATM   20  C   UNL     1      42.759 -15.425   4.116  1.00  0.00     0.035 A 
HETATM   21  C   UNL     1      43.489 -16.453   4.720  1.00  0.00     0.037 A 
HETATM   22  C   UNL     1      43.638 -17.708   4.101  1.00  0.00    -0.054 A 
HETATM   23  C   UNL     1      43.082 -17.919   2.827  1.00  0.00    -0.056 A 
HETATM   24  C   UNL     1      44.413 -18.786   4.811  1.00  0.00     0.049 C 
HETATM   25  C   UNL     1      43.209 -19.241   2.119  1.00  0.00     0.049 C 
HETATM   26  C   UNL     1      42.354 -16.886   2.223  1.00  0.00     0.009 A 
HETATM   27  C   UNL     1      42.189 -15.654   2.862  1.00  0.00     0.030 A 
ENDBRANCH  17  20
ENDBRANCH  15  16
ENDBRANCH   1  15
TORSDOF 3
ENDMDL
MODEL 4
REMARK VINA RESULT:      -8.3      3.593      6.324
REMARK  3 active torsions:
REMARK  status: ('A' for Active; 'I' for Inactive)
REMARK    1  A    between atoms: C_6  and  N_7 
REMARK       I    between atoms: N_7  and  C_8 
REMARK    2  A    between atoms: C_8  and  C_9 
REMARK    3  A    between atoms: C_9  and  C_10 
ROOT
HETATM    1  C   UNL     1      40.292 -11.943   4.998  1.00  0.00     0.286 C 
HETATM    2  N   UNL     1      41.520 -11.198   4.456  1.00  0.00    -0.056 N 
HETATM    3  H   UNL     1      41.860 -11.742   3.633  1.00  0.00     0.278 HD
HETATM    4  H   UNL     1      41.248 -10.285   4.071  1.00  0.00     0.278 HD
HETATM    5  C   UNL     1      42.693 -11.073   5.383  1.00  0.00     0.209 C 
HETATM    6  C   UNL     1      43.004 -12.447   6.018  1.00  0.00     0.115 C 
HETATM    7  N   UNL     1      41.825 -13.042   6.638  1.00  0.00    -0.353 N 
HETATM    8  C   UNL     1      40.586 -13.022   6.060  1.00  0.00     0.249 C 
HETATM    9  O   UNL     1      39.723 -13.815   6.427  1.00  0.00    -0.271 OA
HETATM   10  C   UNL     1      42.428  -9.983   6.420  1.00  0.00     0.035 C 
HETATM   11  C   UNL     1      43.596  -9.883   7.401  1.00  0.00     0.002 C 
HETATM   12  C   UNL     1      43.899 -11.228   8.062  1.00  0.00     0.002 C 
HETATM   13  C   UNL     1      44.147 -12.329   7.030  1.00  0.00     0.027 C 
HETATM   14  H   UNL     1      41.955 -13.837   7.262  1.00  0.00     0.163 HD
ENDROOT
BRANCH   1  15
HETATM   15  C   UNL     1      39.510 -12.588   3.840  1.00  0.00     0.146 C 
BRANCH  15  16
HETATM   16  C   UNL     1      40.452 -13.569   3.182  1.00  0.00     0.224 C 
HETATM   17  N   UNL     1      40.411 -14.846   3.676  1.00  0.00    -0.327 N 
HETATM   18  H   UNL     1      39.623 -15.117   4.257  1.00  0.00     0.169 HD
HETATM   19  O   UNL     1      41.249 -13.109   2.359  1.00  0.00    -0.273 OA
BRANCH  17  20
HETATM   20  C   UNL     1      41.400 -15.843   3.508  1.00  0.00     0.035 A 
HETATM   21  C   UNL     1      42.364 -16.153   4.471  1.00  0.00     0.037 A 
HETATM   22  C   UNL     1      43.270 -17.215   4.287  1.00  0.00    -0.054 A 
HETATM   23  C   UNL     1      43.237 -17.950   3.089  1.00  0.00    -0.056 A 
HETATM   24  C   UNL     1      44.269 -17.520   5.371  1.00  0.00     0.049 C 
HETATM   25  C   UNL     1      44.178 -19.096   2.838  1.00  0.00     0.049 C 
HETATM   26  C   UNL     1      42.271 -17.634   2.124  1.00  0.00     0.009 A 
HETATM   27  C   UNL     1      41.359 -16.596   2.333  1.00  0.00     0.030 A 
ENDBRANCH  17  20
ENDBRANCH  15  16
ENDBRANCH   1  15
TORSDOF 3
ENDMDL
MODEL 5
REMARK VINA RESULT:      -8.3      4.268      6.561
REMARK  3 active torsions:
REMARK  status: ('A' for Active; 'I' for Inactive)
REMARK    1  A    between atoms: C_6  and  N_7 
REMARK       I    between atoms: N_7  and  C_8 
REMARK    2  A    between atoms: C_8  and  C_9 
REMARK    3  A    between atoms: C_9  and  C_10 
ROOT
HETATM    1  C   UNL     1      43.332 -12.322   4.411  1.00  0.00     0.286 C 
HETATM    2  N   UNL     1      43.691 -12.996   5.743  1.00  0.00    -0.056 N 
HETATM    3  H   UNL     1      42.854 -13.545   6.036  1.00  0.00     0.278 HD
HETATM    4  H   UNL     1      44.428 -13.698   5.604  1.00  0.00     0.278 HD
HETATM    5  C   UNL     1      44.013 -12.087   6.891  1.00  0.00     0.209 C 
HETATM    6  C   UNL     1      42.934 -10.985   7.000  1.00  0.00     0.115 C 
HETATM    7  N   UNL     1      42.735 -10.287   5.735  1.00  0.00    -0.353 N 
HETATM    8  C   UNL     1      42.682 -10.928   4.528  1.00  0.00     0.249 C 
HETATM    9  O   UNL     1      42.174 -10.371   3.558  1.00  0.00    -0.271 OA
HETATM   10  C   UNL     1      45.425 -11.524   6.738  1.00  0.00     0.035 C 
HETATM   11  C   UNL     1      45.742 -10.556   7.877  1.00  0.00     0.002 C 
HETATM   12  C   UNL     1      44.701  -9.442   7.981  1.00  0.00     0.002 C 
HETATM   13  C   UNL     1      43.283  -9.996   8.116  1.00  0.00     0.027 C 
HETATM   14  H   UNL     1      42.210  -9.414   5.741  1.00  0.00     0.163 HD
ENDROOT
BRANCH   1  15
HETATM   15  C   UNL     1      42.402 -13.233   3.590  1.00  0.00     0.146 C 
BRANCH  15  16
HETATM   16  C   UNL     1      42.482 -14.604   4.220  1.00  0.00     0.224 C 
HETATM   17  N   UNL     1      43.463 -15.422   3.726  1.00  0.00    -0.327 N 
HETATM   18  H   UNL     1      44.205 -15.009   3.167  1.00  0.00     0.169 HD
HETATM   19  O   UNL     1      41.590 -14.902   5.019  1.00  0.00    -0.273 OA
BRANCH  17  20
HETATM   20  C   UNL     1      43.533 -16.828   3.864  1.00  0.00     0.035 A 
HETATM   21  C   UNL     1      43.335 -17.724   2.810  1.00  0.00     0.037 A 
HETATM   22  C   UNL     1      43.502 -19.111   2.985  1.00  0.00    -0.054 A 
HETATM   23  C   UNL     1      43.828 -19.611   4.258  1.00  0.00    -0.056 A 
HETATM   24  C   UNL     1      43.302 -20.026   1.806  1.00  0.00     0.049 C 
HETATM   25  C   UNL     1      44.021 -21.083   4.503  1.00  0.00     0.049 C 
HETATM   26  C   UNL     1      44.022 -18.710   5.313  1.00  0.00     0.009 A 
HETATM   27  C   UNL     1      43.881 -17.333   5.118  1.00  0.00     0.030 A 
ENDBRANCH  17  20
ENDBRANCH  15  16
ENDBRANCH   1  15
TORSDOF 3
ENDMDL
MODEL 6
REMARK VINA RESULT:      -8.1      3.961      4.771
REMARK  3 active torsions:
REMARK  status: ('A' for Active; 'I' for Inactive)
REMARK    1  A    between atoms: C_6  and  N_7 
REMARK       I    between atoms: N_7  and  C_8 
REMARK    2  A    between atoms: C_8  and  C_9 
REMARK    3  A    between atoms: C_9  and  C_10 
ROOT
HETATM    1  C   UNL     1      42.002 -13.342   5.377  1.00  0.00     0.286 C 
HETATM    2  N   UNL     1      43.132 -12.472   4.807  1.00  0.00    -0.056 N 
HETATM    3  H   UNL     1      43.686 -12.130   5.623  1.00  0.00     0.278 HD
HETATM    4  H   UNL     1      43.790 -13.046   4.266  1.00  0.00     0.278 HD
HETATM    5  C   UNL     1      42.719 -11.248   4.045  1.00  0.00     0.209 C 
HETATM    6  C   UNL     1      41.653 -10.469   4.848  1.00  0.00     0.115 C 
HETATM    7  N   UNL     1      40.536 -11.320   5.244  1.00  0.00    -0.353 N 
HETATM    8  C   UNL     1      40.698 -12.592   5.720  1.00  0.00     0.249 C 
HETATM    9  O   UNL     1      39.796 -13.130   6.356  1.00  0.00    -0.271 OA
HETATM   10  C   UNL     1      42.245 -11.635   2.646  1.00  0.00     0.035 C 
HETATM   11  C   UNL     1      41.774 -10.400   1.879  1.00  0.00     0.002 C 
HETATM   12  C   UNL     1      40.697  -9.633   2.646  1.00  0.00     0.002 C 
HETATM   13  C   UNL     1      41.156  -9.258   4.055  1.00  0.00     0.027 C 
HETATM   14  H   UNL     1      39.687 -10.876   5.589  1.00  0.00     0.163 HD
ENDROOT
BRANCH   1  15
HETATM   15  C   UNL     1      42.489 -14.087   6.631  1.00  0.00     0.146 C 
BRANCH  15  16
HETATM   16  C   UNL     1      42.614 -15.542   6.244  1.00  0.00     0.224 C 
HETATM   17  N   UNL     1      43.555 -15.817   5.287  1.00  0.00    -0.327 N 
HETATM   18  H   UNL     1      44.254 -15.110   5.075  1.00  0.00     0.169 HD
HETATM   19  O   UNL     1      41.784 -16.319   6.724  1.00  0.00    -0.273 OA
BRANCH  17  20
HETATM   20  C   UNL     1      43.633 -16.989   4.499  1.00  0.00     0.035 A 
HETATM   21  C   UNL     1      44.020 -18.237   4.996  1.00  0.00     0.037 A 
HETATM   22  C   UNL     1      43.996 -19.388   4.187  1.00  0.00    -0.054 A 
HETATM   23  C   UNL     1      43.622 -19.274   2.836  1.00  0.00    -0.056 A 
HETATM   24  C   UNL     1      44.397 -20.710   4.785  1.00  0.00     0.049 C 
HETATM   25  C   UNL     1      43.576 -20.471   1.926  1.00  0.00     0.049 C 
HETATM   26  C   UNL     1      43.238 -18.021   2.340  1.00  0.00     0.009 A 
HETATM   27  C   UNL     1      43.238 -16.892   3.163  1.00  0.00     0.030 A 
ENDBRANCH  17  20
ENDBRANCH  15  16
ENDBRANCH   1  15
TORSDOF 3
ENDMDL
MODEL 7
REMARK VINA RESULT:      -8.1      4.451      8.105
REMARK  3 active torsions:
REMARK  status: ('A' for Active; 'I' for Inactive)
REMARK    1  A    between atoms: C_6  and  N_7 
REMARK       I    between atoms: N_7  and  C_8 
REMARK    2  A    between atoms: C_8  and  C_9 
REMARK    3  A    between atoms: C_9  and  C_10 
ROOT
HETATM    1  C   UNL     1      42.643 -16.048   4.222  1.00  0.00     0.286 C 
HETATM    2  N   UNL     1      44.049 -16.513   4.625  1.00  0.00    -0.056 N 
HETATM    3  H   UNL     1      44.722 -15.977   4.035  1.00  0.00     0.278 HD
HETATM    4  H   UNL     1      44.261 -16.228   5.589  1.00  0.00     0.278 HD
HETATM    5  C   UNL     1      44.367 -17.962   4.402  1.00  0.00     0.209 C 
HETATM    6  C   UNL     1      43.938 -18.376   2.976  1.00  0.00     0.115 C 
HETATM    7  N   UNL     1      42.548 -18.030   2.701  1.00  0.00    -0.353 N 
HETATM    8  C   UNL     1      41.987 -16.839   3.071  1.00  0.00     0.249 C 
HETATM    9  O   UNL     1      40.956 -16.449   2.528  1.00  0.00    -0.271 OA
HETATM   10  C   UNL     1      43.718 -18.816   5.490  1.00  0.00     0.035 C 
HETATM   11  C   UNL     1      43.993 -20.299   5.243  1.00  0.00     0.002 C 
HETATM   12  C   UNL     1      43.548 -20.734   3.847  1.00  0.00     0.002 C 
HETATM   13  C   UNL     1      44.178 -19.872   2.752  1.00  0.00     0.027 C 
HETATM   14  H   UNL     1      42.100 -18.438   1.882  1.00  0.00     0.163 HD
ENDROOT
BRANCH   1  15
HETATM   15  C   UNL     1      42.666 -14.556   3.846  1.00  0.00     0.146 C 
BRANCH  15  16
HETATM   16  C   UNL     1      42.780 -13.789   5.143  1.00  0.00     0.224 C 
HETATM   17  N   UNL     1      43.238 -12.503   5.027  1.00  0.00    -0.327 N 
HETATM   18  H   UNL     1      43.243 -12.070   4.108  1.00  0.00     0.169 HD
HETATM   19  O   UNL     1      42.575 -14.421   6.182  1.00  0.00    -0.273 OA
BRANCH  17  20
HETATM   20  C   UNL     1      43.770 -11.705   6.066  1.00  0.00     0.035 A 
HETATM   21  C   UNL     1      42.990 -10.941   6.939  1.00  0.00     0.037 A 
HETATM   22  C   UNL     1      43.567 -10.235   8.011  1.00  0.00    -0.054 A 
HETATM   23  C   UNL     1      44.962 -10.257   8.181  1.00  0.00    -0.056 A 
HETATM   24  C   UNL     1      42.673  -9.450   8.934  1.00  0.00     0.049 C 
HETATM   25  C   UNL     1      45.633  -9.523   9.309  1.00  0.00     0.049 C 
HETATM   26  C   UNL     1      45.742 -11.022   7.302  1.00  0.00     0.009 A 
HETATM   27  C   UNL     1      45.152 -11.742   6.260  1.00  0.00     0.030 A 
ENDBRANCH  17  20
ENDBRANCH  15  16
ENDBRANCH   1  15
TORSDOF 3
ENDMDL
MODEL 8
REMARK VINA RESULT:      -7.9      7.222      9.774
REMARK  3 active torsions:
REMARK  status: ('A' for Active; 'I' for Inactive)
REMARK    1  A    between atoms: C_6  and  N_7 
REMARK       I    between atoms: N_7  and  C_8 
REMARK    2  A    between atoms: C_8  and  C_9 
REMARK    3  A    between atoms: C_9  and  C_10 
ROOT
HETATM    1  C   UNL     1      45.099 -10.376   8.762  1.00  0.00     0.286 C 
HETATM    2  N   UNL     1      43.767 -10.895   9.322  1.00  0.00    -0.056 N 
HETATM    3  H   UNL     1      43.151 -11.083   8.501  1.00  0.00     0.278 HD
HETATM    4  H   UNL     1      43.895 -11.811   9.768  1.00  0.00     0.278 HD
HETATM    5  C   UNL     1      42.999  -9.958  10.207  1.00  0.00     0.209 C 
HETATM    6  C   UNL     1      42.918  -8.564   9.545  1.00  0.00     0.115 C 
HETATM    7  N   UNL     1      44.233  -8.064   9.159  1.00  0.00    -0.353 N 
HETATM    8  C   UNL     1      45.188  -8.848   8.571  1.00  0.00     0.249 C 
HETATM    9  O   UNL     1      46.116  -8.329   7.956  1.00  0.00    -0.271 OA
HETATM   10  C   UNL     1      43.626  -9.920  11.600  1.00  0.00     0.035 C 
HETATM   11  C   UNL     1      42.883  -8.929  12.495  1.00  0.00     0.002 C 
HETATM   12  C   UNL     1      42.818  -7.537  11.869  1.00  0.00     0.002 C 
HETATM   13  C   UNL     1      42.209  -7.568  10.466  1.00  0.00     0.027 C 
HETATM   14  H   UNL     1      44.324  -7.081   8.911  1.00  0.00     0.163 HD
ENDROOT
BRANCH   1  15
HETATM   15  C   UNL     1      45.412 -11.061   7.420  1.00  0.00     0.146 C 
BRANCH  15  16
HETATM   16  C   UNL     1      44.113 -11.655   6.929  1.00  0.00     0.224 C 
HETATM   17  N   UNL     1      44.099 -13.019   6.804  1.00  0.00    -0.327 N 
HETATM   18  H   UNL     1      44.835 -13.556   7.255  1.00  0.00     0.169 HD
HETATM   19  O   UNL     1      43.239 -10.861   6.571  1.00  0.00    -0.273 OA
BRANCH  17  20
HETATM   20  C   UNL     1      43.180 -13.784   6.049  1.00  0.00     0.035 A 
HETATM   21  C   UNL     1      42.172 -14.569   6.615  1.00  0.00     0.037 A 
HETATM   22  C   UNL     1      41.229 -15.241   5.815  1.00  0.00    -0.054 A 
HETATM   23  C   UNL     1      41.330 -15.160   4.415  1.00  0.00    -0.056 A 
HETATM   24  C   UNL     1      40.149 -16.051   6.481  1.00  0.00     0.049 C 
HETATM   25  C   UNL     1      40.350 -15.855   3.510  1.00  0.00     0.049 C 
HETATM   26  C   UNL     1      42.344 -14.374   3.850  1.00  0.00     0.009 A 
HETATM   27  C   UNL     1      43.256 -13.689   4.658  1.00  0.00     0.030 A 
ENDBRANCH  17  20
ENDBRANCH  15  16
ENDBRANCH   1  15
TORSDOF 3
ENDMDL
MODEL 9
REMARK VINA RESULT:      -7.9      3.713      7.540
REMARK  3 active torsions:
REMARK  status: ('A' for Active; 'I' for Inactive)
REMARK    1  A    between atoms: C_6  and  N_7 
REMARK       I    between atoms: N_7  and  C_8 
REMARK    2  A    between atoms: C_8  and  C_9 
REMARK    3  A    between atoms: C_9  and  C_10 
ROOT
HETATM    1  C   UNL     1      42.780 -16.746   6.611  1.00  0.00     0.286 C 
HETATM    2  N   UNL     1      44.166 -16.843   5.959  1.00  0.00    -0.056 N 
HETATM    3  H   UNL     1      44.552 -15.874   5.933  1.00  0.00     0.278 HD
HETATM    4  H   UNL     1      44.813 -17.366   6.561  1.00  0.00     0.278 HD
HETATM    5  C   UNL     1      44.211 -17.344   4.546  1.00  0.00     0.209 C 
HETATM    6  C   UNL     1      43.152 -16.603   3.697  1.00  0.00     0.115 C 
HETATM    7  N   UNL     1      41.826 -16.664   4.302  1.00  0.00    -0.353 N 
HETATM    8  C   UNL     1      41.607 -16.497   5.641  1.00  0.00     0.249 C 
HETATM    9  O   UNL     1      40.485 -16.208   6.049  1.00  0.00    -0.271 OA
HETATM   10  C   UNL     1      44.038 -18.861   4.520  1.00  0.00     0.035 C 
HETATM   11  C   UNL     1      44.030 -19.375   3.081  1.00  0.00     0.002 C 
HETATM   12  C   UNL     1      42.969 -18.675   2.234  1.00  0.00     0.002 C 
HETATM   13  C   UNL     1      43.122 -17.153   2.269  1.00  0.00     0.027 C 
HETATM   14  H   UNL     1      41.022 -16.398   3.735  1.00  0.00     0.163 HD
ENDROOT
BRANCH   1  15
HETATM   15  C   UNL     1      42.776 -15.645   7.686  1.00  0.00     0.146 C 
BRANCH  15  16
HETATM   16  C   UNL     1      42.935 -14.332   6.954  1.00  0.00     0.224 C 
HETATM   17  N   UNL     1      41.782 -13.614   6.776  1.00  0.00    -0.327 N 
HETATM   18  H   UNL     1      40.965 -13.863   7.326  1.00  0.00     0.169 HD
HETATM   19  O   UNL     1      44.049 -14.091   6.482  1.00  0.00    -0.273 OA
BRANCH  17  20
HETATM   20  C   UNL     1      41.580 -12.569   5.845  1.00  0.00     0.035 A 
HETATM   21  C   UNL     1      40.892 -12.725   4.639  1.00  0.00     0.037 A 
HETATM   22  C   UNL     1      40.644 -11.630   3.790  1.00  0.00    -0.054 A 
HETATM   23  C   UNL     1      41.140 -10.361   4.137  1.00  0.00    -0.056 A 
HETATM   24  C   UNL     1      39.873 -11.852   2.516  1.00  0.00     0.049 C 
HETATM   25  C   UNL     1      40.904  -9.155   3.269  1.00  0.00     0.049 C 
HETATM   26  C   UNL     1      41.833 -10.209   5.346  1.00  0.00     0.009 A 
HETATM   27  C   UNL     1      42.046 -11.300   6.193  1.00  0.00     0.030 A 
ENDBRANCH  17  20
ENDBRANCH  15  16
ENDBRANCH   1  15
TORSDOF 3
ENDMDL
MODEL 10
REMARK VINA RESULT:      -7.8      1.758      2.908
REMARK  3 active torsions:
REMARK  status: ('A' for Active; 'I' for Inactive)
REMARK    1  A    between atoms: C_6  and  N_7 
REMARK       I    between atoms: N_7  and  C_8 
REMARK    2  A    between atoms: C_8  and  C_9 
REMARK    3  A    between atoms: C_9  and  C_10 
ROOT
HETATM    1  C   UNL     1      39.859 -11.231   1.456  1.00  0.00     0.286 C 
HETATM    2  N   UNL     1      38.898 -12.410   1.250  1.00  0.00    -0.056 N 
HETATM    3  H   UNL     1      39.210 -13.166   1.897  1.00  0.00     0.278 HD
HETATM    4  H   UNL     1      37.953 -12.165   1.570  1.00  0.00     0.278 HD
HETATM    5  C   UNL     1      38.869 -13.022  -0.120  1.00  0.00     0.209 C 
HETATM    6  C   UNL     1      40.313 -13.279  -0.605  1.00  0.00     0.115 C 
HETATM    7  N   UNL     1      41.143 -12.083  -0.513  1.00  0.00    -0.353 N 
HETATM    8  C   UNL     1      41.115 -11.234   0.559  1.00  0.00     0.249 C 
HETATM    9  O   UNL     1      42.049 -10.462   0.758  1.00  0.00    -0.271 OA
HETATM   10  C   UNL     1      38.069 -12.137  -1.074  1.00  0.00     0.035 C 
HETATM   11  C   UNL     1      38.077 -12.727  -2.484  1.00  0.00     0.002 C 
HETATM   12  C   UNL     1      39.499 -12.961  -2.993  1.00  0.00     0.002 C 
HETATM   13  C   UNL     1      40.314 -13.830  -2.034  1.00  0.00     0.027 C 
HETATM   14  H   UNL     1      42.040 -12.076  -0.996  1.00  0.00     0.163 HD
ENDROOT
BRANCH   1  15
HETATM   15  C   UNL     1      40.303 -11.161   2.928  1.00  0.00     0.146 C 
BRANCH  15  16
HETATM   16  C   UNL     1      40.678 -12.569   3.329  1.00  0.00     0.224 C 
HETATM   17  N   UNL     1      41.967 -12.938   3.045  1.00  0.00    -0.327 N 
HETATM   18  H   UNL     1      42.641 -12.212   2.817  1.00  0.00     0.169 HD
HETATM   19  O   UNL     1      39.770 -13.286   3.754  1.00  0.00    -0.273 OA
BRANCH  17  20
HETATM   20  C   UNL     1      42.465 -14.259   2.977  1.00  0.00     0.035 A 
HETATM   21  C   UNL     1      42.808 -15.020   4.099  1.00  0.00     0.037 A 
HETATM   22  C   UNL     1      43.217 -16.361   3.978  1.00  0.00    -0.054 A 
HETATM   23  C   UNL     1      43.330 -16.935   2.699  1.00  0.00    -0.056 A 
HETATM   24  C   UNL     1      43.547 -17.140   5.223  1.00  0.00     0.049 C 
HETATM   25  C   UNL     1      43.761 -18.364   2.510  1.00  0.00     0.049 C 
HETATM   26  C   UNL     1      42.989 -16.169   1.577  1.00  0.00     0.009 A 
HETATM   27  C   UNL     1      42.557 -14.847   1.714  1.00  0.00     0.030 A 
ENDBRANCH  17  20
ENDBRANCH  15  16
ENDBRANCH   1  15
TORSDOF 3
ENDMDL
