MODEL 1
REMARK VINA RESULT:      -8.7      0.000      0.000
REMARK  9 active torsions:
REMARK  status: ('A' for Active; 'I' for Inactive)
REMARK    1  A    between atoms: C_4  and  S_5 
REMARK    2  A    between atoms: S_5  and  C_6 
REMARK    3  A    between atoms: C_6  and  C_7 
REMARK       I    between atoms: C_7  and  N_8 
REMARK    4  A    between atoms: N_8  and  C_9 
REMARK    5  A    between atoms: N_11  and  C_12 
REMARK    6  A    between atoms: C_12  and  C_13 
REMARK       I    between atoms: C_13  and  N_14 
REMARK    7  A    between atoms: N_14  and  C_15 
REMARK    8  A    between atoms: C_15  and  C_16 
REMARK    9  A    between atoms: C_16  and  N_17 
ROOT
HETATM    1  C   UNL     1      45.174 -10.546   7.895  1.00  0.00     0.253 C 
ENDROOT
BRANCH   1   2
HETATM    2  N   UNL     1      44.098 -11.193   7.157  1.00  0.00    -0.270 N 
HETATM    3  C   UNL     1      44.099 -12.511   6.795  1.00  0.00     0.144 A 
HETATM    4  C   UNL     1      43.041 -12.689   5.941  1.00  0.00     0.071 A 
HETATM    5  C   UNL     1      42.428 -11.418   5.881  1.00  0.00     0.169 A 
HETATM    6  N   UNL     1      43.086 -10.488   6.587  1.00  0.00    -0.183 NA
BRANCH   4   7
HETATM    7  N   UNL     1      42.682 -13.831   5.251  1.00  0.00    -0.324 N 
HETATM    8  C   UNL     1      42.032 -14.919   5.810  1.00  0.00     0.231 C 
HETATM    9  O   UNL     1      41.513 -14.940   6.925  1.00  0.00    -0.272 OA
HETATM   10  H   UNL     1      43.067 -13.955   4.320  1.00  0.00     0.169 HD
BRANCH   8  11
HETATM   11  C   UNL     1      41.964 -16.148   4.916  1.00  0.00     0.182 C 
BRANCH  11  12
HETATM   12  S   UNL     1      43.497 -16.440   3.965  1.00  0.00    -0.121 SA
BRANCH  12  13
HETATM   13  C   UNL     1      43.667 -18.224   3.915  1.00  0.00     0.001 A 
HETATM   14  C   UNL     1      44.007 -19.044   4.995  1.00  0.00     0.018 A 
HETATM   15  C   UNL     1      44.142 -20.428   4.827  1.00  0.00     0.001 A 
HETATM   16  C   UNL     1      43.927 -21.010   3.582  1.00  0.00     0.000 A 
HETATM   17  C   UNL     1      43.574 -20.210   2.501  1.00  0.00     0.001 A 
HETATM   18  C   UNL     1      43.448 -18.828   2.667  1.00  0.00     0.018 A 
ENDBRANCH  12  13
ENDBRANCH  11  12
ENDBRANCH   8  11
ENDBRANCH   4   7
ENDBRANCH   1   2
BRANCH   1  19
HETATM   19  C   UNL     1      44.933  -9.128   8.370  1.00  0.00     0.237 C 
HETATM   20  N   UNL     1      43.691  -8.829   8.889  1.00  0.00    -0.357 N 
HETATM   21  H   UNL     1      43.194  -9.644   9.272  1.00  0.00     0.162 HD
HETATM   22  O   UNL     1      45.762  -8.241   8.167  1.00  0.00    -0.272 OA
BRANCH  20  23
HETATM   23  C   UNL     1      43.382  -7.513   9.415  1.00  0.00     0.161 C 
BRANCH  23  24
HETATM   24  C   UNL     1      42.647  -7.489  10.800  1.00  0.00     0.143 C 
HETATM   25  C   UNL     1      42.688  -6.087  11.462  1.00  0.00     0.041 C 
HETATM   26  C   UNL     1      42.137  -6.056  12.888  1.00  0.00     0.002 C 
HETATM   27  C   UNL     1      42.859  -7.052  13.788  1.00  0.00     0.000 C 
HETATM   28  C   UNL     1      42.870  -8.457  13.197  1.00  0.00     0.002 C 
HETATM   29  C   UNL     1      43.397  -8.461  11.760  1.00  0.00     0.041 C 
BRANCH  24  30
HETATM   30  N   UNL     1      41.152  -7.968  10.672  1.00  0.00    -0.057 N 
HETATM   31  H   UNL     1      40.712  -7.742  11.570  1.00  0.00     0.281 HD
HETATM   32  C   UNL     1      40.286  -7.247   9.623  1.00  0.00     0.262 C 
HETATM   33  C   UNL     1      38.824  -7.693   9.778  1.00  0.00     0.195 C 
HETATM   34  O   UNL     1      38.698  -9.108   9.618  1.00  0.00    -0.388 OA
HETATM   35  C   UNL     1      39.466  -9.823  10.588  1.00  0.00     0.195 C 
HETATM   36  C   UNL     1      40.957  -9.479  10.477  1.00  0.00     0.262 C 
ENDBRANCH  24  30
ENDBRANCH  23  24
ENDBRANCH  20  23
ENDBRANCH   1  19
TORSDOF 9
ENDMDL
MODEL 2
REMARK VINA RESULT:      -8.6      2.010      2.625
REMARK  9 active torsions:
REMARK  status: ('A' for Active; 'I' for Inactive)
REMARK    1  A    between atoms: C_4  and  S_5 
REMARK    2  A    between atoms: S_5  and  C_6 
REMARK    3  A    between atoms: C_6  and  C_7 
REMARK       I    between atoms: C_7  and  N_8 
REMARK    4  A    between atoms: N_8  and  C_9 
REMARK    5  A    between atoms: N_11  and  C_12 
REMARK    6  A    between atoms: C_12  and  C_13 
REMARK       I    between atoms: C_13  and  N_14 
REMARK    7  A    between atoms: N_14  and  C_15 
REMARK    8  A    between atoms: C_15  and  C_16 
REMARK    9  A    between atoms: C_16  and  N_17 
ROOT
HETATM    1  C   UNL     1      45.262 -10.102   9.683  1.00  0.00     0.253 C 
ENDROOT
BRANCH   1   2
HETATM    2  N   UNL     1      45.148 -10.701   8.360  1.00  0.00    -0.270 N 
HETATM    3  C   UNL     1      44.162 -11.573   7.996  1.00  0.00     0.144 A 
HETATM    4  C   UNL     1      44.510 -12.077   6.769  1.00  0.00     0.071 A 
HETATM    5  C   UNL     1      45.713 -11.409   6.451  1.00  0.00     0.169 A 
HETATM    6  N   UNL     1      46.133 -10.596   7.431  1.00  0.00    -0.183 NA
BRANCH   4   7
HETATM    7  N   UNL     1      43.868 -13.052   6.030  1.00  0.00    -0.324 N 
HETATM    8  C   UNL     1      42.737 -12.842   5.259  1.00  0.00     0.231 C 
HETATM    9  O   UNL     1      42.274 -11.740   4.964  1.00  0.00    -0.272 OA
HETATM   10  H   UNL     1      44.137 -14.017   6.197  1.00  0.00     0.169 HD
BRANCH   8  11
HETATM   11  C   UNL     1      42.075 -14.109   4.739  1.00  0.00     0.182 C 
BRANCH  11  12
HETATM   12  S   UNL     1      42.471 -15.593   5.730  1.00  0.00    -0.121 SA
BRANCH  12  13
HETATM   13  C   UNL     1      43.000 -16.813   4.528  1.00  0.00     0.001 A 
HETATM   14  C   UNL     1      42.531 -16.926   3.215  1.00  0.00     0.018 A 
HETATM   15  C   UNL     1      42.996 -17.944   2.374  1.00  0.00     0.001 A 
HETATM   16  C   UNL     1      43.946 -18.853   2.830  1.00  0.00     0.000 A 
HETATM   17  C   UNL     1      44.433 -18.747   4.128  1.00  0.00     0.001 A 
HETATM   18  C   UNL     1      43.961 -17.736   4.970  1.00  0.00     0.018 A 
ENDBRANCH  12  13
ENDBRANCH  11  12
ENDBRANCH   8  11
ENDBRANCH   4   7
ENDBRANCH   1   2
BRANCH   1  19
HETATM   19  C   UNL     1      44.132 -10.356  10.658  1.00  0.00     0.237 C 
HETATM   20  N   UNL     1      43.117  -9.424  10.718  1.00  0.00    -0.357 N 
HETATM   21  H   UNL     1      43.005  -8.875   9.856  1.00  0.00     0.162 HD
HETATM   22  O   UNL     1      44.187 -11.281  11.468  1.00  0.00    -0.272 OA
BRANCH  20  23
HETATM   23  C   UNL     1      41.967  -9.604  11.585  1.00  0.00     0.161 C 
BRANCH  23  24
HETATM   24  C   UNL     1      41.741  -8.482  12.657  1.00  0.00     0.143 C 
HETATM   25  C   UNL     1      43.050  -7.723  12.997  1.00  0.00     0.041 C 
HETATM   26  C   UNL     1      42.914  -6.739  14.160  1.00  0.00     0.002 C 
HETATM   27  C   UNL     1      42.398  -7.428  15.418  1.00  0.00     0.000 C 
HETATM   28  C   UNL     1      41.113  -8.208  15.159  1.00  0.00     0.002 C 
HETATM   29  C   UNL     1      41.262  -9.164  13.974  1.00  0.00     0.041 C 
BRANCH  24  30
HETATM   30  N   UNL     1      40.640  -7.453  12.197  1.00  0.00    -0.057 N 
HETATM   31  H   UNL     1      40.516  -6.811  12.986  1.00  0.00     0.281 HD
HETATM   32  C   UNL     1      41.001  -6.545  11.008  1.00  0.00     0.262 C 
HETATM   33  C   UNL     1      39.908  -5.480  10.832  1.00  0.00     0.195 C 
HETATM   34  O   UNL     1      38.632  -6.084  10.607  1.00  0.00    -0.388 OA
HETATM   35  C   UNL     1      38.240  -6.920  11.698  1.00  0.00     0.195 C 
HETATM   36  C   UNL     1      39.252  -8.052  11.920  1.00  0.00     0.262 C 
ENDBRANCH  24  30
ENDBRANCH  23  24
ENDBRANCH  20  23
ENDBRANCH   1  19
TORSDOF 9
ENDMDL
MODEL 3
REMARK VINA RESULT:      -8.3      1.685      2.342
REMARK  9 active torsions:
REMARK  status: ('A' for Active; 'I' for Inactive)
REMARK    1  A    between atoms: C_4  and  S_5 
REMARK    2  A    between atoms: S_5  and  C_6 
REMARK    3  A    between atoms: C_6  and  C_7 
REMARK       I    between atoms: C_7  and  N_8 
REMARK    4  A    between atoms: N_8  and  C_9 
REMARK    5  A    between atoms: N_11  and  C_12 
REMARK    6  A    between atoms: C_12  and  C_13 
REMARK       I    between atoms: C_13  and  N_14 
REMARK    7  A    between atoms: N_14  and  C_15 
REMARK    8  A    between atoms: C_15  and  C_16 
REMARK    9  A    between atoms: C_16  and  N_17 
ROOT
HETATM    1  C   UNL     1      45.145 -10.291   7.704  1.00  0.00     0.253 C 
ENDROOT
BRANCH   1   2
HETATM    2  N   UNL     1      44.567 -11.444   7.026  1.00  0.00    -0.270 N 
HETATM    3  C   UNL     1      44.322 -11.501   5.683  1.00  0.00     0.144 A 
HETATM    4  C   UNL     1      43.587 -12.637   5.461  1.00  0.00     0.071 A 
HETATM    5  C   UNL     1      43.475 -13.231   6.738  1.00  0.00     0.169 A 
HETATM    6  N   UNL     1      44.035 -12.492   7.707  1.00  0.00    -0.183 NA
BRANCH   4   7
HETATM    7  N   UNL     1      43.034 -13.081   4.275  1.00  0.00    -0.324 N 
HETATM    8  C   UNL     1      41.678 -13.094   3.993  1.00  0.00     0.231 C 
HETATM    9  O   UNL     1      40.808 -12.536   4.661  1.00  0.00    -0.272 OA
HETATM   10  H   UNL     1      43.641 -13.586   3.637  1.00  0.00     0.169 HD
BRANCH   8  11
HETATM   11  C   UNL     1      41.298 -13.849   2.728  1.00  0.00     0.182 C 
BRANCH  11  12
HETATM   12  S   UNL     1      40.554 -15.486   3.057  1.00  0.00    -0.121 SA
BRANCH  12  13
HETATM   13  C   UNL     1      41.946 -16.553   3.421  1.00  0.00     0.001 A 
HETATM   14  C   UNL     1      42.613 -17.371   2.505  1.00  0.00     0.018 A 
HETATM   15  C   UNL     1      43.673 -18.189   2.914  1.00  0.00     0.001 A 
HETATM   16  C   UNL     1      44.088 -18.190   4.242  1.00  0.00     0.000 A 
HETATM   17  C   UNL     1      43.445 -17.372   5.164  1.00  0.00     0.001 A 
HETATM   18  C   UNL     1      42.382 -16.562   4.756  1.00  0.00     0.018 A 
ENDBRANCH  12  13
ENDBRANCH  11  12
ENDBRANCH   8  11
ENDBRANCH   4   7
ENDBRANCH   1   2
BRANCH   1  19
HETATM   19  C   UNL     1      45.028 -10.245   9.213  1.00  0.00     0.237 C 
HETATM   20  N   UNL     1      44.185  -9.302   9.761  1.00  0.00    -0.357 N 
HETATM   21  H   UNL     1      43.433  -8.999   9.128  1.00  0.00     0.162 HD
HETATM   22  O   UNL     1      45.765 -10.924   9.928  1.00  0.00    -0.272 OA
BRANCH  20  23
HETATM   23  C   UNL     1      43.969  -9.213  11.193  1.00  0.00     0.161 C 
BRANCH  23  24
HETATM   24  C   UNL     1      42.895  -8.168  11.655  1.00  0.00     0.143 C 
HETATM   25  C   UNL     1      42.851  -6.923  10.731  1.00  0.00     0.041 C 
HETATM   26  C   UNL     1      41.944  -5.802  11.240  1.00  0.00     0.002 C 
HETATM   27  C   UNL     1      42.333  -5.363  12.646  1.00  0.00     0.000 C 
HETATM   28  C   UNL     1      42.408  -6.539  13.615  1.00  0.00     0.002 C 
HETATM   29  C   UNL     1      43.297  -7.660  13.073  1.00  0.00     0.041 C 
BRANCH  24  30
HETATM   30  N   UNL     1      41.460  -8.810  11.743  1.00  0.00    -0.057 N 
HETATM   31  H   UNL     1      40.848  -8.071  12.103  1.00  0.00     0.281 HD
HETATM   32  C   UNL     1      40.814  -9.235  10.411  1.00  0.00     0.262 C 
HETATM   33  C   UNL     1      39.355  -9.644  10.662  1.00  0.00     0.195 C 
HETATM   34  O   UNL     1      39.275 -10.719  11.601  1.00  0.00    -0.388 OA
HETATM   35  C   UNL     1      39.841 -10.363  12.864  1.00  0.00     0.195 C 
HETATM   36  C   UNL     1      41.321  -9.985  12.722  1.00  0.00     0.262 C 
ENDBRANCH  24  30
ENDBRANCH  23  24
ENDBRANCH  20  23
ENDBRANCH   1  19
TORSDOF 9
ENDMDL
MODEL 4
REMARK VINA RESULT:      -8.2      1.237      2.492
REMARK  9 active torsions:
REMARK  status: ('A' for Active; 'I' for Inactive)
REMARK    1  A    between atoms: C_4  and  S_5 
REMARK    2  A    between atoms: S_5  and  C_6 
REMARK    3  A    between atoms: C_6  and  C_7 
REMARK       I    between atoms: C_7  and  N_8 
REMARK    4  A    between atoms: N_8  and  C_9 
REMARK    5  A    between atoms: N_11  and  C_12 
REMARK    6  A    between atoms: C_12  and  C_13 
REMARK       I    between atoms: C_13  and  N_14 
REMARK    7  A    between atoms: N_14  and  C_15 
REMARK    8  A    between atoms: C_15  and  C_16 
REMARK    9  A    between atoms: C_16  and  N_17 
ROOT
HETATM    1  C   UNL     1      45.312 -10.575   7.959  1.00  0.00     0.253 C 
ENDROOT
BRANCH   1   2
HETATM    2  N   UNL     1      44.229 -11.264   7.270  1.00  0.00    -0.270 N 
HETATM    3  C   UNL     1      44.303 -12.552   6.819  1.00  0.00     0.144 A 
HETATM    4  C   UNL     1      43.191 -12.767   6.047  1.00  0.00     0.071 A 
HETATM    5  C   UNL     1      42.474 -11.553   6.128  1.00  0.00     0.169 A 
HETATM    6  N   UNL     1      43.116 -10.615   6.839  1.00  0.00    -0.183 NA
BRANCH   4   7
HETATM    7  N   UNL     1      42.864 -13.891   5.312  1.00  0.00    -0.324 N 
HETATM    8  C   UNL     1      41.810 -14.743   5.599  1.00  0.00     0.231 C 
HETATM    9  O   UNL     1      40.913 -14.514   6.409  1.00  0.00    -0.272 OA
HETATM   10  H   UNL     1      43.536 -14.208   4.621  1.00  0.00     0.169 HD
BRANCH   8  11
HETATM   11  C   UNL     1      41.800 -16.036   4.797  1.00  0.00     0.182 C 
BRANCH  11  12
HETATM   12  S   UNL     1      43.188 -16.168   3.615  1.00  0.00    -0.121 SA
BRANCH  12  13
HETATM   13  C   UNL     1      43.437 -17.929   3.403  1.00  0.00     0.001 A 
HETATM   14  C   UNL     1      43.161 -18.661   2.244  1.00  0.00     0.018 A 
HETATM   15  C   UNL     1      43.367 -20.045   2.205  1.00  0.00     0.001 A 
HETATM   16  C   UNL     1      43.864 -20.714   3.320  1.00  0.00     0.000 A 
HETATM   17  C   UNL     1      44.157 -19.999   4.477  1.00  0.00     0.001 A 
HETATM   18  C   UNL     1      43.942 -18.619   4.517  1.00  0.00     0.018 A 
ENDBRANCH  12  13
ENDBRANCH  11  12
ENDBRANCH   8  11
ENDBRANCH   4   7
ENDBRANCH   1   2
BRANCH   1  19
HETATM   19  C   UNL     1      44.976  -9.264   8.639  1.00  0.00     0.237 C 
HETATM   20  N   UNL     1      43.934  -9.260   9.542  1.00  0.00    -0.357 N 
HETATM   21  H   UNL     1      43.748 -10.179   9.965  1.00  0.00     0.162 HD
HETATM   22  O   UNL     1      45.515  -8.212   8.293  1.00  0.00    -0.272 OA
BRANCH  20  23
HETATM   23  C   UNL     1      43.570  -8.065  10.280  1.00  0.00     0.161 C 
BRANCH  23  24
HETATM   24  C   UNL     1      42.060  -7.649  10.198  1.00  0.00     0.143 C 
HETATM   25  C   UNL     1      41.393  -8.117   8.878  1.00  0.00     0.041 C 
HETATM   26  C   UNL     1      39.973  -7.586   8.677  1.00  0.00     0.002 C 
HETATM   27  C   UNL     1      39.931  -6.064   8.743  1.00  0.00     0.000 C 
HETATM   28  C   UNL     1      40.581  -5.526  10.013  1.00  0.00     0.002 C 
HETATM   29  C   UNL     1      41.988  -6.093  10.210  1.00  0.00     0.041 C 
BRANCH  24  30
HETATM   30  N   UNL     1      41.240  -8.197  11.426  1.00  0.00    -0.057 N 
HETATM   31  H   UNL     1      40.331  -7.724  11.384  1.00  0.00     0.281 HD
HETATM   32  C   UNL     1      40.897  -9.698  11.410  1.00  0.00     0.262 C 
HETATM   33  C   UNL     1      39.932 -10.011  12.563  1.00  0.00     0.195 C 
HETATM   34  O   UNL     1      40.505  -9.661  13.825  1.00  0.00    -0.388 OA
HETATM   35  C   UNL     1      40.818  -8.268  13.898  1.00  0.00     0.195 C 
HETATM   36  C   UNL     1      41.822  -7.868  12.809  1.00  0.00     0.262 C 
ENDBRANCH  24  30
ENDBRANCH  23  24
ENDBRANCH  20  23
ENDBRANCH   1  19
TORSDOF 9
ENDMDL
MODEL 5
REMARK VINA RESULT:      -8.0      7.466     10.416
REMARK  9 active torsions:
REMARK  status: ('A' for Active; 'I' for Inactive)
REMARK    1  A    between atoms: C_4  and  S_5 
REMARK    2  A    between atoms: S_5  and  C_6 
REMARK    3  A    between atoms: C_6  and  C_7 
REMARK       I    between atoms: C_7  and  N_8 
REMARK    4  A    between atoms: N_8  and  C_9 
REMARK    5  A    between atoms: N_11  and  C_12 
REMARK    6  A    between atoms: C_12  and  C_13 
REMARK       I    between atoms: C_13  and  N_14 
REMARK    7  A    between atoms: N_14  and  C_15 
REMARK    8  A    between atoms: C_15  and  C_16 
REMARK    9  A    between atoms: C_16  and  N_17 
ROOT
HETATM    1  C   UNL     1      39.438 -15.011  -1.271  1.00  0.00     0.253 C 
ENDROOT
BRANCH   1   2
HETATM    2  N   UNL     1      39.920 -14.617   0.045  1.00  0.00    -0.270 N 
HETATM    3  C   UNL     1      40.340 -15.496   1.004  1.00  0.00     0.144 A 
HETATM    4  C   UNL     1      40.505 -14.776   2.158  1.00  0.00     0.071 A 
HETATM    5  C   UNL     1      40.200 -13.449   1.785  1.00  0.00     0.169 A 
HETATM    6  N   UNL     1      39.803 -13.345   0.508  1.00  0.00    -0.183 NA
BRANCH   4   7
HETATM    7  N   UNL     1      40.841 -15.241   3.416  1.00  0.00    -0.324 N 
HETATM    8  C   UNL     1      42.133 -15.327   3.907  1.00  0.00     0.231 C 
HETATM    9  O   UNL     1      43.126 -14.824   3.383  1.00  0.00    -0.272 OA
HETATM   10  H   UNL     1      40.115 -15.708   3.950  1.00  0.00     0.169 HD
BRANCH   8  11
HETATM   11  C   UNL     1      42.268 -16.094   5.214  1.00  0.00     0.182 C 
BRANCH  11  12
HETATM   12  S   UNL     1      43.945 -16.768   5.490  1.00  0.00    -0.121 SA
BRANCH  12  13
HETATM   13  C   UNL     1      43.885 -18.425   4.812  1.00  0.00     0.001 A 
HETATM   14  C   UNL     1      43.886 -19.612   5.551  1.00  0.00     0.018 A 
HETATM   15  C   UNL     1      43.869 -20.856   4.907  1.00  0.00     0.001 A 
HETATM   16  C   UNL     1      43.838 -20.928   3.518  1.00  0.00     0.000 A 
HETATM   17  C   UNL     1      43.822 -19.757   2.768  1.00  0.00     0.001 A 
HETATM   18  C   UNL     1      43.848 -18.516   3.411  1.00  0.00     0.018 A 
ENDBRANCH  12  13
ENDBRANCH  11  12
ENDBRANCH   8  11
ENDBRANCH   4   7
ENDBRANCH   1   2
BRANCH   1  19
HETATM   19  C   UNL     1      38.878 -13.919  -2.159  1.00  0.00     0.237 C 
HETATM   20  N   UNL     1      37.726 -13.284  -1.743  1.00  0.00    -0.357 N 
HETATM   21  H   UNL     1      37.579 -13.315  -0.726  1.00  0.00     0.162 HD
HETATM   22  O   UNL     1      39.347 -13.705  -3.276  1.00  0.00    -0.272 OA
BRANCH  20  23
HETATM   23  C   UNL     1      37.142 -12.193  -2.500  1.00  0.00     0.161 C 
BRANCH  23  24
HETATM   24  C   UNL     1      37.158 -10.792  -1.796  1.00  0.00     0.143 C 
HETATM   25  C   UNL     1      37.213 -10.912  -0.250  1.00  0.00     0.041 C 
HETATM   26  C   UNL     1      37.055  -9.579   0.483  1.00  0.00     0.002 C 
HETATM   27  C   UNL     1      35.766  -8.871   0.085  1.00  0.00     0.000 C 
HETATM   28  C   UNL     1      35.634  -8.725  -1.427  1.00  0.00     0.002 C 
HETATM   29  C   UNL     1      35.824 -10.064  -2.142  1.00  0.00     0.041 C 
BRANCH  24  30
HETATM   30  N   UNL     1      38.358  -9.903  -2.298  1.00  0.00    -0.057 N 
HETATM   31  H   UNL     1      38.202  -8.975  -1.893  1.00  0.00     0.281 HD
HETATM   32  C   UNL     1      39.762 -10.308  -1.815  1.00  0.00     0.262 C 
HETATM   33  C   UNL     1      40.772  -9.226  -2.226  1.00  0.00     0.195 C 
HETATM   34  O   UNL     1      40.783  -9.045  -3.644  1.00  0.00    -0.388 OA
HETATM   35  C   UNL     1      39.504  -8.643  -4.139  1.00  0.00     0.195 C 
HETATM   36  C   UNL     1      38.432  -9.692  -3.817  1.00  0.00     0.262 C 
ENDBRANCH  24  30
ENDBRANCH  23  24
ENDBRANCH  20  23
ENDBRANCH   1  19
TORSDOF 9
ENDMDL
MODEL 6
REMARK VINA RESULT:      -8.0      1.617      2.322
REMARK  9 active torsions:
REMARK  status: ('A' for Active; 'I' for Inactive)
REMARK    1  A    between atoms: C_4  and  S_5 
REMARK    2  A    between atoms: S_5  and  C_6 
REMARK    3  A    between atoms: C_6  and  C_7 
REMARK       I    between atoms: C_7  and  N_8 
REMARK    4  A    between atoms: N_8  and  C_9 
REMARK    5  A    between atoms: N_11  and  C_12 
REMARK    6  A    between atoms: C_12  and  C_13 
REMARK       I    between atoms: C_13  and  N_14 
REMARK    7  A    between atoms: N_14  and  C_15 
REMARK    8  A    between atoms: C_15  and  C_16 
REMARK    9  A    between atoms: C_16  and  N_17 
ROOT
HETATM    1  C   UNL     1      45.400 -10.475   8.434  1.00  0.00     0.253 C 
ENDROOT
BRANCH   1   2
HETATM    2  N   UNL     1      44.839 -11.099   7.244  1.00  0.00    -0.270 N 
HETATM    3  C   UNL     1      43.952 -12.139   7.268  1.00  0.00     0.144 A 
HETATM    4  C   UNL     1      43.827 -12.585   5.977  1.00  0.00     0.071 A 
HETATM    5  C   UNL     1      44.652 -11.716   5.230  1.00  0.00     0.169 A 
HETATM    6  N   UNL     1      45.305 -10.830   5.997  1.00  0.00    -0.183 NA
BRANCH   4   7
HETATM    7  N   UNL     1      43.106 -13.668   5.512  1.00  0.00    -0.324 N 
HETATM    8  C   UNL     1      41.745 -13.658   5.256  1.00  0.00     0.231 C 
HETATM    9  O   UNL     1      41.038 -12.652   5.212  1.00  0.00    -0.272 OA
HETATM   10  H   UNL     1      43.566 -14.573   5.520  1.00  0.00     0.169 HD
BRANCH   8  11
HETATM   11  C   UNL     1      41.137 -15.028   4.988  1.00  0.00     0.182 C 
BRANCH  11  12
HETATM   12  S   UNL     1      41.381 -15.606   3.272  1.00  0.00    -0.121 SA
BRANCH  12  13
HETATM   13  C   UNL     1      42.524 -16.979   3.414  1.00  0.00     0.001 A 
HETATM   14  C   UNL     1      42.823 -17.903   2.408  1.00  0.00     0.018 A 
HETATM   15  C   UNL     1      43.712 -18.957   2.646  1.00  0.00     0.001 A 
HETATM   16  C   UNL     1      44.324 -19.094   3.888  1.00  0.00     0.000 A 
HETATM   17  C   UNL     1      44.048 -18.176   4.896  1.00  0.00     0.001 A 
HETATM   18  C   UNL     1      43.154 -17.129   4.660  1.00  0.00     0.018 A 
ENDBRANCH  12  13
ENDBRANCH  11  12
ENDBRANCH   8  11
ENDBRANCH   4   7
ENDBRANCH   1   2
BRANCH   1  19
HETATM   19  C   UNL     1      44.855  -9.118   8.827  1.00  0.00     0.237 C 
HETATM   20  N   UNL     1      43.620  -9.079   9.440  1.00  0.00    -0.357 N 
HETATM   21  H   UNL     1      43.369  -9.949   9.926  1.00  0.00     0.162 HD
HETATM   22  O   UNL     1      45.422  -8.082   8.484  1.00  0.00    -0.272 OA
BRANCH  20  23
HETATM   23  C   UNL     1      43.036  -7.832   9.898  1.00  0.00     0.161 C 
BRANCH  23  24
HETATM   24  C   UNL     1      42.363  -7.874  11.313  1.00  0.00     0.143 C 
HETATM   25  C   UNL     1      43.404  -7.788  12.461  1.00  0.00     0.041 C 
HETATM   26  C   UNL     1      42.812  -8.000  13.855  1.00  0.00     0.002 C 
HETATM   27  C   UNL     1      42.074  -9.330  13.952  1.00  0.00     0.000 C 
HETATM   28  C   UNL     1      41.037  -9.493  12.846  1.00  0.00     0.002 C 
HETATM   29  C   UNL     1      41.643  -9.248  11.463  1.00  0.00     0.041 C 
BRANCH  24  30
HETATM   30  N   UNL     1      41.296  -6.729  11.484  1.00  0.00    -0.057 N 
HETATM   31  H   UNL     1      40.888  -6.868  12.414  1.00  0.00     0.281 HD
HETATM   32  C   UNL     1      41.833  -5.286  11.507  1.00  0.00     0.262 C 
HETATM   33  C   UNL     1      40.694  -4.326  11.882  1.00  0.00     0.195 C 
HETATM   34  O   UNL     1      39.611  -4.424  10.954  1.00  0.00    -0.388 OA
HETATM   35  C   UNL     1      39.061  -5.742  10.916  1.00  0.00     0.195 C 
HETATM   36  C   UNL     1      40.119  -6.771  10.498  1.00  0.00     0.262 C 
ENDBRANCH  24  30
ENDBRANCH  23  24
ENDBRANCH  20  23
ENDBRANCH   1  19
TORSDOF 9
ENDMDL
MODEL 7
REMARK VINA RESULT:      -7.9      2.174      3.472
REMARK  9 active torsions:
REMARK  status: ('A' for Active; 'I' for Inactive)
REMARK    1  A    between atoms: C_4  and  S_5 
REMARK    2  A    between atoms: S_5  and  C_6 
REMARK    3  A    between atoms: C_6  and  C_7 
REMARK       I    between atoms: C_7  and  N_8 
REMARK    4  A    between atoms: N_8  and  C_9 
REMARK    5  A    between atoms: N_11  and  C_12 
REMARK    6  A    between atoms: C_12  and  C_13 
REMARK       I    between atoms: C_13  and  N_14 
REMARK    7  A    between atoms: N_14  and  C_15 
REMARK    8  A    between atoms: C_15  and  C_16 
REMARK    9  A    between atoms: C_16  and  N_17 
ROOT
HETATM    1  C   UNL     1      45.385  -9.580   8.757  1.00  0.00     0.253 C 
ENDROOT
BRANCH   1   2
HETATM    2  N   UNL     1      44.991 -10.614   7.808  1.00  0.00    -0.270 N 
HETATM    3  C   UNL     1      43.809 -11.297   7.864  1.00  0.00     0.144 A 
HETATM    4  C   UNL     1      43.897 -12.318   6.953  1.00  0.00     0.071 A 
HETATM    5  C   UNL     1      45.166 -12.142   6.358  1.00  0.00     0.169 A 
HETATM    6  N   UNL     1      45.859 -11.129   6.899  1.00  0.00    -0.183 NA
BRANCH   4   7
HETATM    7  N   UNL     1      42.983 -13.324   6.705  1.00  0.00    -0.324 N 
HETATM    8  C   UNL     1      42.180 -13.401   5.579  1.00  0.00     0.231 C 
HETATM    9  O   UNL     1      42.308 -12.713   4.568  1.00  0.00    -0.272 OA
HETATM   10  H   UNL     1      42.763 -13.954   7.471  1.00  0.00     0.169 HD
BRANCH   8  11
HETATM   11  C   UNL     1      41.088 -14.459   5.647  1.00  0.00     0.182 C 
BRANCH  11  12
HETATM   12  S   UNL     1      40.731 -15.237   4.033  1.00  0.00    -0.121 SA
BRANCH  12  13
HETATM   13  C   UNL     1      41.982 -16.508   3.854  1.00  0.00     0.001 A 
HETATM   14  C   UNL     1      42.837 -16.962   4.863  1.00  0.00     0.018 A 
HETATM   15  C   UNL     1      43.801 -17.942   4.596  1.00  0.00     0.001 A 
HETATM   16  C   UNL     1      43.914 -18.489   3.322  1.00  0.00     0.000 A 
HETATM   17  C   UNL     1      43.063 -18.058   2.311  1.00  0.00     0.001 A 
HETATM   18  C   UNL     1      42.107 -17.074   2.575  1.00  0.00     0.018 A 
ENDBRANCH  12  13
ENDBRANCH  11  12
ENDBRANCH   8  11
ENDBRANCH   4   7
ENDBRANCH   1   2
BRANCH   1  19
HETATM   19  C   UNL     1      44.860  -9.704  10.172  1.00  0.00     0.237 C 
HETATM   20  N   UNL     1      44.165  -8.633  10.693  1.00  0.00    -0.357 N 
HETATM   21  H   UNL     1      43.726  -8.036   9.979  1.00  0.00     0.162 HD
HETATM   22  O   UNL     1      45.166 -10.662  10.882  1.00  0.00    -0.272 OA
BRANCH  20  23
HETATM   23  C   UNL     1      43.582  -8.676  12.020  1.00  0.00     0.161 C 
BRANCH  23  24
HETATM   24  C   UNL     1      42.026  -8.493  12.087  1.00  0.00     0.143 C 
HETATM   25  C   UNL     1      41.269  -9.836  11.907  1.00  0.00     0.041 C 
HETATM   26  C   UNL     1      39.752  -9.684  11.791  1.00  0.00     0.002 C 
HETATM   27  C   UNL     1      39.370  -8.742  10.655  1.00  0.00     0.000 C 
HETATM   28  C   UNL     1      40.085  -7.400  10.757  1.00  0.00     0.002 C 
HETATM   29  C   UNL     1      41.598  -7.576  10.902  1.00  0.00     0.041 C 
BRANCH  24  30
HETATM   30  N   UNL     1      41.578  -7.812  13.434  1.00  0.00    -0.057 N 
HETATM   31  H   UNL     1      40.563  -7.687  13.356  1.00  0.00     0.281 HD
HETATM   32  C   UNL     1      41.770  -8.638  14.719  1.00  0.00     0.262 C 
HETATM   33  C   UNL     1      41.099  -7.911  15.895  1.00  0.00     0.195 C 
HETATM   34  O   UNL     1      41.648  -6.604  16.074  1.00  0.00    -0.388 OA
HETATM   35  C   UNL     1      41.471  -5.789  14.913  1.00  0.00     0.195 C 
HETATM   36  C   UNL     1      42.156  -6.412  13.690  1.00  0.00     0.262 C 
ENDBRANCH  24  30
ENDBRANCH  23  24
ENDBRANCH  20  23
ENDBRANCH   1  19
TORSDOF 9
ENDMDL
MODEL 8
REMARK VINA RESULT:      -7.9      2.241      3.814
REMARK  9 active torsions:
REMARK  status: ('A' for Active; 'I' for Inactive)
REMARK    1  A    between atoms: C_4  and  S_5 
REMARK    2  A    between atoms: S_5  and  C_6 
REMARK    3  A    between atoms: C_6  and  C_7 
REMARK       I    between atoms: C_7  and  N_8 
REMARK    4  A    between atoms: N_8  and  C_9 
REMARK    5  A    between atoms: N_11  and  C_12 
REMARK    6  A    between atoms: C_12  and  C_13 
REMARK       I    between atoms: C_13  and  N_14 
REMARK    7  A    between atoms: N_14  and  C_15 
REMARK    8  A    between atoms: C_15  and  C_16 
REMARK    9  A    between atoms: C_16  and  N_17 
ROOT
HETATM    1  C   UNL     1      39.130 -10.581   7.350  1.00  0.00     0.253 C 
ENDROOT
BRANCH   1   2
HETATM    2  N   UNL     1      40.221 -10.912   6.443  1.00  0.00    -0.270 N 
HETATM    3  C   UNL     1      40.218 -11.986   5.598  1.00  0.00     0.144 A 
HETATM    4  C   UNL     1      41.482 -12.085   5.078  1.00  0.00     0.071 A 
HETATM    5  C   UNL     1      42.174 -10.990   5.639  1.00  0.00     0.169 A 
HETATM    6  N   UNL     1      41.427 -10.289   6.504  1.00  0.00    -0.183 NA
BRANCH   4   7
HETATM    7  N   UNL     1      41.988 -13.060   4.238  1.00  0.00    -0.324 N 
HETATM    8  C   UNL     1      43.021 -12.867   3.337  1.00  0.00     0.231 C 
HETATM    9  O   UNL     1      43.756 -11.880   3.299  1.00  0.00    -0.272 OA
HETATM   10  H   UNL     1      41.460 -13.923   4.154  1.00  0.00     0.169 HD
BRANCH   8  11
HETATM   11  C   UNL     1      43.235 -14.012   2.358  1.00  0.00     0.182 C 
BRANCH  11  12
HETATM   12  S   UNL     1      42.001 -15.350   2.526  1.00  0.00    -0.121 SA
BRANCH  12  13
HETATM   13  C   UNL     1      42.940 -16.763   3.102  1.00  0.00     0.001 A 
HETATM   14  C   UNL     1      43.135 -17.957   2.401  1.00  0.00     0.018 A 
HETATM   15  C   UNL     1      43.864 -19.009   2.968  1.00  0.00     0.001 A 
HETATM   16  C   UNL     1      44.419 -18.876   4.238  1.00  0.00     0.000 A 
HETATM   17  C   UNL     1      44.246 -17.690   4.943  1.00  0.00     0.001 A 
HETATM   18  C   UNL     1      43.511 -16.644   4.379  1.00  0.00     0.018 A 
ENDBRANCH  12  13
ENDBRANCH  11  12
ENDBRANCH   8  11
ENDBRANCH   4   7
ENDBRANCH   1   2
BRANCH   1  19
HETATM   19  C   UNL     1      39.427  -9.595   8.460  1.00  0.00     0.237 C 
HETATM   20  N   UNL     1      40.393  -9.941   9.382  1.00  0.00    -0.357 N 
HETATM   21  H   UNL     1      41.083 -10.616   9.027  1.00  0.00     0.162 HD
HETATM   22  O   UNL     1      38.736  -8.590   8.619  1.00  0.00    -0.272 OA
BRANCH  20  23
HETATM   23  C   UNL     1      40.782  -9.042  10.452  1.00  0.00     0.161 C 
BRANCH  23  24
HETATM   24  C   UNL     1      42.289  -8.606  10.460  1.00  0.00     0.143 C 
HETATM   25  C   UNL     1      42.718  -7.952   9.120  1.00  0.00     0.041 C 
HETATM   26  C   UNL     1      44.218  -7.670   9.018  1.00  0.00     0.002 C 
HETATM   27  C   UNL     1      45.041  -8.933   9.241  1.00  0.00     0.000 C 
HETATM   28  C   UNL     1      44.666  -9.641  10.539  1.00  0.00     0.002 C 
HETATM   29  C   UNL     1      43.159  -9.887  10.633  1.00  0.00     0.041 C 
BRANCH  24  30
HETATM   30  N   UNL     1      42.603  -7.623  11.650  1.00  0.00    -0.057 N 
HETATM   31  H   UNL     1      43.563  -7.302  11.496  1.00  0.00     0.281 HD
HETATM   32  C   UNL     1      41.766  -6.333  11.715  1.00  0.00     0.262 C 
HETATM   33  C   UNL     1      42.339  -5.410  12.801  1.00  0.00     0.195 C 
HETATM   34  O   UNL     1      42.335  -6.053  14.078  1.00  0.00    -0.388 OA
HETATM   35  C   UNL     1      43.121  -7.247  14.075  1.00  0.00     0.195 C 
HETATM   36  C   UNL     1      42.590  -8.256  13.050  1.00  0.00     0.262 C 
ENDBRANCH  24  30
ENDBRANCH  23  24
ENDBRANCH  20  23
ENDBRANCH   1  19
TORSDOF 9
ENDMDL
MODEL 9
REMARK VINA RESULT:      -7.7      4.462      8.331
REMARK  9 active torsions:
REMARK  status: ('A' for Active; 'I' for Inactive)
REMARK    1  A    between atoms: C_4  and  S_5 
REMARK    2  A    between atoms: S_5  and  C_6 
REMARK    3  A    between atoms: C_6  and  C_7 
REMARK       I    between atoms: C_7  and  N_8 
REMARK    4  A    between atoms: N_8  and  C_9 
REMARK    5  A    between atoms: N_11  and  C_12 
REMARK    6  A    between atoms: C_12  and  C_13 
REMARK       I    between atoms: C_13  and  N_14 
REMARK    7  A    between atoms: N_14  and  C_15 
REMARK    8  A    between atoms: C_15  and  C_16 
REMARK    9  A    between atoms: C_16  and  N_17 
ROOT
HETATM    1  C   UNL     1      40.792 -10.815   5.660  1.00  0.00     0.253 C 
ENDROOT
BRANCH   1   2
HETATM    2  N   UNL     1      42.006 -11.551   5.984  1.00  0.00    -0.270 N 
HETATM    3  C   UNL     1      42.242 -12.844   5.612  1.00  0.00     0.144 A 
HETATM    4  C   UNL     1      43.371 -13.249   6.276  1.00  0.00     0.071 A 
HETATM    5  C   UNL     1      43.776 -12.105   6.998  1.00  0.00     0.169 A 
HETATM    6  N   UNL     1      42.930 -11.074   6.859  1.00  0.00    -0.183 NA
BRANCH   4   7
HETATM    7  N   UNL     1      43.956 -14.501   6.285  1.00  0.00    -0.324 N 
HETATM    8  C   UNL     1      43.421 -15.618   6.906  1.00  0.00     0.231 C 
HETATM    9  O   UNL     1      42.278 -15.702   7.353  1.00  0.00    -0.272 OA
HETATM   10  H   UNL     1      44.917 -14.570   5.964  1.00  0.00     0.169 HD
BRANCH   8  11
HETATM   11  C   UNL     1      44.360 -16.812   6.987  1.00  0.00     0.182 C 
BRANCH  11  12
HETATM   12  S   UNL     1      43.490 -18.420   6.991  1.00  0.00    -0.121 SA
BRANCH  12  13
HETATM   13  C   UNL     1      43.654 -19.028   5.313  1.00  0.00     0.001 A 
HETATM   14  C   UNL     1      43.736 -20.371   4.933  1.00  0.00     0.018 A 
HETATM   15  C   UNL     1      43.894 -20.726   3.589  1.00  0.00     0.001 A 
HETATM   16  C   UNL     1      43.960 -19.744   2.605  1.00  0.00     0.000 A 
HETATM   17  C   UNL     1      43.866 -18.404   2.964  1.00  0.00     0.001 A 
HETATM   18  C   UNL     1      43.717 -18.050   4.307  1.00  0.00     0.018 A 
ENDBRANCH  12  13
ENDBRANCH  11  12
ENDBRANCH   8  11
ENDBRANCH   4   7
ENDBRANCH   1   2
BRANCH   1  19
HETATM   19  C   UNL     1      40.021 -11.256   4.433  1.00  0.00     0.237 C 
HETATM   20  N   UNL     1      40.632 -11.104   3.206  1.00  0.00    -0.357 N 
HETATM   21  H   UNL     1      41.659 -11.090   3.252  1.00  0.00     0.162 HD
HETATM   22  O   UNL     1      38.842 -11.600   4.513  1.00  0.00    -0.272 OA
BRANCH  20  23
HETATM   23  C   UNL     1      39.994 -11.542   1.979  1.00  0.00     0.161 C 
BRANCH  23  24
HETATM   24  C   UNL     1      40.457 -12.937   1.432  1.00  0.00     0.143 C 
HETATM   25  C   UNL     1      39.621 -14.105   2.019  1.00  0.00     0.041 C 
HETATM   26  C   UNL     1      40.147 -15.493   1.650  1.00  0.00     0.002 C 
HETATM   27  C   UNL     1      41.604 -15.667   2.064  1.00  0.00     0.000 C 
HETATM   28  C   UNL     1      42.490 -14.546   1.531  1.00  0.00     0.002 C 
HETATM   29  C   UNL     1      41.930 -13.167   1.886  1.00  0.00     0.041 C 
BRANCH  24  30
HETATM   30  N   UNL     1      40.405 -12.991  -0.141  1.00  0.00    -0.057 N 
HETATM   31  H   UNL     1      40.907 -13.844  -0.405  1.00  0.00     0.281 HD
HETATM   32  C   UNL     1      39.012 -13.147  -0.778  1.00  0.00     0.262 C 
HETATM   33  C   UNL     1      39.167 -13.386  -2.287  1.00  0.00     0.195 C 
HETATM   34  O   UNL     1      39.864 -12.305  -2.911  1.00  0.00    -0.388 OA
HETATM   35  C   UNL     1      41.176 -12.136  -2.369  1.00  0.00     0.195 C 
HETATM   36  C   UNL     1      41.121 -11.841  -0.865  1.00  0.00     0.262 C 
ENDBRANCH  24  30
ENDBRANCH  23  24
ENDBRANCH  20  23
ENDBRANCH   1  19
TORSDOF 9
ENDMDL
MODEL 10
REMARK VINA RESULT:      -7.7      1.842      2.511
REMARK  9 active torsions:
REMARK  status: ('A' for Active; 'I' for Inactive)
REMARK    1  A    between atoms: C_4  and  S_5 
REMARK    2  A    between atoms: S_5  and  C_6 
REMARK    3  A    between atoms: C_6  and  C_7 
REMARK       I    between atoms: C_7  and  N_8 
REMARK    4  A    between atoms: N_8  and  C_9 
REMARK    5  A    between atoms: N_11  and  C_12 
REMARK    6  A    between atoms: C_12  and  C_13 
REMARK       I    between atoms: C_13  and  N_14 
REMARK    7  A    between atoms: N_14  and  C_15 
REMARK    8  A    between atoms: C_15  and  C_16 
REMARK    9  A    between atoms: C_16  and  N_17 
ROOT
HETATM    1  C   UNL     1      44.950  -9.195   9.441  1.00  0.00     0.253 C 
ENDROOT
BRANCH   1   2
HETATM    2  N   UNL     1      45.002 -10.131   8.327  1.00  0.00    -0.270 N 
HETATM    3  C   UNL     1      44.104 -11.142   8.131  1.00  0.00     0.144 A 
HETATM    4  C   UNL     1      44.602 -11.926   7.122  1.00  0.00     0.071 A 
HETATM    5  C   UNL     1      45.795 -11.277   6.737  1.00  0.00     0.169 A 
HETATM    6  N   UNL     1      46.070 -10.202   7.491  1.00  0.00    -0.183 NA
BRANCH   4   7
HETATM    7  N   UNL     1      44.089 -13.109   6.626  1.00  0.00    -0.324 N 
HETATM    8  C   UNL     1      43.096 -13.198   5.665  1.00  0.00     0.231 C 
HETATM    9  O   UNL     1      42.681 -12.260   4.984  1.00  0.00    -0.272 OA
HETATM   10  H   UNL     1      44.332 -13.965   7.116  1.00  0.00     0.169 HD
BRANCH   8  11
HETATM   11  C   UNL     1      42.530 -14.595   5.460  1.00  0.00     0.182 C 
BRANCH  11  12
HETATM   12  S   UNL     1      43.696 -15.925   5.919  1.00  0.00    -0.121 SA
BRANCH  12  13
HETATM   13  C   UNL     1      43.613 -17.090   4.560  1.00  0.00     0.001 A 
HETATM   14  C   UNL     1      43.055 -16.842   3.302  1.00  0.00     0.018 A 
HETATM   15  C   UNL     1      43.018 -17.845   2.325  1.00  0.00     0.001 A 
HETATM   16  C   UNL     1      43.550 -19.103   2.589  1.00  0.00     0.000 A 
HETATM   17  C   UNL     1      44.122 -19.362   3.830  1.00  0.00     0.001 A 
HETATM   18  C   UNL     1      44.150 -18.364   4.807  1.00  0.00     0.018 A 
ENDBRANCH  12  13
ENDBRANCH  11  12
ENDBRANCH   8  11
ENDBRANCH   4   7
ENDBRANCH   1   2
BRANCH   1  19
HETATM   19  C   UNL     1      43.936  -8.072   9.356  1.00  0.00     0.237 C 
HETATM   20  N   UNL     1      43.177  -7.809  10.476  1.00  0.00    -0.357 N 
HETATM   21  H   UNL     1      43.620  -8.102  11.357  1.00  0.00     0.162 HD
HETATM   22  O   UNL     1      43.697  -7.513   8.286  1.00  0.00    -0.272 OA
BRANCH  20  23
HETATM   23  C   UNL     1      42.216  -6.722  10.507  1.00  0.00     0.161 C 
BRANCH  23  24
HETATM   24  C   UNL     1      40.740  -7.129  10.846  1.00  0.00     0.143 C 
HETATM   25  C   UNL     1      39.915  -5.938  11.402  1.00  0.00     0.041 C 
HETATM   26  C   UNL     1      38.525  -6.327  11.907  1.00  0.00     0.002 C 
HETATM   27  C   UNL     1      38.601  -7.417  12.970  1.00  0.00     0.000 C 
HETATM   28  C   UNL     1      39.409  -8.622  12.499  1.00  0.00     0.002 C 
HETATM   29  C   UNL     1      40.784  -8.208  11.970  1.00  0.00     0.041 C 
BRANCH  24  30
HETATM   30  N   UNL     1      40.004  -7.741   9.595  1.00  0.00    -0.057 N 
HETATM   31  H   UNL     1      39.011  -7.769   9.845  1.00  0.00     0.281 HD
HETATM   32  C   UNL     1      40.054  -6.916   8.296  1.00  0.00     0.262 C 
HETATM   33  C   UNL     1      39.124  -7.553   7.253  1.00  0.00     0.195 C 
HETATM   34  O   UNL     1      39.505  -8.904   6.981  1.00  0.00    -0.388 OA
HETATM   35  C   UNL     1      39.450  -9.718   8.154  1.00  0.00     0.195 C 
HETATM   36  C   UNL     1      40.391  -9.185   9.243  1.00  0.00     0.262 C 
ENDBRANCH  24  30
ENDBRANCH  23  24
ENDBRANCH  20  23
ENDBRANCH   1  19
TORSDOF 9
ENDMDL
