MODEL 1
REMARK VINA RESULT:      -9.0      0.000      0.000
REMARK  3 active torsions:
REMARK  status: ('A' for Active; 'I' for Inactive)
REMARK    1  A    between atoms: C_3  and  O_4 
REMARK    2  A    between atoms: C_6  and  C_7 
REMARK    3  A    between atoms: N_8  and  N_9 
ROOT
HETATM    1  N   UNL     1      43.361 -14.165   6.265  1.00  0.00    -0.189 N 
HETATM    2  C   UNL     1      43.406 -15.317   7.070  1.00  0.00     0.298 A 
HETATM    3  O   UNL     1      43.363 -15.362   8.296  1.00  0.00    -0.264 OA
HETATM    4  C   UNL     1      43.486 -16.503   6.277  1.00  0.00     0.133 A 
HETATM    5  C   UNL     1      43.435 -16.510   4.913  1.00  0.00     0.103 A 
HETATM    6  N   UNL     1      43.280 -15.350   4.153  1.00  0.00    -0.239 NA
HETATM    7  C   UNL     1      43.249 -14.269   4.878  1.00  0.00     0.239 A 
HETATM    8  N   UNL     1      43.618 -17.798   6.693  1.00  0.00    -0.349 N 
HETATM    9  H   UNL     1      43.671 -18.092   7.660  1.00  0.00     0.166 HD
HETATM   10  C   UNL     1      43.682 -18.635   5.595  1.00  0.00     0.045 A 
HETATM   11  C   UNL     1      43.561 -17.836   4.451  1.00  0.00     0.024 A 
HETATM   12  C   UNL     1      43.833 -20.026   5.530  1.00  0.00     0.032 A 
HETATM   13  C   UNL     1      43.864 -20.612   4.260  1.00  0.00     0.026 A 
HETATM   14  C   UNL     1      43.744 -19.834   3.109  1.00  0.00     0.035 A 
HETATM   15 CL   UNL     1      43.788 -20.598   1.565  1.00  0.00    -0.084 Cl
HETATM   16  C   UNL     1      43.589 -18.448   3.182  1.00  0.00     0.040 A 
ENDROOT
BRANCH   1  17
HETATM   17  N   UNL     1      43.277 -12.871   6.767  1.00  0.00    -0.175 NA
HETATM   18  C   UNL     1      44.377 -12.226   6.991  1.00  0.00     0.150 C 
BRANCH  18  19
HETATM   19  C   UNL     1      44.376 -10.865   7.567  1.00  0.00    -0.014 A 
HETATM   20  C   UNL     1      43.191 -10.127   7.526  1.00  0.00     0.049 A 
HETATM   21  C   UNL     1      43.169  -8.848   8.069  1.00  0.00     0.066 A 
HETATM   22  C   UNL     1      44.306  -8.294   8.651  1.00  0.00     0.036 A 
HETATM   23  C   UNL     1      45.489  -9.035   8.689  1.00  0.00     0.004 A 
HETATM   24  C   UNL     1      45.527 -10.322   8.146  1.00  0.00     0.013 A 
BRANCH  21  25
HETATM   25  O   UNL     1      41.993  -8.158   8.012  1.00  0.00    -0.361 OA
HETATM   26  H   UNL     1      41.517  -8.278   8.850  1.00  0.00     0.217 HD
ENDBRANCH  21  25
ENDBRANCH  18  19
ENDBRANCH   1  17
TORSDOF 3
ENDMDL
MODEL 2
REMARK VINA RESULT:      -8.5      1.422      2.131
REMARK  3 active torsions:
REMARK  status: ('A' for Active; 'I' for Inactive)
REMARK    1  A    between atoms: C_3  and  O_4 
REMARK    2  A    between atoms: C_6  and  C_7 
REMARK    3  A    between atoms: N_8  and  N_9 
ROOT
HETATM    1  N   UNL     1      43.384 -13.838   5.953  1.00  0.00    -0.189 N 
HETATM    2  C   UNL     1      42.990 -13.994   4.612  1.00  0.00     0.298 A 
HETATM    3  O   UNL     1      42.600 -13.113   3.851  1.00  0.00    -0.264 OA
HETATM    4  C   UNL     1      43.119 -15.352   4.187  1.00  0.00     0.133 A 
HETATM    5  C   UNL     1      43.641 -16.345   4.963  1.00  0.00     0.103 A 
HETATM    6  N   UNL     1      44.123 -16.126   6.254  1.00  0.00    -0.239 NA
HETATM    7  C   UNL     1      43.965 -14.897   6.652  1.00  0.00     0.239 A 
HETATM    8  N   UNL     1      42.770 -15.905   2.986  1.00  0.00    -0.349 N 
HETATM    9  H   UNL     1      42.366 -15.395   2.211  1.00  0.00     0.166 HD
HETATM   10  C   UNL     1      43.041 -17.260   3.002  1.00  0.00     0.045 A 
HETATM   11  C   UNL     1      43.602 -17.561   4.250  1.00  0.00     0.024 A 
HETATM   12  C   UNL     1      42.836 -18.231   2.013  1.00  0.00     0.032 A 
HETATM   13  C   UNL     1      43.213 -19.545   2.314  1.00  0.00     0.026 A 
HETATM   14  C   UNL     1      43.775 -19.865   3.549  1.00  0.00     0.035 A 
HETATM   15 CL   UNL     1      44.224 -21.496   3.876  1.00  0.00    -0.084 Cl
HETATM   16  C   UNL     1      43.980 -18.889   4.528  1.00  0.00     0.040 A 
ENDROOT
BRANCH   1  17
HETATM   17  N   UNL     1      43.367 -12.625   6.630  1.00  0.00    -0.175 NA
HETATM   18  C   UNL     1      44.464 -11.939   6.690  1.00  0.00     0.150 C 
BRANCH  18  19
HETATM   19  C   UNL     1      44.543 -10.662   7.430  1.00  0.00    -0.014 A 
HETATM   20  C   UNL     1      43.352 -10.024   7.782  1.00  0.00     0.049 A 
HETATM   21  C   UNL     1      43.407  -8.825   8.485  1.00  0.00     0.066 A 
HETATM   22  C   UNL     1      44.625  -8.255   8.840  1.00  0.00     0.036 A 
HETATM   23  C   UNL     1      45.814  -8.896   8.485  1.00  0.00     0.004 A 
HETATM   24  C   UNL     1      45.776 -10.101   7.778  1.00  0.00     0.013 A 
BRANCH  21  25
HETATM   25  O   UNL     1      42.223  -8.232   8.812  1.00  0.00    -0.361 OA
HETATM   26  H   UNL     1      41.876  -8.648   9.619  1.00  0.00     0.217 HD
ENDBRANCH  21  25
ENDBRANCH  18  19
ENDBRANCH   1  17
TORSDOF 3
ENDMDL
MODEL 3
REMARK VINA RESULT:      -8.4      6.340      9.709
REMARK  3 active torsions:
REMARK  status: ('A' for Active; 'I' for Inactive)
REMARK    1  A    between atoms: C_3  and  O_4 
REMARK    2  A    between atoms: C_6  and  C_7 
REMARK    3  A    between atoms: N_8  and  N_9 
ROOT
HETATM    1  N   UNL     1      41.285 -14.948   1.562  1.00  0.00    -0.189 N 
HETATM    2  C   UNL     1      40.186 -15.183   0.716  1.00  0.00     0.298 A 
HETATM    3  O   UNL     1      39.506 -16.203   0.658  1.00  0.00    -0.264 OA
HETATM    4  C   UNL     1      39.905 -14.043  -0.098  1.00  0.00     0.133 A 
HETATM    5  C   UNL     1      40.567 -12.855   0.003  1.00  0.00     0.103 A 
HETATM    6  N   UNL     1      41.582 -12.627   0.932  1.00  0.00    -0.239 NA
HETATM    7  C   UNL     1      41.863 -13.681   1.644  1.00  0.00     0.239 A 
HETATM    8  N   UNL     1      38.968 -13.914  -1.085  1.00  0.00    -0.349 N 
HETATM    9  H   UNL     1      38.323 -14.640  -1.369  1.00  0.00     0.166 HD
HETATM   10  C   UNL     1      39.048 -12.649  -1.639  1.00  0.00     0.045 A 
HETATM   11  C   UNL     1      40.057 -11.956  -0.957  1.00  0.00     0.024 A 
HETATM   12  C   UNL     1      38.310 -12.074  -2.681  1.00  0.00     0.032 A 
HETATM   13  C   UNL     1      38.615 -10.755  -3.034  1.00  0.00     0.026 A 
HETATM   14  C   UNL     1      39.614 -10.047  -2.366  1.00  0.00     0.035 A 
HETATM   15 CL   UNL     1      39.957  -8.424  -2.835  1.00  0.00    -0.084 Cl
HETATM   16  C   UNL     1      40.343 -10.627  -1.326  1.00  0.00     0.040 A 
ENDROOT
BRANCH   1  17
HETATM   17  N   UNL     1      41.780 -15.880   2.467  1.00  0.00    -0.175 NA
HETATM   18  C   UNL     1      42.671 -16.724   2.055  1.00  0.00     0.150 C 
BRANCH  18  19
HETATM   19  C   UNL     1      43.213 -17.776   2.940  1.00  0.00    -0.014 A 
HETATM   20  C   UNL     1      43.347 -19.069   2.431  1.00  0.00     0.049 A 
HETATM   21  C   UNL     1      43.862 -20.070   3.246  1.00  0.00     0.066 A 
HETATM   22  C   UNL     1      44.245 -19.803   4.558  1.00  0.00     0.036 A 
HETATM   23  C   UNL     1      44.109 -18.508   5.064  1.00  0.00     0.004 A 
HETATM   24  C   UNL     1      43.592 -17.492   4.256  1.00  0.00     0.013 A 
BRANCH  21  25
HETATM   25  O   UNL     1      43.980 -21.320   2.713  1.00  0.00    -0.361 OA
HETATM   26  H   UNL     1      44.896 -21.624   2.822  1.00  0.00     0.217 HD
ENDBRANCH  21  25
ENDBRANCH  18  19
ENDBRANCH   1  17
TORSDOF 3
ENDMDL
MODEL 4
REMARK VINA RESULT:      -8.4      3.723      9.078
REMARK  3 active torsions:
REMARK  status: ('A' for Active; 'I' for Inactive)
REMARK    1  A    between atoms: C_3  and  O_4 
REMARK    2  A    between atoms: C_6  and  C_7 
REMARK    3  A    between atoms: N_8  and  N_9 
ROOT
HETATM    1  N   UNL     1      42.500 -14.648   5.132  1.00  0.00    -0.189 N 
HETATM    2  C   UNL     1      41.543 -13.663   4.828  1.00  0.00     0.298 A 
HETATM    3  O   UNL     1      40.555 -13.792   4.112  1.00  0.00    -0.264 OA
HETATM    4  C   UNL     1      41.836 -12.432   5.493  1.00  0.00     0.133 A 
HETATM    5  C   UNL     1      42.863 -12.270   6.376  1.00  0.00     0.103 A 
HETATM    6  N   UNL     1      43.726 -13.305   6.734  1.00  0.00    -0.239 NA
HETATM    7  C   UNL     1      43.482 -14.413   6.095  1.00  0.00     0.239 A 
HETATM    8  N   UNL     1      41.184 -11.235   5.391  1.00  0.00    -0.349 N 
HETATM    9  H   UNL     1      40.372 -11.066   4.811  1.00  0.00     0.166 HD
HETATM   10  C   UNL     1      41.812 -10.294   6.187  1.00  0.00     0.045 A 
HETATM   11  C   UNL     1      42.881 -10.934   6.828  1.00  0.00     0.024 A 
HETATM   12  C   UNL     1      41.515  -8.940   6.386  1.00  0.00     0.032 A 
HETATM   13  C   UNL     1      42.336  -8.224   7.263  1.00  0.00     0.026 A 
HETATM   14  C   UNL     1      43.404  -8.843   7.913  1.00  0.00     0.035 A 
HETATM   15 CL   UNL     1      44.390  -7.921   8.984  1.00  0.00    -0.084 Cl
HETATM   16  C   UNL     1      43.691 -10.194   7.711  1.00  0.00     0.040 A 
ENDROOT
BRANCH   1  17
HETATM   17  N   UNL     1      42.465 -15.943   4.631  1.00  0.00    -0.175 NA
HETATM   18  C   UNL     1      43.576 -16.605   4.559  1.00  0.00     0.150 C 
BRANCH  18  19
HETATM   19  C   UNL     1      43.632 -17.970   3.995  1.00  0.00    -0.014 A 
HETATM   20  C   UNL     1      44.081 -19.009   4.813  1.00  0.00     0.049 A 
HETATM   21  C   UNL     1      44.134 -20.301   4.302  1.00  0.00     0.066 A 
HETATM   22  C   UNL     1      43.749 -20.572   2.992  1.00  0.00     0.036 A 
HETATM   23  C   UNL     1      43.302 -19.530   2.177  1.00  0.00     0.004 A 
HETATM   24  C   UNL     1      43.244 -18.226   2.676  1.00  0.00     0.013 A 
BRANCH  21  25
HETATM   25  O   UNL     1      44.576 -21.289   5.132  1.00  0.00    -0.361 OA
HETATM   26  H   UNL     1      44.863 -20.891   5.970  1.00  0.00     0.217 HD
ENDBRANCH  21  25
ENDBRANCH  18  19
ENDBRANCH   1  17
TORSDOF 3
ENDMDL
MODEL 5
REMARK VINA RESULT:      -8.2      3.644      8.892
REMARK  3 active torsions:
REMARK  status: ('A' for Active; 'I' for Inactive)
REMARK    1  A    between atoms: C_3  and  O_4 
REMARK    2  A    between atoms: C_6  and  C_7 
REMARK    3  A    between atoms: N_8  and  N_9 
ROOT
HETATM    1  N   UNL     1      42.668 -14.865   5.055  1.00  0.00    -0.189 N 
HETATM    2  C   UNL     1      42.875 -14.175   6.263  1.00  0.00     0.298 A 
HETATM    3  O   UNL     1      43.267 -14.650   7.325  1.00  0.00    -0.264 OA
HETATM    4  C   UNL     1      42.593 -12.782   6.121  1.00  0.00     0.133 A 
HETATM    5  C   UNL     1      42.254 -12.192   4.938  1.00  0.00     0.103 A 
HETATM    6  N   UNL     1      42.164 -12.895   3.737  1.00  0.00    -0.239 NA
HETATM    7  C   UNL     1      42.381 -14.171   3.879  1.00  0.00     0.239 A 
HETATM    8  N   UNL     1      42.609 -11.808   7.080  1.00  0.00    -0.349 N 
HETATM    9  H   UNL     1      42.840 -11.960   8.054  1.00  0.00     0.166 HD
HETATM   10  C   UNL     1      42.249 -10.597   6.519  1.00  0.00     0.045 A 
HETATM   11  C   UNL     1      42.024 -10.817   5.154  1.00  0.00     0.024 A 
HETATM   12  C   UNL     1      42.110  -9.336   7.112  1.00  0.00     0.032 A 
HETATM   13  C   UNL     1      41.728  -8.274   6.285  1.00  0.00     0.026 A 
HETATM   14  C   UNL     1      41.501  -8.472   4.923  1.00  0.00     0.035 A 
HETATM   15 CL   UNL     1      41.031  -7.136   3.942  1.00  0.00    -0.084 Cl
HETATM   16  C   UNL     1      41.646  -9.733   4.339  1.00  0.00     0.040 A 
ENDROOT
BRANCH   1  17
HETATM   17  N   UNL     1      42.869 -16.231   4.898  1.00  0.00    -0.175 NA
HETATM   18  C   UNL     1      43.282 -16.664   3.750  1.00  0.00     0.150 C 
BRANCH  18  19
HETATM   19  C   UNL     1      43.475 -18.105   3.486  1.00  0.00    -0.014 A 
HETATM   20  C   UNL     1      43.996 -18.904   4.507  1.00  0.00     0.049 A 
HETATM   21  C   UNL     1      44.178 -20.263   4.280  1.00  0.00     0.066 A 
HETATM   22  C   UNL     1      43.851 -20.837   3.055  1.00  0.00     0.036 A 
HETATM   23  C   UNL     1      43.331 -20.036   2.036  1.00  0.00     0.004 A 
HETATM   24  C   UNL     1      43.143 -18.667   2.250  1.00  0.00     0.013 A 
BRANCH  21  25
HETATM   25  O   UNL     1      44.687 -21.011   5.301  1.00  0.00    -0.361 OA
HETATM   26  H   UNL     1      44.528 -21.950   5.112  1.00  0.00     0.217 HD
ENDBRANCH  21  25
ENDBRANCH  18  19
ENDBRANCH   1  17
TORSDOF 3
ENDMDL
MODEL 6
REMARK VINA RESULT:      -8.0      1.923      2.628
REMARK  3 active torsions:
REMARK  status: ('A' for Active; 'I' for Inactive)
REMARK    1  A    between atoms: C_3  and  O_4 
REMARK    2  A    between atoms: C_6  and  C_7 
REMARK    3  A    between atoms: N_8  and  N_9 
ROOT
HETATM    1  N   UNL     1      43.042 -13.231   6.000  1.00  0.00    -0.189 N 
HETATM    2  C   UNL     1      42.844 -13.468   4.628  1.00  0.00     0.298 A 
HETATM    3  O   UNL     1      42.545 -12.640   3.773  1.00  0.00    -0.264 OA
HETATM    4  C   UNL     1      43.064 -14.841   4.300  1.00  0.00     0.133 A 
HETATM    5  C   UNL     1      43.496 -15.776   5.195  1.00  0.00     0.103 A 
HETATM    6  N   UNL     1      43.786 -15.476   6.526  1.00  0.00    -0.239 NA
HETATM    7  C   UNL     1      43.545 -14.234   6.830  1.00  0.00     0.239 A 
HETATM    8  N   UNL     1      42.900 -15.465   3.095  1.00  0.00    -0.349 N 
HETATM    9  H   UNL     1      42.597 -15.009   2.244  1.00  0.00     0.166 HD
HETATM   10  C   UNL     1      43.199 -16.809   3.223  1.00  0.00     0.045 A 
HETATM   11  C   UNL     1      43.586 -17.028   4.552  1.00  0.00     0.024 A 
HETATM   12  C   UNL     1      43.157 -17.835   2.271  1.00  0.00     0.032 A 
HETATM   13  C   UNL     1      43.520 -19.119   2.693  1.00  0.00     0.026 A 
HETATM   14  C   UNL     1      43.910 -19.358   4.010  1.00  0.00     0.035 A 
HETATM   15 CL   UNL     1      44.348 -20.955   4.485  1.00  0.00    -0.084 Cl
HETATM   16  C   UNL     1      43.952 -18.327   4.952  1.00  0.00     0.040 A 
ENDROOT
BRANCH   1  17
HETATM   17  N   UNL     1      42.902 -11.985   6.600  1.00  0.00    -0.175 NA
HETATM   18  C   UNL     1      43.755 -11.643   7.512  1.00  0.00     0.150 C 
BRANCH  18  19
HETATM   19  C   UNL     1      43.649 -10.356   8.231  1.00  0.00    -0.014 A 
HETATM   20  C   UNL     1      43.876 -10.345   9.609  1.00  0.00     0.049 A 
HETATM   21  C   UNL     1      43.788  -9.143  10.302  1.00  0.00     0.066 A 
HETATM   22  C   UNL     1      43.478  -7.956   9.645  1.00  0.00     0.036 A 
HETATM   23  C   UNL     1      43.251  -7.971   8.267  1.00  0.00     0.004 A 
HETATM   24  C   UNL     1      43.335  -9.172   7.557  1.00  0.00     0.013 A 
BRANCH  21  25
HETATM   25  O   UNL     1      44.018  -9.171  11.646  1.00  0.00    -0.361 OA
HETATM   26  H   UNL     1      43.605  -9.968  12.019  1.00  0.00     0.217 HD
ENDBRANCH  21  25
ENDBRANCH  18  19
ENDBRANCH   1  17
TORSDOF 3
ENDMDL
MODEL 7
REMARK VINA RESULT:      -7.9      6.435      9.769
REMARK  3 active torsions:
REMARK  status: ('A' for Active; 'I' for Inactive)
REMARK    1  A    between atoms: C_3  and  O_4 
REMARK    2  A    between atoms: C_6  and  C_7 
REMARK    3  A    between atoms: N_8  and  N_9 
ROOT
HETATM    1  N   UNL     1      41.375 -14.333   1.287  1.00  0.00    -0.189 N 
HETATM    2  C   UNL     1      41.409 -12.931   1.396  1.00  0.00     0.298 A 
HETATM    3  O   UNL     1      42.187 -12.263   2.070  1.00  0.00    -0.264 OA
HETATM    4  C   UNL     1      40.407 -12.322   0.579  1.00  0.00     0.133 A 
HETATM    5  C   UNL     1      39.588 -13.016  -0.263  1.00  0.00     0.103 A 
HETATM    6  N   UNL     1      39.660 -14.399  -0.423  1.00  0.00    -0.239 NA
HETATM    7  C   UNL     1      40.545 -14.954   0.354  1.00  0.00     0.239 A 
HETATM    8  N   UNL     1      40.085 -10.998   0.474  1.00  0.00    -0.349 N 
HETATM    9  H   UNL     1      40.541 -10.250   0.980  1.00  0.00     0.166 HD
HETATM   10  C   UNL     1      39.036 -10.844  -0.414  1.00  0.00     0.045 A 
HETATM   11  C   UNL     1      38.708 -12.117  -0.899  1.00  0.00     0.024 A 
HETATM   12  C   UNL     1      38.363  -9.685  -0.820  1.00  0.00     0.032 A 
HETATM   13  C   UNL     1      37.325  -9.835  -1.747  1.00  0.00     0.026 A 
HETATM   14  C   UNL     1      36.984 -11.093  -2.244  1.00  0.00     0.035 A 
HETATM   15 CL   UNL     1      35.698 -11.231  -3.382  1.00  0.00    -0.084 Cl
HETATM   16  C   UNL     1      37.663 -12.243  -1.835  1.00  0.00     0.040 A 
ENDROOT
BRANCH   1  17
HETATM   17  N   UNL     1      42.238 -15.184   1.966  1.00  0.00    -0.175 NA
HETATM   18  C   UNL     1      41.942 -16.443   2.023  1.00  0.00     0.150 C 
BRANCH  18  19
HETATM   19  C   UNL     1      42.782 -17.407   2.765  1.00  0.00    -0.014 A 
HETATM   20  C   UNL     1      42.964 -18.682   2.226  1.00  0.00     0.049 A 
HETATM   21  C   UNL     1      43.756 -19.600   2.905  1.00  0.00     0.066 A 
HETATM   22  C   UNL     1      44.368 -19.268   4.111  1.00  0.00     0.036 A 
HETATM   23  C   UNL     1      44.183 -17.992   4.647  1.00  0.00     0.004 A 
HETATM   24  C   UNL     1      43.388 -17.059   3.975  1.00  0.00     0.013 A 
BRANCH  21  25
HETATM   25  O   UNL     1      43.912 -20.835   2.347  1.00  0.00    -0.361 OA
HETATM   26  H   UNL     1      44.730 -20.842   1.823  1.00  0.00     0.217 HD
ENDBRANCH  21  25
ENDBRANCH  18  19
ENDBRANCH   1  17
TORSDOF 3
ENDMDL
MODEL 8
REMARK VINA RESULT:      -7.7      4.300      9.414
REMARK  3 active torsions:
REMARK  status: ('A' for Active; 'I' for Inactive)
REMARK    1  A    between atoms: C_3  and  O_4 
REMARK    2  A    between atoms: C_6  and  C_7 
REMARK    3  A    between atoms: N_8  and  N_9 
ROOT
HETATM    1  N   UNL     1      43.555 -11.886   5.970  1.00  0.00    -0.189 N 
HETATM    2  C   UNL     1      42.881 -10.662   5.806  1.00  0.00     0.298 A 
HETATM    3  O   UNL     1      42.337 -10.252   4.785  1.00  0.00    -0.264 OA
HETATM    4  C   UNL     1      42.867  -9.910   7.020  1.00  0.00     0.133 A 
HETATM    5  C   UNL     1      43.369 -10.367   8.204  1.00  0.00     0.103 A 
HETATM    6  N   UNL     1      43.933 -11.635   8.350  1.00  0.00    -0.239 NA
HETATM    7  C   UNL     1      43.981 -12.300   7.232  1.00  0.00     0.239 A 
HETATM    8  N   UNL     1      42.376  -8.653   7.237  1.00  0.00    -0.349 N 
HETATM    9  H   UNL     1      41.933  -8.076   6.533  1.00  0.00     0.166 HD
HETATM   10  C   UNL     1      42.588  -8.291   8.554  1.00  0.00     0.045 A 
HETATM   11  C   UNL     1      43.215  -9.371   9.190  1.00  0.00     0.024 A 
HETATM   12  C   UNL     1      42.274  -7.102   9.223  1.00  0.00     0.032 A 
HETATM   13  C   UNL     1      42.613  -7.017  10.578  1.00  0.00     0.026 A 
HETATM   14  C   UNL     1      43.235  -8.081  11.230  1.00  0.00     0.035 A 
HETATM   15 CL   UNL     1      43.635  -7.932  12.899  1.00  0.00    -0.084 Cl
HETATM   16  C   UNL     1      43.542  -9.265  10.556  1.00  0.00     0.040 A 
ENDROOT
BRANCH   1  17
HETATM   17  N   UNL     1      43.718 -12.823   4.956  1.00  0.00    -0.175 NA
HETATM   18  C   UNL     1      42.909 -13.832   4.916  1.00  0.00     0.150 C 
BRANCH  18  19
HETATM   19  C   UNL     1      43.044 -14.897   3.899  1.00  0.00    -0.014 A 
HETATM   20  C   UNL     1      43.266 -16.206   4.333  1.00  0.00     0.049 A 
HETATM   21  C   UNL     1      43.389 -17.222   3.393  1.00  0.00     0.066 A 
HETATM   22  C   UNL     1      43.295 -16.954   2.030  1.00  0.00     0.036 A 
HETATM   23  C   UNL     1      43.074 -15.644   1.600  1.00  0.00     0.004 A 
HETATM   24  C   UNL     1      42.949 -14.612   2.534  1.00  0.00     0.013 A 
BRANCH  21  25
HETATM   25  O   UNL     1      43.603 -18.487   3.855  1.00  0.00    -0.361 OA
HETATM   26  H   UNL     1      44.239 -18.931   3.270  1.00  0.00     0.217 HD
ENDBRANCH  21  25
ENDBRANCH  18  19
ENDBRANCH   1  17
TORSDOF 3
ENDMDL
MODEL 9
REMARK VINA RESULT:      -7.5      8.164     12.788
REMARK  3 active torsions:
REMARK  status: ('A' for Active; 'I' for Inactive)
REMARK    1  A    between atoms: C_3  and  O_4 
REMARK    2  A    between atoms: C_6  and  C_7 
REMARK    3  A    between atoms: N_8  and  N_9 
ROOT
HETATM    1  N   UNL     1      42.512  -8.132  12.546  1.00  0.00    -0.189 N 
HETATM    2  C   UNL     1      42.350  -6.764  12.829  1.00  0.00     0.298 A 
HETATM    3  O   UNL     1      42.467  -5.830  12.042  1.00  0.00    -0.264 OA
HETATM    4  C   UNL     1      41.991  -6.555  14.197  1.00  0.00     0.133 A 
HETATM    5  C   UNL     1      41.751  -7.565  15.082  1.00  0.00     0.103 A 
HETATM    6  N   UNL     1      41.816  -8.914  14.732  1.00  0.00    -0.239 NA
HETATM    7  C   UNL     1      42.184  -9.100  13.497  1.00  0.00     0.239 A 
HETATM    8  N   UNL     1      41.819  -5.373  14.860  1.00  0.00    -0.349 N 
HETATM    9  H   UNL     1      41.922  -4.456  14.444  1.00  0.00     0.166 HD
HETATM   10  C   UNL     1      41.497  -5.623  16.181  1.00  0.00     0.045 A 
HETATM   11  C   UNL     1      41.443  -7.014  16.343  1.00  0.00     0.024 A 
HETATM   12  C   UNL     1      41.251  -4.731  17.232  1.00  0.00     0.032 A 
HETATM   13  C   UNL     1      40.943  -5.280  18.482  1.00  0.00     0.026 A 
HETATM   14  C   UNL     1      40.883  -6.661  18.664  1.00  0.00     0.035 A 
HETATM   15 CL   UNL     1      40.501  -7.292  20.222  1.00  0.00    -0.084 Cl
HETATM   16  C   UNL     1      41.126  -7.543  17.609  1.00  0.00     0.040 A 
ENDROOT
BRANCH   1  17
HETATM   17  N   UNL     1      42.856  -8.630  11.295  1.00  0.00    -0.175 NA
HETATM   18  C   UNL     1      44.005  -9.211  11.159  1.00  0.00     0.150 C 
BRANCH  18  19
HETATM   19  C   UNL     1      44.467  -9.725   9.853  1.00  0.00    -0.014 A 
HETATM   20  C   UNL     1      45.593  -9.141   9.269  1.00  0.00     0.049 A 
HETATM   21  C   UNL     1      46.046  -9.616   8.044  1.00  0.00     0.066 A 
HETATM   22  C   UNL     1      45.397 -10.661   7.393  1.00  0.00     0.036 A 
HETATM   23  C   UNL     1      44.270 -11.242   7.980  1.00  0.00     0.004 A 
HETATM   24  C   UNL     1      43.802 -10.775   9.211  1.00  0.00     0.013 A 
BRANCH  21  25
HETATM   25  O   UNL     1      47.150  -9.021   7.506  1.00  0.00    -0.361 OA
HETATM   26  H   UNL     1      46.942  -8.733   6.602  1.00  0.00     0.217 HD
ENDBRANCH  21  25
ENDBRANCH  18  19
ENDBRANCH   1  17
TORSDOF 3
ENDMDL
MODEL 10
REMARK VINA RESULT:      -7.5     16.119     17.557
REMARK  3 active torsions:
REMARK  status: ('A' for Active; 'I' for Inactive)
REMARK    1  A    between atoms: C_3  and  O_4 
REMARK    2  A    between atoms: C_6  and  C_7 
REMARK    3  A    between atoms: N_8  and  N_9 
ROOT
HETATM    1  N   UNL     1      43.299 -30.900   2.358  1.00  0.00    -0.189 N 
HETATM    2  C   UNL     1      44.001 -29.710   2.095  1.00  0.00     0.298 A 
HETATM    3  O   UNL     1      44.427 -28.908   2.920  1.00  0.00    -0.264 OA
HETATM    4  C   UNL     1      44.205 -29.526   0.693  1.00  0.00     0.133 A 
HETATM    5  C   UNL     1      43.840 -30.438  -0.254  1.00  0.00     0.103 A 
HETATM    6  N   UNL     1      43.242 -31.659   0.058  1.00  0.00    -0.239 NA
HETATM    7  C   UNL     1      43.021 -31.804   1.333  1.00  0.00     0.239 A 
HETATM    8  N   UNL     1      44.777 -28.465   0.048  1.00  0.00    -0.349 N 
HETATM    9  H   UNL     1      45.151 -27.644   0.506  1.00  0.00     0.166 HD
HETATM   10  C   UNL     1      44.752 -28.683  -1.317  1.00  0.00     0.045 A 
HETATM   11  C   UNL     1      44.164 -29.936  -1.531  1.00  0.00     0.024 A 
HETATM   12  C   UNL     1      45.203 -27.872  -2.366  1.00  0.00     0.032 A 
HETATM   13  C   UNL     1      45.046 -28.359  -3.669  1.00  0.00     0.026 A 
HETATM   14  C   UNL     1      44.465 -29.604  -3.904  1.00  0.00     0.035 A 
HETATM   15 CL   UNL     1      44.290 -30.163  -5.524  1.00  0.00    -0.084 Cl
HETATM   16  C   UNL     1      44.021 -30.408  -2.851  1.00  0.00     0.040 A 
ENDROOT
BRANCH   1  17
HETATM   17  N   UNL     1      42.964 -31.336   3.635  1.00  0.00    -0.175 NA
HETATM   18  C   UNL     1      41.752 -31.154   4.049  1.00  0.00     0.150 C 
BRANCH  18  19
HETATM   19  C   UNL     1      41.327 -31.546   5.409  1.00  0.00    -0.014 A 
HETATM   20  C   UNL     1      39.982 -31.854   5.622  1.00  0.00     0.049 A 
HETATM   21  C   UNL     1      39.565 -32.232   6.893  1.00  0.00     0.066 A 
HETATM   22  C   UNL     1      40.465 -32.308   7.952  1.00  0.00     0.036 A 
HETATM   23  C   UNL     1      41.810 -31.999   7.735  1.00  0.00     0.004 A 
HETATM   24  C   UNL     1      42.244 -31.616   6.463  1.00  0.00     0.013 A 
BRANCH  21  25
HETATM   25  O   UNL     1      38.243 -32.526   7.062  1.00  0.00    -0.361 OA
HETATM   26  H   UNL     1      37.826 -32.609   6.189  1.00  0.00     0.217 HD
ENDBRANCH  21  25
ENDBRANCH  18  19
ENDBRANCH   1  17
TORSDOF 3
ENDMDL
