MODEL 1
REMARK VINA RESULT:      -8.3      0.000      0.000
REMARK  8 active torsions:
REMARK  status: ('A' for Active; 'I' for Inactive)
REMARK    1  A    between atoms: C_2  and  C_3 
REMARK    2  A    between atoms: C_3  and  O_4 
REMARK    3  A    between atoms: O_4  and  C_5 
REMARK    4  A    between atoms: C_8  and  C_9 
REMARK    5  A    between atoms: C_13  and  C_14 
REMARK       I    between atoms: C_14  and  N_15 
REMARK    6  A    between atoms: N_15  and  N_16 
REMARK    7  A    between atoms: C_17  and  C_18 
REMARK    8  A    between atoms: C_21  and  O_22 
ROOT
HETATM    1  C   UNL     1      43.431 -13.245   5.684  1.00  0.00     0.089 A 
HETATM    2  N   UNL     1      43.413 -12.038   5.098  1.00  0.00    -0.174 NA
HETATM    3  N   UNL     1      43.644 -11.173   6.097  1.00  0.00    -0.272 N 
HETATM    4  H   UNL     1      43.675 -10.178   5.892  1.00  0.00     0.189 HD
HETATM    5  C   UNL     1      43.843 -11.760   7.315  1.00  0.00     0.121 A 
HETATM    6  C   UNL     1      43.691 -13.112   7.078  1.00  0.00     0.071 A 
ENDROOT
BRANCH   5   7
HETATM    7  C   UNL     1      44.152 -10.972   8.482  1.00  0.00     0.289 C 
HETATM    8  N   UNL     1      43.051 -10.392   9.093  1.00  0.00    -0.242 N 
HETATM    9  H   UNL     1      42.123 -10.534   8.720  1.00  0.00     0.192 HD
HETATM   10  O   UNL     1      45.308 -10.856   8.879  1.00  0.00    -0.264 OA
BRANCH   8  11
HETATM   11  N   UNL     1      43.201  -9.667  10.240  1.00  0.00    -0.184 NA
HETATM   12  C   UNL     1      42.220  -9.741  11.081  1.00  0.00     0.150 C 
BRANCH  12  13
HETATM   13  C   UNL     1      42.244  -9.023  12.371  1.00  0.00    -0.017 A 
HETATM   14  C   UNL     1      41.305  -9.301  13.364  1.00  0.00     0.016 A 
HETATM   15  C   UNL     1      41.355  -8.605  14.575  1.00  0.00     0.037 A 
HETATM   16  C   UNL     1      42.339  -7.639  14.803  1.00  0.00     0.068 A 
HETATM   17  C   UNL     1      43.272  -7.361  13.801  1.00  0.00     0.037 A 
HETATM   18  C   UNL     1      43.226  -8.051  12.584  1.00  0.00     0.016 A 
BRANCH  16  19
HETATM   19  O   UNL     1      42.277  -7.040  16.031  1.00  0.00    -0.356 OA
HETATM   20  C   UNL     1      41.447  -7.657  17.007  1.00  0.00     0.210 C 
ENDBRANCH  16  19
ENDBRANCH  12  13
ENDBRANCH   8  11
ENDBRANCH   5   7
BRANCH   1  21
HETATM   21  C   UNL     1      43.238 -14.478   4.917  1.00  0.00    -0.005 A 
HETATM   22  C   UNL     1      42.820 -14.423   3.579  1.00  0.00     0.016 A 
HETATM   23  C   UNL     1      42.674 -15.591   2.820  1.00  0.00     0.037 A 
HETATM   24  C   UNL     1      42.942 -16.834   3.391  1.00  0.00     0.068 A 
HETATM   25  C   UNL     1      43.330 -16.899   4.729  1.00  0.00     0.037 A 
HETATM   26  C   UNL     1      43.482 -15.733   5.489  1.00  0.00     0.016 A 
BRANCH  24  27
HETATM   27  O   UNL     1      42.854 -18.044   2.761  1.00  0.00    -0.351 OA
BRANCH  27  28
HETATM   28  C   UNL     1      44.043 -18.833   2.714  1.00  0.00     0.175 C 
BRANCH  28  29
HETATM   29  C   UNL     1      43.627 -20.302   2.682  1.00  0.00     0.022 C 
HETATM   30  C   UNL     1      43.865 -20.985   4.017  1.00  0.00     0.007 C 
ENDBRANCH  28  29
ENDBRANCH  27  28
ENDBRANCH  24  27
ENDBRANCH   1  21
TORSDOF 8
ENDMDL
MODEL 2
REMARK VINA RESULT:      -8.0      1.221     11.983
REMARK  8 active torsions:
REMARK  status: ('A' for Active; 'I' for Inactive)
REMARK    1  A    between atoms: C_2  and  C_3 
REMARK    2  A    between atoms: C_3  and  O_4 
REMARK    3  A    between atoms: O_4  and  C_5 
REMARK    4  A    between atoms: C_8  and  C_9 
REMARK    5  A    between atoms: C_13  and  C_14 
REMARK       I    between atoms: C_14  and  N_15 
REMARK    6  A    between atoms: N_15  and  N_16 
REMARK    7  A    between atoms: C_17  and  C_18 
REMARK    8  A    between atoms: C_21  and  O_22 
ROOT
HETATM    1  C   UNL     1      43.537  -9.316  10.865  1.00  0.00     0.089 A 
HETATM    2  N   UNL     1      43.880  -8.379   9.969  1.00  0.00    -0.174 NA
HETATM    3  N   UNL     1      44.286  -9.069   8.894  1.00  0.00    -0.272 N 
HETATM    4  H   UNL     1      44.603  -8.563   8.071  1.00  0.00     0.189 HD
HETATM    5  C   UNL     1      44.199 -10.426   9.031  1.00  0.00     0.121 A 
HETATM    6  C   UNL     1      43.730 -10.616  10.316  1.00  0.00     0.071 A 
ENDROOT
BRANCH   5   7
HETATM    7  C   UNL     1      44.552 -11.310   7.948  1.00  0.00     0.289 C 
HETATM    8  N   UNL     1      43.610 -12.290   7.674  1.00  0.00    -0.242 N 
HETATM    9  H   UNL     1      42.758 -12.347   8.213  1.00  0.00     0.192 HD
HETATM   10  O   UNL     1      45.606 -11.169   7.333  1.00  0.00    -0.264 OA
BRANCH   8  11
HETATM   11  N   UNL     1      43.797 -13.156   6.635  1.00  0.00    -0.184 NA
HETATM   12  C   UNL     1      43.317 -14.346   6.805  1.00  0.00     0.150 C 
BRANCH  12  13
HETATM   13  C   UNL     1      43.432 -15.387   5.764  1.00  0.00    -0.017 A 
HETATM   14  C   UNL     1      42.923 -15.178   4.482  1.00  0.00     0.016 A 
HETATM   15  C   UNL     1      43.048 -16.181   3.518  1.00  0.00     0.037 A 
HETATM   16  C   UNL     1      43.685 -17.388   3.822  1.00  0.00     0.068 A 
HETATM   17  C   UNL     1      44.187 -17.592   5.109  1.00  0.00     0.037 A 
HETATM   18  C   UNL     1      44.061 -16.594   6.082  1.00  0.00     0.016 A 
BRANCH  16  19
HETATM   19  O   UNL     1      43.744 -18.278   2.786  1.00  0.00    -0.356 OA
HETATM   20  C   UNL     1      43.920 -19.648   3.123  1.00  0.00     0.210 C 
ENDBRANCH  16  19
ENDBRANCH  12  13
ENDBRANCH   8  11
ENDBRANCH   5   7
BRANCH   1  21
HETATM   21  C   UNL     1      43.011  -8.966  12.187  1.00  0.00    -0.005 A 
HETATM   22  C   UNL     1      43.513  -7.854  12.877  1.00  0.00     0.016 A 
HETATM   23  C   UNL     1      42.989  -7.480  14.122  1.00  0.00     0.037 A 
HETATM   24  C   UNL     1      41.957  -8.218  14.696  1.00  0.00     0.068 A 
HETATM   25  C   UNL     1      41.471  -9.344  14.028  1.00  0.00     0.037 A 
HETATM   26  C   UNL     1      41.990  -9.716  12.782  1.00  0.00     0.016 A 
BRANCH  24  27
HETATM   27  O   UNL     1      41.348  -7.956  15.892  1.00  0.00    -0.351 OA
BRANCH  27  28
HETATM   28  C   UNL     1      41.905  -6.904  16.681  1.00  0.00     0.175 C 
BRANCH  28  29
HETATM   29  C   UNL     1      40.873  -6.518  17.738  1.00  0.00     0.022 C 
HETATM   30  C   UNL     1      40.238  -7.739  18.379  1.00  0.00     0.007 C 
ENDBRANCH  28  29
ENDBRANCH  27  28
ENDBRANCH  24  27
ENDBRANCH   1  21
TORSDOF 8
ENDMDL
MODEL 3
REMARK VINA RESULT:      -7.8      1.168     11.995
REMARK  8 active torsions:
REMARK  status: ('A' for Active; 'I' for Inactive)
REMARK    1  A    between atoms: C_2  and  C_3 
REMARK    2  A    between atoms: C_3  and  O_4 
REMARK    3  A    between atoms: O_4  and  C_5 
REMARK    4  A    between atoms: C_8  and  C_9 
REMARK    5  A    between atoms: C_13  and  C_14 
REMARK       I    between atoms: C_14  and  N_15 
REMARK    6  A    between atoms: N_15  and  N_16 
REMARK    7  A    between atoms: C_17  and  C_18 
REMARK    8  A    between atoms: C_21  and  O_22 
ROOT
HETATM    1  C   UNL     1      43.225  -9.106  10.984  1.00  0.00     0.089 A 
HETATM    2  N   UNL     1      43.071  -8.312   9.914  1.00  0.00    -0.174 NA
HETATM    3  N   UNL     1      43.543  -9.033   8.885  1.00  0.00    -0.272 N 
HETATM    4  H   UNL     1      43.532  -8.630   7.952  1.00  0.00     0.189 HD
HETATM    5  C   UNL     1      43.976 -10.283   9.227  1.00  0.00     0.121 A 
HETATM    6  C   UNL     1      43.797 -10.351  10.595  1.00  0.00     0.071 A 
ENDROOT
BRANCH   5   7
HETATM    7  C   UNL     1      44.467 -11.202   8.230  1.00  0.00     0.289 C 
HETATM    8  N   UNL     1      43.557 -12.175   7.845  1.00  0.00    -0.242 N 
HETATM    9  H   UNL     1      42.634 -12.204   8.254  1.00  0.00     0.192 HD
HETATM   10  O   UNL     1      45.602 -11.093   7.774  1.00  0.00    -0.264 OA
BRANCH   8  11
HETATM   11  N   UNL     1      43.879 -13.071   6.867  1.00  0.00    -0.184 NA
HETATM   12  C   UNL     1      43.128 -14.124   6.805  1.00  0.00     0.150 C 
BRANCH  12  13
HETATM   13  C   UNL     1      43.346 -15.175   5.791  1.00  0.00    -0.017 A 
HETATM   14  C   UNL     1      44.114 -16.304   6.083  1.00  0.00     0.016 A 
HETATM   15  C   UNL     1      44.301 -17.282   5.104  1.00  0.00     0.037 A 
HETATM   16  C   UNL     1      43.723 -17.147   3.839  1.00  0.00     0.068 A 
HETATM   17  C   UNL     1      42.961 -16.011   3.552  1.00  0.00     0.037 A 
HETATM   18  C   UNL     1      42.773 -15.024   4.526  1.00  0.00     0.016 A 
BRANCH  16  19
HETATM   19  O   UNL     1      43.980 -18.179   2.980  1.00  0.00    -0.356 OA
HETATM   20  C   UNL     1      44.015 -19.487   3.537  1.00  0.00     0.210 C 
ENDBRANCH  16  19
ENDBRANCH  12  13
ENDBRANCH   8  11
ENDBRANCH   5   7
BRANCH   1  21
HETATM   21  C   UNL     1      42.803  -8.688  12.323  1.00  0.00    -0.005 A 
HETATM   22  C   UNL     1      41.748  -9.344  12.971  1.00  0.00     0.016 A 
HETATM   23  C   UNL     1      41.362  -8.985  14.269  1.00  0.00     0.037 A 
HETATM   24  C   UNL     1      42.027  -7.958  14.936  1.00  0.00     0.068 A 
HETATM   25  C   UNL     1      43.059  -7.280  14.287  1.00  0.00     0.037 A 
HETATM   26  C   UNL     1      43.450  -7.641  12.992  1.00  0.00     0.016 A 
BRANCH  24  27
HETATM   27  O   UNL     1      41.763  -7.519  16.204  1.00  0.00    -0.351 OA
BRANCH  27  28
HETATM   28  C   UNL     1      40.471  -6.955  16.435  1.00  0.00     0.175 C 
BRANCH  28  29
HETATM   29  C   UNL     1      40.121  -7.178  17.904  1.00  0.00     0.022 C 
HETATM   30  C   UNL     1      41.231  -7.900  18.646  1.00  0.00     0.007 C 
ENDBRANCH  28  29
ENDBRANCH  27  28
ENDBRANCH  24  27
ENDBRANCH   1  21
TORSDOF 8
ENDMDL
MODEL 4
REMARK VINA RESULT:      -7.6      2.160     11.977
REMARK  8 active torsions:
REMARK  status: ('A' for Active; 'I' for Inactive)
REMARK    1  A    between atoms: C_2  and  C_3 
REMARK    2  A    between atoms: C_3  and  O_4 
REMARK    3  A    between atoms: O_4  and  C_5 
REMARK    4  A    between atoms: C_8  and  C_9 
REMARK    5  A    between atoms: C_13  and  C_14 
REMARK       I    between atoms: C_14  and  N_15 
REMARK    6  A    between atoms: N_15  and  N_16 
REMARK    7  A    between atoms: C_17  and  C_18 
REMARK    8  A    between atoms: C_21  and  O_22 
ROOT
HETATM    1  C   UNL     1      44.134  -9.368   9.746  1.00  0.00     0.089 A 
HETATM    2  N   UNL     1      45.425  -9.723   9.840  1.00  0.00    -0.174 NA
HETATM    3  N   UNL     1      45.600 -10.627   8.865  1.00  0.00    -0.272 N 
HETATM    4  H   UNL     1      46.517 -11.049   8.740  1.00  0.00     0.189 HD
HETATM    5  C   UNL     1      44.485 -10.865   8.111  1.00  0.00     0.121 A 
HETATM    6  C   UNL     1      43.507 -10.070   8.677  1.00  0.00     0.071 A 
ENDROOT
BRANCH   5   7
HETATM    7  C   UNL     1      44.520 -11.775   6.993  1.00  0.00     0.289 C 
HETATM    8  N   UNL     1      43.536 -12.751   7.014  1.00  0.00    -0.242 N 
HETATM    9  H   UNL     1      42.866 -12.788   7.769  1.00  0.00     0.192 HD
HETATM   10  O   UNL     1      45.362 -11.656   6.107  1.00  0.00    -0.264 OA
BRANCH   8  11
HETATM   11  N   UNL     1      43.424 -13.639   5.983  1.00  0.00    -0.184 NA
HETATM   12  C   UNL     1      43.660 -14.876   6.284  1.00  0.00     0.150 C 
BRANCH  12  13
HETATM   13  C   UNL     1      43.567 -15.952   5.277  1.00  0.00    -0.017 A 
HETATM   14  C   UNL     1      44.285 -17.139   5.428  1.00  0.00     0.016 A 
HETATM   15  C   UNL     1      44.175 -18.140   4.459  1.00  0.00     0.037 A 
HETATM   16  C   UNL     1      43.349 -17.967   3.345  1.00  0.00     0.068 A 
HETATM   17  C   UNL     1      42.638 -16.774   3.197  1.00  0.00     0.037 A 
HETATM   18  C   UNL     1      42.746 -15.765   4.161  1.00  0.00     0.016 A 
BRANCH  16  19
HETATM   19  O   UNL     1      43.329 -19.026   2.480  1.00  0.00    -0.356 OA
HETATM   20  C   UNL     1      43.774 -20.279   2.985  1.00  0.00     0.210 C 
ENDBRANCH  16  19
ENDBRANCH  12  13
ENDBRANCH   8  11
ENDBRANCH   5   7
BRANCH   1  21
HETATM   21  C   UNL     1      43.542  -8.366  10.635  1.00  0.00    -0.005 A 
HETATM   22  C   UNL     1      42.903  -7.236  10.105  1.00  0.00     0.016 A 
HETATM   23  C   UNL     1      42.293  -6.292  10.941  1.00  0.00     0.037 A 
HETATM   24  C   UNL     1      42.318  -6.464  12.323  1.00  0.00     0.068 A 
HETATM   25  C   UNL     1      42.977  -7.571  12.861  1.00  0.00     0.037 A 
HETATM   26  C   UNL     1      43.582  -8.518  12.027  1.00  0.00     0.016 A 
BRANCH  24  27
HETATM   27  O   UNL     1      41.753  -5.630  13.248  1.00  0.00    -0.351 OA
BRANCH  27  28
HETATM   28  C   UNL     1      41.387  -4.325  12.800  1.00  0.00     0.175 C 
BRANCH  28  29
HETATM   29  C   UNL     1      42.567  -3.394  13.062  1.00  0.00     0.022 C 
HETATM   30  C   UNL     1      43.085  -2.763  11.782  1.00  0.00     0.007 C 
ENDBRANCH  28  29
ENDBRANCH  27  28
ENDBRANCH  24  27
ENDBRANCH   1  21
TORSDOF 8
ENDMDL
MODEL 5
REMARK VINA RESULT:      -7.5      1.962     11.713
REMARK  8 active torsions:
REMARK  status: ('A' for Active; 'I' for Inactive)
REMARK    1  A    between atoms: C_2  and  C_3 
REMARK    2  A    between atoms: C_3  and  O_4 
REMARK    3  A    between atoms: O_4  and  C_5 
REMARK    4  A    between atoms: C_8  and  C_9 
REMARK    5  A    between atoms: C_13  and  C_14 
REMARK       I    between atoms: C_14  and  N_15 
REMARK    6  A    between atoms: N_15  and  N_16 
REMARK    7  A    between atoms: C_17  and  C_18 
REMARK    8  A    between atoms: C_21  and  O_22 
ROOT
HETATM    1  C   UNL     1      44.135  -9.290   9.808  1.00  0.00     0.089 A 
HETATM    2  N   UNL     1      45.421  -9.023   9.532  1.00  0.00    -0.174 NA
HETATM    3  N   UNL     1      45.741  -9.877   8.549  1.00  0.00    -0.272 N 
HETATM    4  H   UNL     1      46.684  -9.864   8.169  1.00  0.00     0.189 HD
HETATM    5  C   UNL     1      44.711 -10.680   8.143  1.00  0.00     0.121 A 
HETATM    6  C   UNL     1      43.655 -10.330   8.962  1.00  0.00     0.071 A 
ENDROOT
BRANCH   5   7
HETATM    7  C   UNL     1      44.878 -11.620   7.062  1.00  0.00     0.289 C 
HETATM    8  N   UNL     1      43.922 -12.623   7.019  1.00  0.00    -0.242 N 
HETATM    9  H   UNL     1      43.184 -12.657   7.707  1.00  0.00     0.192 HD
HETATM   10  O   UNL     1      45.799 -11.502   6.259  1.00  0.00    -0.264 OA
BRANCH   8  11
HETATM   11  N   UNL     1      43.934 -13.543   6.010  1.00  0.00    -0.184 NA
HETATM   12  C   UNL     1      43.608 -14.749   6.350  1.00  0.00     0.150 C 
BRANCH  12  13
HETATM   13  C   UNL     1      43.565 -15.849   5.367  1.00  0.00    -0.017 A 
HETATM   14  C   UNL     1      42.698 -15.800   4.274  1.00  0.00     0.016 A 
HETATM   15  C   UNL     1      42.681 -16.855   3.359  1.00  0.00     0.037 A 
HETATM   16  C   UNL     1      43.527 -17.956   3.523  1.00  0.00     0.068 A 
HETATM   17  C   UNL     1      44.387 -18.002   4.623  1.00  0.00     0.037 A 
HETATM   18  C   UNL     1      44.407 -16.950   5.546  1.00  0.00     0.016 A 
BRANCH  16  19
HETATM   19  O   UNL     1      43.412 -18.913   2.553  1.00  0.00    -0.356 OA
HETATM   20  C   UNL     1      43.739 -20.247   2.922  1.00  0.00     0.210 C 
ENDBRANCH  16  19
ENDBRANCH  12  13
ENDBRANCH   8  11
ENDBRANCH   5   7
BRANCH   1  21
HETATM   21  C   UNL     1      43.394  -8.544  10.828  1.00  0.00    -0.005 A 
HETATM   22  C   UNL     1      43.638  -8.770  12.190  1.00  0.00     0.016 A 
HETATM   23  C   UNL     1      42.969  -8.032  13.175  1.00  0.00     0.037 A 
HETATM   24  C   UNL     1      42.041  -7.059  12.811  1.00  0.00     0.068 A 
HETATM   25  C   UNL     1      41.772  -6.847  11.458  1.00  0.00     0.037 A 
HETATM   26  C   UNL     1      42.443  -7.580  10.471  1.00  0.00     0.016 A 
BRANCH  24  27
HETATM   27  O   UNL     1      41.333  -6.261  13.666  1.00  0.00    -0.351 OA
BRANCH  27  28
HETATM   28  C   UNL     1      40.076  -5.771  13.198  1.00  0.00     0.175 C 
BRANCH  28  29
HETATM   29  C   UNL     1      38.976  -6.513  13.950  1.00  0.00     0.022 C 
HETATM   30  C   UNL     1      37.865  -6.970  13.022  1.00  0.00     0.007 C 
ENDBRANCH  28  29
ENDBRANCH  27  28
ENDBRANCH  24  27
ENDBRANCH   1  21
TORSDOF 8
ENDMDL
MODEL 6
REMARK VINA RESULT:      -7.4      1.853      2.689
REMARK  8 active torsions:
REMARK  status: ('A' for Active; 'I' for Inactive)
REMARK    1  A    between atoms: C_2  and  C_3 
REMARK    2  A    between atoms: C_3  and  O_4 
REMARK    3  A    between atoms: O_4  and  C_5 
REMARK    4  A    between atoms: C_8  and  C_9 
REMARK    5  A    between atoms: C_13  and  C_14 
REMARK       I    between atoms: C_14  and  N_15 
REMARK    6  A    between atoms: N_15  and  N_16 
REMARK    7  A    between atoms: C_17  and  C_18 
REMARK    8  A    between atoms: C_21  and  O_22 
ROOT
HETATM    1  C   UNL     1      44.019 -11.796   6.202  1.00  0.00     0.089 A 
HETATM    2  N   UNL     1      45.331 -11.916   6.452  1.00  0.00    -0.174 NA
HETATM    3  N   UNL     1      45.527 -11.220   7.582  1.00  0.00    -0.272 N 
HETATM    4  H   UNL     1      46.463 -11.164   7.973  1.00  0.00     0.189 HD
HETATM    5  C   UNL     1      44.392 -10.668   8.106  1.00  0.00     0.121 A 
HETATM    6  C   UNL     1      43.394 -11.012   7.214  1.00  0.00     0.071 A 
ENDROOT
BRANCH   5   7
HETATM    7  C   UNL     1      44.423  -9.929   9.344  1.00  0.00     0.289 C 
HETATM    8  N   UNL     1      43.610 -10.444  10.343  1.00  0.00    -0.242 N 
HETATM    9  H   UNL     1      43.056 -11.272  10.176  1.00  0.00     0.192 HD
HETATM   10  O   UNL     1      45.133  -8.935   9.470  1.00  0.00    -0.264 OA
BRANCH   8  11
HETATM   11  N   UNL     1      43.593  -9.871  11.581  1.00  0.00    -0.184 NA
HETATM   12  C   UNL     1      42.511  -9.229  11.885  1.00  0.00     0.150 C 
BRANCH  12  13
HETATM   13  C   UNL     1      42.340  -8.567  13.193  1.00  0.00    -0.017 A 
HETATM   14  C   UNL     1      43.191  -7.535  13.591  1.00  0.00     0.016 A 
HETATM   15  C   UNL     1      43.004  -6.927  14.834  1.00  0.00     0.037 A 
HETATM   16  C   UNL     1      41.970  -7.336  15.681  1.00  0.00     0.068 A 
HETATM   17  C   UNL     1      41.126  -8.373  15.279  1.00  0.00     0.037 A 
HETATM   18  C   UNL     1      41.310  -8.991  14.037  1.00  0.00     0.016 A 
BRANCH  16  19
HETATM   19  O   UNL     1      41.897  -6.653  16.863  1.00  0.00    -0.356 OA
HETATM   20  C   UNL     1      40.597  -6.328  17.340  1.00  0.00     0.210 C 
ENDBRANCH  16  19
ENDBRANCH  12  13
ENDBRANCH   8  11
ENDBRANCH   5   7
BRANCH   1  21
HETATM   21  C   UNL     1      43.391 -12.442   5.048  1.00  0.00    -0.005 A 
HETATM   22  C   UNL     1      42.527 -13.532   5.228  1.00  0.00     0.016 A 
HETATM   23  C   UNL     1      41.884 -14.132   4.137  1.00  0.00     0.037 A 
HETATM   24  C   UNL     1      42.100 -13.651   2.847  1.00  0.00     0.068 A 
HETATM   25  C   UNL     1      42.980 -12.585   2.657  1.00  0.00     0.037 A 
HETATM   26  C   UNL     1      43.619 -11.980   3.745  1.00  0.00     0.016 A 
BRANCH  24  27
HETATM   27  O   UNL     1      41.528 -14.132   1.703  1.00  0.00    -0.351 OA
BRANCH  27  28
HETATM   28  C   UNL     1      41.482 -15.552   1.553  1.00  0.00     0.175 C 
BRANCH  28  29
HETATM   29  C   UNL     1      42.914 -16.047   1.367  1.00  0.00     0.022 C 
HETATM   30  C   UNL     1      43.274 -17.126   2.373  1.00  0.00     0.007 C 
ENDBRANCH  28  29
ENDBRANCH  27  28
ENDBRANCH  24  27
ENDBRANCH   1  21
TORSDOF 8
ENDMDL
MODEL 7
REMARK VINA RESULT:      -7.2      8.302     13.202
REMARK  8 active torsions:
REMARK  status: ('A' for Active; 'I' for Inactive)
REMARK    1  A    between atoms: C_2  and  C_3 
REMARK    2  A    between atoms: C_3  and  O_4 
REMARK    3  A    between atoms: O_4  and  C_5 
REMARK    4  A    between atoms: C_8  and  C_9 
REMARK    5  A    between atoms: C_13  and  C_14 
REMARK       I    between atoms: C_14  and  N_15 
REMARK    6  A    between atoms: N_15  and  N_16 
REMARK    7  A    between atoms: C_17  and  C_18 
REMARK    8  A    between atoms: C_21  and  O_22 
ROOT
HETATM    1  C   UNL     1      41.046 -14.725   0.943  1.00  0.00     0.089 A 
HETATM    2  N   UNL     1      41.548 -13.517   0.647  1.00  0.00    -0.174 NA
HETATM    3  N   UNL     1      40.861 -13.120  -0.434  1.00  0.00    -0.272 N 
HETATM    4  H   UNL     1      41.072 -12.216  -0.850  1.00  0.00     0.189 HD
HETATM    5  C   UNL     1      39.906 -14.004  -0.850  1.00  0.00     0.121 A 
HETATM    6  C   UNL     1      40.017 -15.070   0.021  1.00  0.00     0.071 A 
ENDROOT
BRANCH   5   7
HETATM    7  C   UNL     1      39.048 -13.705  -1.970  1.00  0.00     0.289 C 
HETATM    8  N   UNL     1      37.793 -13.226  -1.623  1.00  0.00    -0.242 N 
HETATM    9  H   UNL     1      37.539 -13.111  -0.652  1.00  0.00     0.192 HD
HETATM   10  O   UNL     1      39.436 -13.864  -3.124  1.00  0.00    -0.264 OA
BRANCH   8  11
HETATM   11  N   UNL     1      36.907 -12.852  -2.591  1.00  0.00    -0.184 NA
HETATM   12  C   UNL     1      36.645 -11.586  -2.650  1.00  0.00     0.150 C 
BRANCH  12  13
HETATM   13  C   UNL     1      35.714 -11.030  -3.653  1.00  0.00    -0.017 A 
HETATM   14  C   UNL     1      35.915  -9.758  -4.190  1.00  0.00     0.016 A 
HETATM   15  C   UNL     1      35.019  -9.260  -5.138  1.00  0.00     0.037 A 
HETATM   16  C   UNL     1      33.927 -10.025  -5.560  1.00  0.00     0.068 A 
HETATM   17  C   UNL     1      33.728 -11.295  -5.013  1.00  0.00     0.037 A 
HETATM   18  C   UNL     1      34.620 -11.799  -4.059  1.00  0.00     0.016 A 
BRANCH  16  19
HETATM   19  O   UNL     1      33.134  -9.421  -6.495  1.00  0.00    -0.356 OA
HETATM   20  C   UNL     1      31.743  -9.709  -6.444  1.00  0.00     0.210 C 
ENDBRANCH  16  19
ENDBRANCH  12  13
ENDBRANCH   8  11
ENDBRANCH   5   7
BRANCH   1  21
HETATM   21  C   UNL     1      41.522 -15.498   2.093  1.00  0.00    -0.005 A 
HETATM   22  C   UNL     1      42.733 -16.200   2.023  1.00  0.00     0.016 A 
HETATM   23  C   UNL     1      43.223 -16.907   3.129  1.00  0.00     0.037 A 
HETATM   24  C   UNL     1      42.503 -16.925   4.322  1.00  0.00     0.068 A 
HETATM   25  C   UNL     1      41.283 -16.252   4.390  1.00  0.00     0.037 A 
HETATM   26  C   UNL     1      40.794 -15.541   3.288  1.00  0.00     0.016 A 
BRANCH  24  27
HETATM   27  O   UNL     1      42.872 -17.560   5.475  1.00  0.00    -0.351 OA
BRANCH  27  28
HETATM   28  C   UNL     1      43.982 -18.455   5.391  1.00  0.00     0.175 C 
BRANCH  28  29
HETATM   29  C   UNL     1      43.568 -19.773   6.040  1.00  0.00     0.022 C 
HETATM   30  C   UNL     1      43.951 -20.968   5.187  1.00  0.00     0.007 C 
ENDBRANCH  28  29
ENDBRANCH  27  28
ENDBRANCH  24  27
ENDBRANCH   1  21
TORSDOF 8
ENDMDL
MODEL 8
REMARK VINA RESULT:      -7.0      2.173     12.000
REMARK  8 active torsions:
REMARK  status: ('A' for Active; 'I' for Inactive)
REMARK    1  A    between atoms: C_2  and  C_3 
REMARK    2  A    between atoms: C_3  and  O_4 
REMARK    3  A    between atoms: O_4  and  C_5 
REMARK    4  A    between atoms: C_8  and  C_9 
REMARK    5  A    between atoms: C_13  and  C_14 
REMARK       I    between atoms: C_14  and  N_15 
REMARK    6  A    between atoms: N_15  and  N_16 
REMARK    7  A    between atoms: C_17  and  C_18 
REMARK    8  A    between atoms: C_21  and  O_22 
ROOT
HETATM    1  C   UNL     1      44.001  -8.928  10.441  1.00  0.00     0.089 A 
HETATM    2  N   UNL     1      45.335  -9.063  10.477  1.00  0.00    -0.174 NA
HETATM    3  N   UNL     1      45.609  -9.983   9.541  1.00  0.00    -0.272 N 
HETATM    4  H   UNL     1      46.575 -10.257   9.384  1.00  0.00     0.189 HD
HETATM    5  C   UNL     1      44.513 -10.442   8.866  1.00  0.00     0.121 A 
HETATM    6  C   UNL     1      43.446  -9.784   9.446  1.00  0.00     0.071 A 
ENDROOT
BRANCH   5   7
HETATM    7  C   UNL     1      44.643 -11.399   7.795  1.00  0.00     0.289 C 
HETATM    8  N   UNL     1      43.566 -12.263   7.661  1.00  0.00    -0.242 N 
HETATM    9  H   UNL     1      42.774 -12.195   8.283  1.00  0.00     0.192 HD
HETATM   10  O   UNL     1      45.636 -11.411   7.074  1.00  0.00    -0.264 OA
BRANCH   8  11
HETATM   11  N   UNL     1      43.540 -13.179   6.649  1.00  0.00    -0.184 NA
HETATM   12  C   UNL     1      43.594 -14.420   7.017  1.00  0.00     0.150 C 
BRANCH  12  13
HETATM   13  C   UNL     1      43.562 -15.523   6.036  1.00  0.00    -0.017 A 
HETATM   14  C   UNL     1      42.611 -15.548   5.015  1.00  0.00     0.016 A 
HETATM   15  C   UNL     1      42.607 -16.604   4.101  1.00  0.00     0.037 A 
HETATM   16  C   UNL     1      43.549 -17.633   4.195  1.00  0.00     0.068 A 
HETATM   17  C   UNL     1      44.494 -17.605   5.224  1.00  0.00     0.037 A 
HETATM   18  C   UNL     1      44.501 -16.552   6.146  1.00  0.00     0.016 A 
BRANCH  16  19
HETATM   19  O   UNL     1      43.436 -18.599   3.234  1.00  0.00    -0.356 OA
HETATM   20  C   UNL     1      42.676 -18.272   2.078  1.00  0.00     0.210 C 
ENDBRANCH  16  19
ENDBRANCH  12  13
ENDBRANCH   8  11
ENDBRANCH   5   7
BRANCH   1  21
HETATM   21  C   UNL     1      43.296  -7.984  11.311  1.00  0.00    -0.005 A 
HETATM   22  C   UNL     1      42.615  -6.887  10.763  1.00  0.00     0.016 A 
HETATM   23  C   UNL     1      41.899  -6.001  11.579  1.00  0.00     0.037 A 
HETATM   24  C   UNL     1      41.858  -6.198  12.957  1.00  0.00     0.068 A 
HETATM   25  C   UNL     1      42.556  -7.271  13.513  1.00  0.00     0.037 A 
HETATM   26  C   UNL     1      43.268  -8.161  12.700  1.00  0.00     0.016 A 
BRANCH  24  27
HETATM   27  O   UNL     1      41.188  -5.422  13.862  1.00  0.00    -0.351 OA
BRANCH  27  28
HETATM   28  C   UNL     1      40.720  -4.154  13.400  1.00  0.00     0.175 C 
BRANCH  28  29
HETATM   29  C   UNL     1      41.654  -3.082  13.953  1.00  0.00     0.022 C 
HETATM   30  C   UNL     1      42.603  -2.556  12.891  1.00  0.00     0.007 C 
ENDBRANCH  28  29
ENDBRANCH  27  28
ENDBRANCH  24  27
ENDBRANCH   1  21
TORSDOF 8
ENDMDL
MODEL 9
REMARK VINA RESULT:      -6.9      2.315      2.752
REMARK  8 active torsions:
REMARK  status: ('A' for Active; 'I' for Inactive)
REMARK    1  A    between atoms: C_2  and  C_3 
REMARK    2  A    between atoms: C_3  and  O_4 
REMARK    3  A    between atoms: O_4  and  C_5 
REMARK    4  A    between atoms: C_8  and  C_9 
REMARK    5  A    between atoms: C_13  and  C_14 
REMARK       I    between atoms: C_14  and  N_15 
REMARK    6  A    between atoms: N_15  and  N_16 
REMARK    7  A    between atoms: C_17  and  C_18 
REMARK    8  A    between atoms: C_21  and  O_22 
ROOT
HETATM    1  C   UNL     1      43.193 -13.292   6.067  1.00  0.00     0.089 A 
HETATM    2  N   UNL     1      43.980 -13.213   7.151  1.00  0.00    -0.174 NA
HETATM    3  N   UNL     1      43.747 -11.990   7.651  1.00  0.00    -0.272 N 
HETATM    4  H   UNL     1      44.241 -11.695   8.489  1.00  0.00     0.189 HD
HETATM    5  C   UNL     1      42.817 -11.267   6.957  1.00  0.00     0.121 A 
HETATM    6  C   UNL     1      42.452 -12.086   5.907  1.00  0.00     0.071 A 
ENDROOT
BRANCH   5   7
HETATM    7  C   UNL     1      42.418  -9.951   7.393  1.00  0.00     0.289 C 
HETATM    8  N   UNL     1      42.493  -9.750   8.763  1.00  0.00    -0.242 N 
HETATM    9  H   UNL     1      42.807 -10.491   9.373  1.00  0.00     0.192 HD
HETATM   10  O   UNL     1      42.056  -9.100   6.584  1.00  0.00    -0.264 OA
BRANCH   8  11
HETATM   11  N   UNL     1      42.197  -8.530   9.297  1.00  0.00    -0.184 NA
HETATM   12  C   UNL     1      42.851  -8.215  10.369  1.00  0.00     0.150 C 
BRANCH  12  13
HETATM   13  C   UNL     1      42.648  -6.923  11.053  1.00  0.00    -0.017 A 
HETATM   14  C   UNL     1      42.680  -5.722  10.343  1.00  0.00     0.016 A 
HETATM   15  C   UNL     1      42.482  -4.516  11.018  1.00  0.00     0.037 A 
HETATM   16  C   UNL     1      42.245  -4.498  12.395  1.00  0.00     0.068 A 
HETATM   17  C   UNL     1      42.220  -5.703  13.101  1.00  0.00     0.037 A 
HETATM   18  C   UNL     1      42.422  -6.916  12.432  1.00  0.00     0.016 A 
BRANCH  16  19
HETATM   19  O   UNL     1      42.062  -3.252  12.927  1.00  0.00    -0.356 OA
HETATM   20  C   UNL     1      41.253  -2.348  12.186  1.00  0.00     0.210 C 
ENDBRANCH  16  19
ENDBRANCH  12  13
ENDBRANCH   8  11
ENDBRANCH   5   7
BRANCH   1  21
HETATM   21  C   UNL     1      43.138 -14.500   5.241  1.00  0.00    -0.005 A 
HETATM   22  C   UNL     1      42.878 -14.407   3.866  1.00  0.00     0.016 A 
HETATM   23  C   UNL     1      42.866 -15.550   3.055  1.00  0.00     0.037 A 
HETATM   24  C   UNL     1      43.111 -16.804   3.610  1.00  0.00     0.068 A 
HETATM   25  C   UNL     1      43.342 -16.908   4.982  1.00  0.00     0.037 A 
HETATM   26  C   UNL     1      43.359 -15.767   5.794  1.00  0.00     0.016 A 
BRANCH  24  27
HETATM   27  O   UNL     1      43.143 -17.991   2.933  1.00  0.00    -0.351 OA
BRANCH  27  28
HETATM   28  C   UNL     1      44.211 -18.884   3.249  1.00  0.00     0.175 C 
BRANCH  28  29
HETATM   29  C   UNL     1      43.730 -20.305   2.968  1.00  0.00     0.022 C 
HETATM   30  C   UNL     1      43.428 -20.519   1.495  1.00  0.00     0.007 C 
ENDBRANCH  28  29
ENDBRANCH  27  28
ENDBRANCH  24  27
ENDBRANCH   1  21
TORSDOF 8
ENDMDL
MODEL 10
REMARK VINA RESULT:      -6.9      2.639     12.009
REMARK  8 active torsions:
REMARK  status: ('A' for Active; 'I' for Inactive)
REMARK    1  A    between atoms: C_2  and  C_3 
REMARK    2  A    between atoms: C_3  and  O_4 
REMARK    3  A    between atoms: O_4  and  C_5 
REMARK    4  A    between atoms: C_8  and  C_9 
REMARK    5  A    between atoms: C_13  and  C_14 
REMARK       I    between atoms: C_14  and  N_15 
REMARK    6  A    between atoms: N_15  and  N_16 
REMARK    7  A    between atoms: C_17  and  C_18 
REMARK    8  A    between atoms: C_21  and  O_22 
ROOT
HETATM    1  C   UNL     1      43.916  -9.575  11.035  1.00  0.00     0.089 A 
HETATM    2  N   UNL     1      45.157  -9.184  10.711  1.00  0.00    -0.174 NA
HETATM    3  N   UNL     1      45.416  -9.804   9.550  1.00  0.00    -0.272 N 
HETATM    4  H   UNL     1      46.318  -9.660   9.102  1.00  0.00     0.189 HD
HETATM    5  C   UNL     1      44.386 -10.567   9.078  1.00  0.00     0.121 A 
HETATM    6  C   UNL     1      43.399 -10.451  10.037  1.00  0.00     0.071 A 
ENDROOT
BRANCH   5   7
HETATM    7  C   UNL     1      44.486 -11.260   7.817  1.00  0.00     0.289 C 
HETATM    8  N   UNL     1      43.340 -11.946   7.443  1.00  0.00    -0.242 N 
HETATM    9  H   UNL     1      42.522 -11.936   8.035  1.00  0.00     0.192 HD
HETATM   10  O   UNL     1      45.517 -11.215   7.151  1.00  0.00    -0.264 OA
BRANCH   8  11
HETATM   11  N   UNL     1      43.286 -12.596   6.244  1.00  0.00    -0.184 NA
HETATM   12  C   UNL     1      42.135 -12.583   5.653  1.00  0.00     0.150 C 
BRANCH  12  13
HETATM   13  C   UNL     1      41.926 -13.233   4.344  1.00  0.00    -0.017 A 
HETATM   14  C   UNL     1      40.640 -13.511   3.879  1.00  0.00     0.016 A 
HETATM   15  C   UNL     1      40.474 -14.126   2.636  1.00  0.00     0.037 A 
HETATM   16  C   UNL     1      41.581 -14.460   1.850  1.00  0.00     0.068 A 
HETATM   17  C   UNL     1      42.865 -14.184   2.325  1.00  0.00     0.037 A 
HETATM   18  C   UNL     1      43.040 -13.573   3.572  1.00  0.00     0.016 A 
BRANCH  16  19
HETATM   19  O   UNL     1      41.276 -15.050   0.655  1.00  0.00    -0.356 OA
HETATM   20  C   UNL     1      39.937 -14.919   0.195  1.00  0.00     0.210 C 
ENDBRANCH  16  19
ENDBRANCH  12  13
ENDBRANCH   8  11
ENDBRANCH   5   7
BRANCH   1  21
HETATM   21  C   UNL     1      43.245  -9.093  12.244  1.00  0.00    -0.005 A 
HETATM   22  C   UNL     1      43.640  -7.887  12.841  1.00  0.00     0.016 A 
HETATM   23  C   UNL     1      42.979  -7.391  13.972  1.00  0.00     0.037 A 
HETATM   24  C   UNL     1      41.914  -8.098  14.526  1.00  0.00     0.068 A 
HETATM   25  C   UNL     1      41.533  -9.313  13.955  1.00  0.00     0.037 A 
HETATM   26  C   UNL     1      42.189  -9.809  12.822  1.00  0.00     0.016 A 
BRANCH  24  27
HETATM   27  O   UNL     1      41.177  -7.721  15.614  1.00  0.00    -0.351 OA
BRANCH  27  28
HETATM   28  C   UNL     1      41.847  -6.948  16.610  1.00  0.00     0.175 C 
BRANCH  28  29
HETATM   29  C   UNL     1      41.040  -5.672  16.831  1.00  0.00     0.022 C 
HETATM   30  C   UNL     1      41.682  -4.770  17.870  1.00  0.00     0.007 C 
ENDBRANCH  28  29
ENDBRANCH  27  28
ENDBRANCH  24  27
ENDBRANCH   1  21
TORSDOF 8
ENDMDL
