MODEL 1
REMARK VINA RESULT:      -9.2      0.000      0.000
REMARK  9 active torsions:
REMARK  status: ('A' for Active; 'I' for Inactive)
REMARK    1  A    between atoms: C_4  and  S_5 
REMARK    2  A    between atoms: S_5  and  C_6 
REMARK    3  A    between atoms: C_6  and  C_7 
REMARK       I    between atoms: C_7  and  N_8 
REMARK    4  A    between atoms: N_8  and  C_9 
REMARK    5  A    between atoms: C_10  and  O_11 
REMARK    6  A    between atoms: C_16  and  O_17 
REMARK    7  A    between atoms: C_24  and  C_25 
REMARK    8  A    between atoms: C_31  and  C_32 
REMARK       I    between atoms: C_32  and  N_33 
REMARK    9  A    between atoms: N_33  and  C_34 
ROOT
HETATM    1  C   UNL     1      40.476 -15.514   6.945  1.00  0.00     0.069 C 
HETATM    2  C   UNL     1      40.987 -14.224   6.356  1.00  0.00     0.019 C 
HETATM    3  N   UNL     1      40.125 -13.139   6.429  1.00  0.00    -0.353 N 
HETATM    4  C   UNL     1      40.269 -11.982   5.681  1.00  0.00     0.087 C 
HETATM    5  C   UNL     1      41.449 -11.741   5.072  1.00  0.00     0.055 C 
HETATM    6  C   UNL     1      41.671 -10.566   4.133  1.00  0.00     0.019 C 
HETATM    7  N   UNL     1      41.856  -9.592   3.355  1.00  0.00    -0.096 N 
HETATM    8  C   UNL     1      42.625 -12.695   5.253  1.00  0.00     0.104 C 
HETATM    9  C   UNL     1      42.201 -14.069   5.773  1.00  0.00     0.046 C 
HETATM   10  H   UNL     1      39.198 -13.293   6.816  1.00  0.00     0.166 HD
ENDROOT
BRANCH   4  11
HETATM   11  S   UNL     1      38.954 -10.847   5.569  1.00  0.00    -0.102 SA
BRANCH  11  12
HETATM   12  C   UNL     1      39.535  -9.530   6.701  1.00  0.00     0.184 C 
BRANCH  12  13
HETATM   13  C   UNL     1      39.477 -10.126   8.096  1.00  0.00     0.231 C 
HETATM   14  N   UNL     1      40.424  -9.585   8.945  1.00  0.00    -0.324 N 
HETATM   15  H   UNL     1      41.337  -9.333   8.580  1.00  0.00     0.169 HD
HETATM   16  O   UNL     1      38.588 -10.901   8.442  1.00  0.00    -0.272 OA
BRANCH  14  17
HETATM   17  C   UNL     1      40.149  -9.062  10.229  1.00  0.00     0.071 A 
HETATM   18  C   UNL     1      41.121  -9.251  11.226  1.00  0.00     0.096 A 
HETATM   19  C   UNL     1      40.980  -8.612  12.457  1.00  0.00     0.065 A 
HETATM   20  C   UNL     1      39.865  -7.801  12.696  1.00  0.00     0.070 A 
HETATM   21 CL   UNL     1      39.773  -6.995  14.225  1.00  0.00    -0.081 Cl
HETATM   22  C   UNL     1      38.872  -7.628  11.721  1.00  0.00     0.092 A 
HETATM   23  C   UNL     1      39.021  -8.276  10.491  1.00  0.00     0.071 A 
BRANCH  18  24
HETATM   24  O   UNL     1      42.206 -10.024  10.882  1.00  0.00    -0.354 OA
HETATM   25  C   UNL     1      43.097 -10.317  11.956  1.00  0.00     0.210 C 
ENDBRANCH  18  24
BRANCH  22  26
HETATM   26  O   UNL     1      37.828  -6.797  12.034  1.00  0.00    -0.354 OA
HETATM   27  C   UNL     1      37.938  -5.428  11.658  1.00  0.00     0.210 C 
ENDBRANCH  22  26
ENDBRANCH  14  17
ENDBRANCH  12  13
ENDBRANCH  11  12
ENDBRANCH   4  11
BRANCH   8  28
HETATM   28  C   UNL     1      43.681 -12.031   6.146  1.00  0.00    -0.044 A 
HETATM   29  C   UNL     1      43.390 -11.661   7.471  1.00  0.00     0.008 A 
HETATM   30  C   UNL     1      44.354 -11.042   8.267  1.00  0.00     0.001 A 
HETATM   31  C   UNL     1      45.617 -10.771   7.747  1.00  0.00     0.000 A 
HETATM   32  C   UNL     1      45.916 -11.118   6.431  1.00  0.00     0.001 A 
HETATM   33  C   UNL     1      44.956 -11.742   5.633  1.00  0.00     0.008 A 
ENDBRANCH   8  28
BRANCH   9  34
HETATM   34  C   UNL     1      43.041 -15.260   5.423  1.00  0.00     0.255 C 
HETATM   35  N   UNL     1      42.565 -16.003   4.369  1.00  0.00    -0.323 N 
HETATM   36  H   UNL     1      41.765 -15.650   3.860  1.00  0.00     0.169 HD
HETATM   37  O   UNL     1      44.022 -15.521   6.114  1.00  0.00    -0.268 OA
BRANCH  35  38
HETATM   38  C   UNL     1      43.050 -17.248   3.912  1.00  0.00     0.035 A 
HETATM   39  C   UNL     1      43.850 -18.103   4.670  1.00  0.00     0.029 A 
HETATM   40  C   UNL     1      44.269 -19.331   4.148  1.00  0.00     0.002 A 
HETATM   41  C   UNL     1      43.884 -19.719   2.867  1.00  0.00     0.000 A 
HETATM   42  C   UNL     1      43.086 -18.872   2.102  1.00  0.00     0.002 A 
HETATM   43  C   UNL     1      42.678 -17.641   2.619  1.00  0.00     0.029 A 
ENDBRANCH  35  38
ENDBRANCH   9  34
TORSDOF 9
ENDMDL
MODEL 2
REMARK VINA RESULT:      -9.0      4.281      6.719
REMARK  9 active torsions:
REMARK  status: ('A' for Active; 'I' for Inactive)
REMARK    1  A    between atoms: C_4  and  S_5 
REMARK    2  A    between atoms: S_5  and  C_6 
REMARK    3  A    between atoms: C_6  and  C_7 
REMARK       I    between atoms: C_7  and  N_8 
REMARK    4  A    between atoms: N_8  and  C_9 
REMARK    5  A    between atoms: C_10  and  O_11 
REMARK    6  A    between atoms: C_16  and  O_17 
REMARK    7  A    between atoms: C_24  and  C_25 
REMARK    8  A    between atoms: C_31  and  C_32 
REMARK       I    between atoms: C_32  and  N_33 
REMARK    9  A    between atoms: N_33  and  C_34 
ROOT
HETATM    1  C   UNL     1      43.511 -13.416   2.849  1.00  0.00     0.069 C 
HETATM    2  C   UNL     1      42.184 -13.020   2.253  1.00  0.00     0.019 C 
HETATM    3  N   UNL     1      41.923 -11.658   2.201  1.00  0.00    -0.353 N 
HETATM    4  C   UNL     1      40.665 -11.116   1.996  1.00  0.00     0.087 C 
HETATM    5  C   UNL     1      39.681 -11.910   1.523  1.00  0.00     0.055 C 
HETATM    6  C   UNL     1      38.241 -11.446   1.377  1.00  0.00     0.019 C 
HETATM    7  N   UNL     1      37.046 -11.062   1.256  1.00  0.00    -0.096 N 
HETATM    8  C   UNL     1      39.964 -13.365   1.162  1.00  0.00     0.104 C 
HETATM    9  C   UNL     1      41.257 -13.892   1.786  1.00  0.00     0.046 C 
HETATM   10  H   UNL     1      42.606 -11.026   2.611  1.00  0.00     0.166 HD
ENDROOT
BRANCH   4  11
HETATM   11  S   UNL     1      40.381  -9.427   2.311  1.00  0.00    -0.102 SA
BRANCH  11  12
HETATM   12  C   UNL     1      40.088  -9.456   4.118  1.00  0.00     0.184 C 
BRANCH  12  13
HETATM   13  C   UNL     1      41.396  -9.907   4.743  1.00  0.00     0.231 C 
HETATM   14  N   UNL     1      41.205 -10.734   5.834  1.00  0.00    -0.324 N 
HETATM   15  H   UNL     1      40.420 -10.569   6.456  1.00  0.00     0.169 HD
HETATM   16  O   UNL     1      42.486  -9.661   4.233  1.00  0.00    -0.272 OA
BRANCH  14  17
HETATM   17  C   UNL     1      41.831 -11.990   6.012  1.00  0.00     0.071 A 
HETATM   18  C   UNL     1      43.051 -12.012   6.708  1.00  0.00     0.096 A 
HETATM   19  C   UNL     1      43.623 -13.233   7.059  1.00  0.00     0.065 A 
HETATM   20  C   UNL     1      42.987 -14.427   6.702  1.00  0.00     0.070 A 
HETATM   21 CL   UNL     1      43.722 -15.910   7.211  1.00  0.00    -0.081 Cl
HETATM   22  C   UNL     1      41.785 -14.420   5.980  1.00  0.00     0.092 A 
HETATM   23  C   UNL     1      41.221 -13.190   5.629  1.00  0.00     0.071 A 
BRANCH  18  24
HETATM   24  O   UNL     1      43.574 -10.789   7.060  1.00  0.00    -0.354 OA
HETATM   25  C   UNL     1      44.994 -10.761   7.192  1.00  0.00     0.210 C 
ENDBRANCH  18  24
BRANCH  22  26
HETATM   26  O   UNL     1      41.221 -15.637   5.694  1.00  0.00    -0.354 OA
HETATM   27  C   UNL     1      40.119 -16.058   6.492  1.00  0.00     0.210 C 
ENDBRANCH  22  26
ENDBRANCH  14  17
ENDBRANCH  12  13
ENDBRANCH  11  12
ENDBRANCH   4  11
BRANCH   8  28
HETATM   28  C   UNL     1      39.946 -13.518  -0.365  1.00  0.00    -0.044 A 
HETATM   29  C   UNL     1      39.252 -14.571  -0.987  1.00  0.00     0.008 A 
HETATM   30  C   UNL     1      39.257 -14.708  -2.375  1.00  0.00     0.001 A 
HETATM   31  C   UNL     1      39.967 -13.803  -3.160  1.00  0.00     0.000 A 
HETATM   32  C   UNL     1      40.671 -12.763  -2.559  1.00  0.00     0.001 A 
HETATM   33  C   UNL     1      40.664 -12.620  -1.171  1.00  0.00     0.008 A 
ENDBRANCH   8  28
BRANCH   9  34
HETATM   34  C   UNL     1      41.369 -15.358   2.074  1.00  0.00     0.255 C 
HETATM   35  N   UNL     1      42.561 -15.737   2.643  1.00  0.00    -0.323 N 
HETATM   36  H   UNL     1      43.215 -15.011   2.907  1.00  0.00     0.169 HD
HETATM   37  O   UNL     1      40.453 -16.103   1.736  1.00  0.00    -0.268 OA
BRANCH  35  38
HETATM   38  C   UNL     1      43.015 -17.052   2.884  1.00  0.00     0.035 A 
HETATM   39  C   UNL     1      42.816 -18.122   2.011  1.00  0.00     0.029 A 
HETATM   40  C   UNL     1      43.318 -19.391   2.317  1.00  0.00     0.002 A 
HETATM   41  C   UNL     1      44.031 -19.600   3.495  1.00  0.00     0.000 A 
HETATM   42  C   UNL     1      44.235 -18.539   4.374  1.00  0.00     0.002 A 
HETATM   43  C   UNL     1      43.722 -17.275   4.074  1.00  0.00     0.029 A 
ENDBRANCH  35  38
ENDBRANCH   9  34
TORSDOF 9
ENDMDL
MODEL 3
REMARK VINA RESULT:      -9.0      1.518      2.068
REMARK  9 active torsions:
REMARK  status: ('A' for Active; 'I' for Inactive)
REMARK    1  A    between atoms: C_4  and  S_5 
REMARK    2  A    between atoms: S_5  and  C_6 
REMARK    3  A    between atoms: C_6  and  C_7 
REMARK       I    between atoms: C_7  and  N_8 
REMARK    4  A    between atoms: N_8  and  C_9 
REMARK    5  A    between atoms: C_10  and  O_11 
REMARK    6  A    between atoms: C_16  and  O_17 
REMARK    7  A    between atoms: C_24  and  C_25 
REMARK    8  A    between atoms: C_31  and  C_32 
REMARK       I    between atoms: C_32  and  N_33 
REMARK    9  A    between atoms: N_33  and  C_34 
ROOT
HETATM    1  C   UNL     1      40.437 -15.419   6.921  1.00  0.00     0.069 C 
HETATM    2  C   UNL     1      40.962 -14.130   6.343  1.00  0.00     0.019 C 
HETATM    3  N   UNL     1      40.129 -13.026   6.461  1.00  0.00    -0.353 N 
HETATM    4  C   UNL     1      40.279 -11.859   5.731  1.00  0.00     0.087 C 
HETATM    5  C   UNL     1      41.446 -11.634   5.091  1.00  0.00     0.055 C 
HETATM    6  C   UNL     1      41.670 -10.446   4.169  1.00  0.00     0.019 C 
HETATM    7  N   UNL     1      41.855  -9.462   3.404  1.00  0.00    -0.096 N 
HETATM    8  C   UNL     1      42.604 -12.619   5.220  1.00  0.00     0.104 C 
HETATM    9  C   UNL     1      42.162 -13.992   5.727  1.00  0.00     0.046 C 
HETATM   10  H   UNL     1      39.210 -13.165   6.872  1.00  0.00     0.166 HD
ENDROOT
BRANCH   4  11
HETATM   11  S   UNL     1      38.989 -10.691   5.679  1.00  0.00    -0.102 SA
BRANCH  11  12
HETATM   12  C   UNL     1      39.777  -9.266   6.517  1.00  0.00     0.184 C 
BRANCH  12  13
HETATM   13  C   UNL     1      39.772  -9.601   7.998  1.00  0.00     0.231 C 
HETATM   14  N   UNL     1      41.044  -9.793   8.503  1.00  0.00    -0.324 N 
HETATM   15  H   UNL     1      41.751 -10.234   7.924  1.00  0.00     0.169 HD
HETATM   16  O   UNL     1      38.747  -9.565   8.675  1.00  0.00    -0.272 OA
BRANCH  14  17
HETATM   17  C   UNL     1      41.555  -9.158   9.659  1.00  0.00     0.071 A 
HETATM   18  C   UNL     1      42.330  -8.001   9.472  1.00  0.00     0.096 A 
HETATM   19  C   UNL     1      42.714  -7.242  10.576  1.00  0.00     0.065 A 
HETATM   20  C   UNL     1      42.339  -7.645  11.862  1.00  0.00     0.070 A 
HETATM   21 CL   UNL     1      42.804  -6.633  13.187  1.00  0.00    -0.081 Cl
HETATM   22  C   UNL     1      41.591  -8.814  12.065  1.00  0.00     0.092 A 
HETATM   23  C   UNL     1      41.215  -9.571  10.952  1.00  0.00     0.071 A 
BRANCH  18  24
HETATM   24  O   UNL     1      42.607  -7.656   8.168  1.00  0.00    -0.354 OA
HETATM   25  C   UNL     1      42.061  -6.406   7.752  1.00  0.00     0.210 C 
ENDBRANCH  18  24
BRANCH  22  26
HETATM   26  O   UNL     1      41.249  -9.120  13.357  1.00  0.00    -0.354 OA
HETATM   27  C   UNL     1      40.108  -9.948  13.560  1.00  0.00     0.210 C 
ENDBRANCH  22  26
ENDBRANCH  14  17
ENDBRANCH  12  13
ENDBRANCH  11  12
ENDBRANCH   4  11
BRANCH   8  28
HETATM   28  C   UNL     1      43.700 -11.997   6.094  1.00  0.00    -0.044 A 
HETATM   29  C   UNL     1      43.466 -11.672   7.442  1.00  0.00     0.008 A 
HETATM   30  C   UNL     1      44.467 -11.091   8.221  1.00  0.00     0.001 A 
HETATM   31  C   UNL     1      45.711 -10.814   7.661  1.00  0.00     0.000 A 
HETATM   32  C   UNL     1      45.955 -11.116   6.323  1.00  0.00     0.001 A 
HETATM   33  C   UNL     1      44.958 -11.702   5.542  1.00  0.00     0.008 A 
ENDBRANCH   8  28
BRANCH   9  34
HETATM   34  C   UNL     1      42.963 -15.195   5.330  1.00  0.00     0.255 C 
HETATM   35  N   UNL     1      42.456 -15.889   4.257  1.00  0.00    -0.323 N 
HETATM   36  H   UNL     1      41.661 -15.495   3.768  1.00  0.00     0.169 HD
HETATM   37  O   UNL     1      43.941 -15.508   6.003  1.00  0.00    -0.268 OA
BRANCH  35  38
HETATM   38  C   UNL     1      42.898 -17.132   3.755  1.00  0.00     0.035 A 
HETATM   39  C   UNL     1      42.539 -17.645   2.508  1.00  0.00     0.029 A 
HETATM   40  C   UNL     1      43.041 -18.877   2.077  1.00  0.00     0.002 A 
HETATM   41  C   UNL     1      43.912 -19.603   2.884  1.00  0.00     0.000 A 
HETATM   42  C   UNL     1      44.276 -19.100   4.131  1.00  0.00     0.002 A 
HETATM   43  C   UNL     1      43.765 -17.876   4.566  1.00  0.00     0.029 A 
ENDBRANCH  35  38
ENDBRANCH   9  34
TORSDOF 9
ENDMDL
MODEL 4
REMARK VINA RESULT:      -8.8      3.768      5.985
REMARK  9 active torsions:
REMARK  status: ('A' for Active; 'I' for Inactive)
REMARK    1  A    between atoms: C_4  and  S_5 
REMARK    2  A    between atoms: S_5  and  C_6 
REMARK    3  A    between atoms: C_6  and  C_7 
REMARK       I    between atoms: C_7  and  N_8 
REMARK    4  A    between atoms: N_8  and  C_9 
REMARK    5  A    between atoms: C_10  and  O_11 
REMARK    6  A    between atoms: C_16  and  O_17 
REMARK    7  A    between atoms: C_24  and  C_25 
REMARK    8  A    between atoms: C_31  and  C_32 
REMARK       I    between atoms: C_32  and  N_33 
REMARK    9  A    between atoms: N_33  and  C_34 
ROOT
HETATM    1  C   UNL     1      43.844 -11.535   3.299  1.00  0.00     0.069 C 
HETATM    2  C   UNL     1      42.489 -11.601   2.642  1.00  0.00     0.019 C 
HETATM    3  N   UNL     1      41.760 -10.420   2.629  1.00  0.00    -0.353 N 
HETATM    4  C   UNL     1      40.402 -10.349   2.372  1.00  0.00     0.087 C 
HETATM    5  C   UNL     1      39.787 -11.411   1.808  1.00  0.00     0.055 C 
HETATM    6  C   UNL     1      38.284 -11.481   1.596  1.00  0.00     0.019 C 
HETATM    7  N   UNL     1      37.037 -11.540   1.419  1.00  0.00    -0.096 N 
HETATM    8  C   UNL     1      40.587 -12.647   1.406  1.00  0.00     0.104 C 
HETATM    9  C   UNL     1      41.955 -12.716   2.085  1.00  0.00     0.046 C 
HETATM   10  H   UNL     1      42.155  -9.613   3.105  1.00  0.00     0.166 HD
ENDROOT
BRANCH   4  11
HETATM   11  S   UNL     1      39.520  -8.893   2.737  1.00  0.00    -0.102 SA
BRANCH  11  12
HETATM   12  C   UNL     1      38.533  -9.439   4.179  1.00  0.00     0.184 C 
BRANCH  12  13
HETATM   13  C   UNL     1      39.372  -9.116   5.403  1.00  0.00     0.231 C 
HETATM   14  N   UNL     1      39.698 -10.242   6.135  1.00  0.00    -0.324 N 
HETATM   15  H   UNL     1      39.027 -11.000   6.213  1.00  0.00     0.169 HD
HETATM   16  O   UNL     1      39.812  -7.989   5.617  1.00  0.00    -0.272 OA
BRANCH  14  17
HETATM   17  C   UNL     1      41.006 -10.581   6.549  1.00  0.00     0.071 A 
HETATM   18  C   UNL     1      41.517 -11.820   6.127  1.00  0.00     0.096 A 
HETATM   19  C   UNL     1      42.856 -12.130   6.361  1.00  0.00     0.065 A 
HETATM   20  C   UNL     1      43.676 -11.214   7.029  1.00  0.00     0.070 A 
HETATM   21 CL   UNL     1      45.341 -11.637   7.244  1.00  0.00    -0.081 Cl
HETATM   22  C   UNL     1      43.171  -9.987   7.483  1.00  0.00     0.092 A 
HETATM   23  C   UNL     1      41.826  -9.687   7.247  1.00  0.00     0.071 A 
BRANCH  18  24
HETATM   24  O   UNL     1      40.650 -12.634   5.435  1.00  0.00    -0.354 OA
HETATM   25  C   UNL     1      40.168 -13.757   6.170  1.00  0.00     0.210 C 
ENDBRANCH  18  24
BRANCH  22  26
HETATM   26  O   UNL     1      44.053  -9.142   8.106  1.00  0.00    -0.354 OA
HETATM   27  C   UNL     1      43.567  -7.868   8.518  1.00  0.00     0.210 C 
ENDBRANCH  22  26
ENDBRANCH  14  17
ENDBRANCH  12  13
ENDBRANCH  11  12
ENDBRANCH   4  11
BRANCH   8  28
HETATM   28  C   UNL     1      40.688 -12.705  -0.123  1.00  0.00    -0.044 A 
HETATM   29  C   UNL     1      41.238 -11.642  -0.862  1.00  0.00     0.008 A 
HETATM   30  C   UNL     1      41.308 -11.702  -2.254  1.00  0.00     0.001 A 
HETATM   31  C   UNL     1      40.819 -12.817  -2.928  1.00  0.00     0.000 A 
HETATM   32  C   UNL     1      40.258 -13.872  -2.213  1.00  0.00     0.001 A 
HETATM   33  C   UNL     1      40.190 -13.819  -0.819  1.00  0.00     0.008 A 
ENDBRANCH   8  28
BRANCH   9  34
HETATM   34  C   UNL     1      42.572 -14.062   2.319  1.00  0.00     0.255 C 
HETATM   35  N   UNL     1      42.316 -14.598   3.559  1.00  0.00    -0.323 N 
HETATM   36  H   UNL     1      41.671 -14.108   4.166  1.00  0.00     0.169 HD
HETATM   37  O   UNL     1      43.291 -14.547   1.450  1.00  0.00    -0.268 OA
BRANCH  35  38
HETATM   38  C   UNL     1      42.879 -15.765   4.120  1.00  0.00     0.035 A 
HETATM   39  C   UNL     1      42.912 -17.004   3.479  1.00  0.00     0.029 A 
HETATM   40  C   UNL     1      43.509 -18.107   4.097  1.00  0.00     0.002 A 
HETATM   41  C   UNL     1      44.087 -17.979   5.358  1.00  0.00     0.000 A 
HETATM   42  C   UNL     1      44.058 -16.747   6.007  1.00  0.00     0.002 A 
HETATM   43  C   UNL     1      43.451 -15.649   5.394  1.00  0.00     0.029 A 
ENDBRANCH  35  38
ENDBRANCH   9  34
TORSDOF 9
ENDMDL
MODEL 5
REMARK VINA RESULT:      -8.7      1.434      2.665
REMARK  9 active torsions:
REMARK  status: ('A' for Active; 'I' for Inactive)
REMARK    1  A    between atoms: C_4  and  S_5 
REMARK    2  A    between atoms: S_5  and  C_6 
REMARK    3  A    between atoms: C_6  and  C_7 
REMARK       I    between atoms: C_7  and  N_8 
REMARK    4  A    between atoms: N_8  and  C_9 
REMARK    5  A    between atoms: C_10  and  O_11 
REMARK    6  A    between atoms: C_16  and  O_17 
REMARK    7  A    between atoms: C_24  and  C_25 
REMARK    8  A    between atoms: C_31  and  C_32 
REMARK       I    between atoms: C_32  and  N_33 
REMARK    9  A    between atoms: N_33  and  C_34 
ROOT
HETATM    1  C   UNL     1      40.273 -14.944   6.226  1.00  0.00     0.069 C 
HETATM    2  C   UNL     1      40.782 -13.542   6.010  1.00  0.00     0.019 C 
HETATM    3  N   UNL     1      40.060 -12.530   6.628  1.00  0.00    -0.353 N 
HETATM    4  C   UNL     1      40.167 -11.189   6.301  1.00  0.00     0.087 C 
HETATM    5  C   UNL     1      41.224 -10.778   5.568  1.00  0.00     0.055 C 
HETATM    6  C   UNL     1      41.372  -9.354   5.054  1.00  0.00     0.019 C 
HETATM    7  N   UNL     1      41.495  -8.175   4.628  1.00  0.00    -0.096 N 
HETATM    8  C   UNL     1      42.314 -11.763   5.158  1.00  0.00     0.104 C 
HETATM    9  C   UNL     1      41.869 -13.221   5.265  1.00  0.00     0.046 C 
HETATM   10  H   UNL     1      39.216 -12.788   7.132  1.00  0.00     0.166 HD
ENDROOT
BRANCH   4  11
HETATM   11  S   UNL     1      38.972 -10.055   6.864  1.00  0.00    -0.102 SA
BRANCH  11  12
HETATM   12  C   UNL     1      39.019 -10.369   8.668  1.00  0.00     0.184 C 
BRANCH  12  13
HETATM   13  C   UNL     1      39.161  -9.006   9.322  1.00  0.00     0.231 C 
HETATM   14  N   UNL     1      39.082  -9.069  10.701  1.00  0.00    -0.324 N 
HETATM   15  H   UNL     1      38.453  -9.735  11.136  1.00  0.00     0.169 HD
HETATM   16  O   UNL     1      39.449  -7.998   8.682  1.00  0.00    -0.272 OA
BRANCH  14  17
HETATM   17  C   UNL     1      40.022  -8.495  11.587  1.00  0.00     0.071 A 
HETATM   18  C   UNL     1      39.522  -7.849  12.731  1.00  0.00     0.096 A 
HETATM   19  C   UNL     1      40.404  -7.417  13.720  1.00  0.00     0.065 A 
HETATM   20  C   UNL     1      41.779  -7.615  13.560  1.00  0.00     0.070 A 
HETATM   21 CL   UNL     1      42.818  -7.102  14.847  1.00  0.00    -0.081 Cl
HETATM   22  C   UNL     1      42.295  -8.230  12.410  1.00  0.00     0.092 A 
HETATM   23  C   UNL     1      41.402  -8.656  11.422  1.00  0.00     0.071 A 
BRANCH  18  24
HETATM   24  O   UNL     1      38.153  -7.745  12.823  1.00  0.00    -0.354 OA
HETATM   25  C   UNL     1      37.666  -6.422  13.035  1.00  0.00     0.210 C 
ENDBRANCH  18  24
BRANCH  22  26
HETATM   26  O   UNL     1      43.653  -8.403  12.350  1.00  0.00    -0.354 OA
HETATM   27  C   UNL     1      44.189  -9.027  11.187  1.00  0.00     0.210 C 
ENDBRANCH  22  26
ENDBRANCH  14  17
ENDBRANCH  12  13
ENDBRANCH  11  12
ENDBRANCH   4  11
BRANCH   8  28
HETATM   28  C   UNL     1      43.583 -11.476   5.972  1.00  0.00    -0.044 A 
HETATM   29  C   UNL     1      44.856 -11.499   5.375  1.00  0.00     0.008 A 
HETATM   30  C   UNL     1      46.003 -11.253   6.130  1.00  0.00     0.001 A 
HETATM   31  C   UNL     1      45.896 -10.995   7.494  1.00  0.00     0.000 A 
HETATM   32  C   UNL     1      44.643 -10.983   8.103  1.00  0.00     0.001 A 
HETATM   33  C   UNL     1      43.493 -11.224   7.350  1.00  0.00     0.008 A 
ENDBRANCH   8  28
BRANCH   9  34
HETATM   34  C   UNL     1      42.505 -14.234   4.362  1.00  0.00     0.255 C 
HETATM   35  N   UNL     1      42.381 -15.535   4.789  1.00  0.00    -0.323 N 
HETATM   36  H   UNL     1      41.805 -15.717   5.601  1.00  0.00     0.169 HD
HETATM   37  O   UNL     1      43.127 -13.847   3.377  1.00  0.00    -0.268 OA
BRANCH  35  38
HETATM   38  C   UNL     1      42.999 -16.679   4.238  1.00  0.00     0.035 A 
HETATM   39  C   UNL     1      44.016 -17.399   4.866  1.00  0.00     0.029 A 
HETATM   40  C   UNL     1      44.558 -18.536   4.259  1.00  0.00     0.002 A 
HETATM   41  C   UNL     1      44.083 -18.969   3.024  1.00  0.00     0.000 A 
HETATM   42  C   UNL     1      43.069 -18.257   2.388  1.00  0.00     0.002 A 
HETATM   43  C   UNL     1      42.536 -17.114   2.988  1.00  0.00     0.029 A 
ENDBRANCH  35  38
ENDBRANCH   9  34
TORSDOF 9
ENDMDL
MODEL 6
REMARK VINA RESULT:      -8.7      3.843      5.340
REMARK  9 active torsions:
REMARK  status: ('A' for Active; 'I' for Inactive)
REMARK    1  A    between atoms: C_4  and  S_5 
REMARK    2  A    between atoms: S_5  and  C_6 
REMARK    3  A    between atoms: C_6  and  C_7 
REMARK       I    between atoms: C_7  and  N_8 
REMARK    4  A    between atoms: N_8  and  C_9 
REMARK    5  A    between atoms: C_10  and  O_11 
REMARK    6  A    between atoms: C_16  and  O_17 
REMARK    7  A    between atoms: C_24  and  C_25 
REMARK    8  A    between atoms: C_31  and  C_32 
REMARK       I    between atoms: C_32  and  N_33 
REMARK    9  A    between atoms: N_33  and  C_34 
ROOT
HETATM    1  C   UNL     1      38.495 -10.942   3.136  1.00  0.00     0.069 C 
HETATM    2  C   UNL     1      39.936 -11.360   3.278  1.00  0.00     0.019 C 
HETATM    3  N   UNL     1      40.514 -11.141   4.520  1.00  0.00    -0.353 N 
HETATM    4  C   UNL     1      41.879 -11.155   4.755  1.00  0.00     0.087 C 
HETATM    5  C   UNL     1      42.695 -11.699   3.827  1.00  0.00     0.055 C 
HETATM    6  C   UNL     1      44.211 -11.657   3.932  1.00  0.00     0.019 C 
HETATM    7  N   UNL     1      45.468 -11.621   4.018  1.00  0.00    -0.096 N 
HETATM    8  C   UNL     1      42.121 -12.342   2.569  1.00  0.00     0.104 C 
HETATM    9  C   UNL     1      40.679 -11.917   2.290  1.00  0.00     0.046 C 
HETATM   10  H   UNL     1      39.957 -10.668   5.227  1.00  0.00     0.166 HD
ENDROOT
BRANCH   4  11
HETATM   11  S   UNL     1      42.515 -10.513   6.243  1.00  0.00    -0.102 SA
BRANCH  11  12
HETATM   12  C   UNL     1      41.598  -8.933   6.360  1.00  0.00     0.184 C 
BRANCH  12  13
HETATM   13  C   UNL     1      40.898  -8.957   7.707  1.00  0.00     0.231 C 
HETATM   14  N   UNL     1      41.550  -9.756   8.629  1.00  0.00    -0.324 N 
HETATM   15  H   UNL     1      42.003 -10.610   8.319  1.00  0.00     0.169 HD
HETATM   16  O   UNL     1      39.941  -8.231   7.963  1.00  0.00    -0.272 OA
BRANCH  14  17
HETATM   17  C   UNL     1      41.911  -9.348   9.934  1.00  0.00     0.071 A 
HETATM   18  C   UNL     1      43.279  -9.164  10.198  1.00  0.00     0.096 A 
HETATM   19  C   UNL     1      43.678  -8.602  11.409  1.00  0.00     0.065 A 
HETATM   20  C   UNL     1      42.716  -8.240  12.358  1.00  0.00     0.070 A 
HETATM   21 CL   UNL     1      43.272  -7.500  13.821  1.00  0.00    -0.081 Cl
HETATM   22  C   UNL     1      41.349  -8.447  12.120  1.00  0.00     0.092 A 
HETATM   23  C   UNL     1      40.960  -9.016  10.904  1.00  0.00     0.071 A 
BRANCH  18  24
HETATM   24  O   UNL     1      44.147  -9.502   9.185  1.00  0.00    -0.354 OA
HETATM   25  C   UNL     1      44.837  -8.401   8.597  1.00  0.00     0.210 C 
ENDBRANCH  18  24
BRANCH  22  26
HETATM   26  O   UNL     1      40.477  -8.041  13.097  1.00  0.00    -0.354 OA
HETATM   27  C   UNL     1      39.104  -7.905  12.742  1.00  0.00     0.210 C 
ENDBRANCH  22  26
ENDBRANCH  14  17
ENDBRANCH  12  13
ENDBRANCH  11  12
ENDBRANCH   4  11
BRANCH   8  28
HETATM   28  C   UNL     1      42.274 -13.865   2.668  1.00  0.00    -0.044 A 
HETATM   29  C   UNL     1      43.178 -14.565   1.849  1.00  0.00     0.008 A 
HETATM   30  C   UNL     1      43.295 -15.953   1.938  1.00  0.00     0.001 A 
HETATM   31  C   UNL     1      42.501 -16.662   2.835  1.00  0.00     0.000 A 
HETATM   32  C   UNL     1      41.590 -15.985   3.643  1.00  0.00     0.001 A 
HETATM   33  C   UNL     1      41.473 -14.597   3.561  1.00  0.00     0.008 A 
ENDBRANCH   8  28
BRANCH   9  34
HETATM   34  C   UNL     1      40.194 -11.915   0.871  1.00  0.00     0.255 C 
HETATM   35  N   UNL     1      39.390 -12.980   0.543  1.00  0.00    -0.323 N 
HETATM   36  H   UNL     1      39.113 -13.614   1.282  1.00  0.00     0.169 HD
HETATM   37  O   UNL     1      40.584 -11.034   0.110  1.00  0.00    -0.268 OA
BRANCH  35  38
HETATM   38  C   UNL     1      38.912 -13.329  -0.739  1.00  0.00     0.035 A 
HETATM   39  C   UNL     1      37.938 -12.610  -1.434  1.00  0.00     0.029 A 
HETATM   40  C   UNL     1      37.536 -13.012  -2.711  1.00  0.00     0.002 A 
HETATM   41  C   UNL     1      38.110 -14.130  -3.310  1.00  0.00     0.000 A 
HETATM   42  C   UNL     1      39.083 -14.855  -2.625  1.00  0.00     0.002 A 
HETATM   43  C   UNL     1      39.475 -14.461  -1.344  1.00  0.00     0.029 A 
ENDBRANCH  35  38
ENDBRANCH   9  34
TORSDOF 9
ENDMDL
MODEL 7
REMARK VINA RESULT:      -8.5      3.470      5.510
REMARK  9 active torsions:
REMARK  status: ('A' for Active; 'I' for Inactive)
REMARK    1  A    between atoms: C_4  and  S_5 
REMARK    2  A    between atoms: S_5  and  C_6 
REMARK    3  A    between atoms: C_6  and  C_7 
REMARK       I    between atoms: C_7  and  N_8 
REMARK    4  A    between atoms: N_8  and  C_9 
REMARK    5  A    between atoms: C_10  and  O_11 
REMARK    6  A    between atoms: C_16  and  O_17 
REMARK    7  A    between atoms: C_24  and  C_25 
REMARK    8  A    between atoms: C_31  and  C_32 
REMARK       I    between atoms: C_32  and  N_33 
REMARK    9  A    between atoms: N_33  and  C_34 
ROOT
HETATM    1  C   UNL     1      43.737 -11.606   3.843  1.00  0.00     0.069 C 
HETATM    2  C   UNL     1      42.424 -11.604   3.104  1.00  0.00     0.019 C 
HETATM    3  N   UNL     1      41.599 -10.511   3.332  1.00  0.00    -0.353 N 
HETATM    4  C   UNL     1      40.253 -10.474   3.012  1.00  0.00     0.087 C 
HETATM    5  C   UNL     1      39.756 -11.405   2.170  1.00  0.00     0.055 C 
HETATM    6  C   UNL     1      38.274 -11.526   1.850  1.00  0.00     0.019 C 
HETATM    7  N   UNL     1      37.046 -11.627   1.585  1.00  0.00    -0.096 N 
HETATM    8  C   UNL     1      40.674 -12.443   1.532  1.00  0.00     0.104 C 
HETATM    9  C   UNL     1      42.011 -12.581   2.260  1.00  0.00     0.046 C 
HETATM   10  H   UNL     1      41.902  -9.820   4.013  1.00  0.00     0.166 HD
ENDROOT
BRANCH   4  11
HETATM   11  S   UNL     1      39.235  -9.220   3.662  1.00  0.00    -0.102 SA
BRANCH  11  12
HETATM   12  C   UNL     1      39.330  -9.589   5.453  1.00  0.00     0.184 C 
BRANCH  12  13
HETATM   13  C   UNL     1      40.410  -8.678   6.008  1.00  0.00     0.231 C 
HETATM   14  N   UNL     1      40.594  -8.840   7.369  1.00  0.00    -0.324 N 
HETATM   15  H   UNL     1      39.794  -9.035   7.962  1.00  0.00     0.169 HD
HETATM   16  O   UNL     1      41.119  -7.984   5.284  1.00  0.00    -0.272 OA
BRANCH  14  17
HETATM   17  C   UNL     1      41.844  -9.059   7.991  1.00  0.00     0.071 A 
HETATM   18  C   UNL     1      42.150  -8.280   9.120  1.00  0.00     0.096 A 
HETATM   19  C   UNL     1      43.288  -8.571   9.870  1.00  0.00     0.065 A 
HETATM   20  C   UNL     1      44.124  -9.625   9.487  1.00  0.00     0.070 A 
HETATM   21 CL   UNL     1      45.494  -9.968  10.489  1.00  0.00    -0.081 Cl
HETATM   22  C   UNL     1      43.847 -10.391   8.345  1.00  0.00     0.092 A 
HETATM   23  C   UNL     1      42.706 -10.089   7.596  1.00  0.00     0.071 A 
BRANCH  18  24
HETATM   24  O   UNL     1      41.243  -7.300   9.448  1.00  0.00    -0.354 OA
HETATM   25  C   UNL     1      40.690  -7.411  10.758  1.00  0.00     0.210 C 
ENDBRANCH  18  24
BRANCH  22  26
HETATM   26  O   UNL     1      44.709 -11.418   8.058  1.00  0.00    -0.354 OA
HETATM   27  C   UNL     1      45.686 -11.197   7.046  1.00  0.00     0.210 C 
ENDBRANCH  22  26
ENDBRANCH  14  17
ENDBRANCH  12  13
ENDBRANCH  11  12
ENDBRANCH   4  11
BRANCH   8  28
HETATM   28  C   UNL     1      40.848 -12.115   0.044  1.00  0.00    -0.044 A 
HETATM   29  C   UNL     1      40.571 -13.068  -0.953  1.00  0.00     0.008 A 
HETATM   30  C   UNL     1      40.750 -12.761  -2.303  1.00  0.00     0.001 A 
HETATM   31  C   UNL     1      41.220 -11.505  -2.674  1.00  0.00     0.000 A 
HETATM   32  C   UNL     1      41.512 -10.555  -1.699  1.00  0.00     0.001 A 
HETATM   33  C   UNL     1      41.331 -10.856  -0.348  1.00  0.00     0.008 A 
ENDBRANCH   8  28
BRANCH   9  34
HETATM   34  C   UNL     1      42.728 -13.896   2.200  1.00  0.00     0.255 C 
HETATM   35  N   UNL     1      42.206 -14.868   3.020  1.00  0.00    -0.323 N 
HETATM   36  H   UNL     1      41.346 -14.663   3.513  1.00  0.00     0.169 HD
HETATM   37  O   UNL     1      43.734 -13.994   1.502  1.00  0.00    -0.268 OA
BRANCH  35  38
HETATM   38  C   UNL     1      42.750 -16.142   3.291  1.00  0.00     0.035 A 
HETATM   39  C   UNL     1      42.675 -17.228   2.417  1.00  0.00     0.029 A 
HETATM   40  C   UNL     1      43.261 -18.452   2.755  1.00  0.00     0.002 A 
HETATM   41  C   UNL     1      43.934 -18.599   3.964  1.00  0.00     0.000 A 
HETATM   42  C   UNL     1      44.014 -17.523   4.844  1.00  0.00     0.002 A 
HETATM   43  C   UNL     1      43.418 -16.304   4.512  1.00  0.00     0.029 A 
ENDBRANCH  35  38
ENDBRANCH   9  34
TORSDOF 9
ENDMDL
MODEL 8
REMARK VINA RESULT:      -8.5      2.415      3.754
REMARK  9 active torsions:
REMARK  status: ('A' for Active; 'I' for Inactive)
REMARK    1  A    between atoms: C_4  and  S_5 
REMARK    2  A    between atoms: S_5  and  C_6 
REMARK    3  A    between atoms: C_6  and  C_7 
REMARK       I    between atoms: C_7  and  N_8 
REMARK    4  A    between atoms: N_8  and  C_9 
REMARK    5  A    between atoms: C_10  and  O_11 
REMARK    6  A    between atoms: C_16  and  O_17 
REMARK    7  A    between atoms: C_24  and  C_25 
REMARK    8  A    between atoms: C_31  and  C_32 
REMARK       I    between atoms: C_32  and  N_33 
REMARK    9  A    between atoms: N_33  and  C_34 
ROOT
HETATM    1  C   UNL     1      44.375 -13.245   6.704  1.00  0.00     0.069 C 
HETATM    2  C   UNL     1      43.100 -12.618   6.203  1.00  0.00     0.019 C 
HETATM    3  N   UNL     1      42.891 -11.293   6.560  1.00  0.00    -0.353 N 
HETATM    4  C   UNL     1      41.668 -10.650   6.478  1.00  0.00     0.087 C 
HETATM    5  C   UNL     1      40.684 -11.209   5.741  1.00  0.00     0.055 C 
HETATM    6  C   UNL     1      39.272 -10.649   5.684  1.00  0.00     0.019 C 
HETATM    7  N   UNL     1      38.102 -10.185   5.636  1.00  0.00    -0.096 N 
HETATM    8  C   UNL     1      40.934 -12.498   4.963  1.00  0.00     0.104 C 
HETATM    9  C   UNL     1      42.169 -13.256   5.451  1.00  0.00     0.046 C 
HETATM   10  H   UNL     1      43.572 -10.853   7.173  1.00  0.00     0.166 HD
ENDROOT
BRANCH   4  11
HETATM   11  S   UNL     1      41.428  -9.125   7.283  1.00  0.00    -0.102 SA
BRANCH  11  12
HETATM   12  C   UNL     1      43.119  -8.787   7.898  1.00  0.00     0.184 C 
BRANCH  12  13
HETATM   13  C   UNL     1      42.999  -7.569   8.796  1.00  0.00     0.231 C 
HETATM   14  N   UNL     1      41.919  -7.648   9.656  1.00  0.00    -0.324 N 
HETATM   15  H   UNL     1      41.059  -8.086   9.341  1.00  0.00     0.169 HD
HETATM   16  O   UNL     1      43.856  -6.690   8.827  1.00  0.00    -0.272 OA
BRANCH  14  17
HETATM   17  C   UNL     1      41.987  -7.443  11.053  1.00  0.00     0.071 A 
HETATM   18  C   UNL     1      42.304  -8.552  11.855  1.00  0.00     0.096 A 
HETATM   19  C   UNL     1      42.550  -8.373  13.214  1.00  0.00     0.065 A 
HETATM   20  C   UNL     1      42.466  -7.094  13.774  1.00  0.00     0.070 A 
HETATM   21 CL   UNL     1      42.833  -6.929  15.458  1.00  0.00    -0.081 Cl
HETATM   22  C   UNL     1      42.120  -5.982  12.992  1.00  0.00     0.092 A 
HETATM   23  C   UNL     1      41.870  -6.173  11.630  1.00  0.00     0.071 A 
BRANCH  18  24
HETATM   24  O   UNL     1      42.414  -9.761  11.207  1.00  0.00    -0.354 OA
HETATM   25  C   UNL     1      43.479 -10.591  11.666  1.00  0.00     0.210 C 
ENDBRANCH  18  24
BRANCH  22  26
HETATM   26  O   UNL     1      42.084  -4.764  13.620  1.00  0.00    -0.354 OA
HETATM   27  C   UNL     1      41.210  -3.773  13.089  1.00  0.00     0.210 C 
ENDBRANCH  22  26
ENDBRANCH  14  17
ENDBRANCH  12  13
ENDBRANCH  11  12
ENDBRANCH   4  11
BRANCH   8  28
HETATM   28  C   UNL     1      40.997 -12.177   3.465  1.00  0.00    -0.044 A 
HETATM   29  C   UNL     1      41.809 -11.139   2.972  1.00  0.00     0.008 A 
HETATM   30  C   UNL     1      41.844 -10.847   1.608  1.00  0.00     0.001 A 
HETATM   31  C   UNL     1      41.060 -11.577   0.720  1.00  0.00     0.000 A 
HETATM   32  C   UNL     1      40.240 -12.598   1.193  1.00  0.00     0.001 A 
HETATM   33  C   UNL     1      40.205 -12.897   2.556  1.00  0.00     0.008 A 
ENDBRANCH   8  28
BRANCH   9  34
HETATM   34  C   UNL     1      42.211 -14.744   5.279  1.00  0.00     0.255 C 
HETATM   35  N   UNL     1      43.084 -15.181   4.311  1.00  0.00    -0.323 N 
HETATM   36  H   UNL     1      43.686 -14.498   3.868  1.00  0.00     0.169 HD
HETATM   37  O   UNL     1      41.447 -15.442   5.939  1.00  0.00    -0.268 OA
BRANCH  35  38
HETATM   38  C   UNL     1      43.231 -16.497   3.821  1.00  0.00     0.035 A 
HETATM   39  C   UNL     1      42.686 -16.951   2.619  1.00  0.00     0.029 A 
HETATM   40  C   UNL     1      42.897 -18.267   2.196  1.00  0.00     0.002 A 
HETATM   41  C   UNL     1      43.663 -19.138   2.966  1.00  0.00     0.000 A 
HETATM   42  C   UNL     1      44.211 -18.696   4.168  1.00  0.00     0.002 A 
HETATM   43  C   UNL     1      43.989 -17.385   4.596  1.00  0.00     0.029 A 
ENDBRANCH  35  38
ENDBRANCH   9  34
TORSDOF 9
ENDMDL
MODEL 9
REMARK VINA RESULT:      -8.4      3.303      4.926
REMARK  9 active torsions:
REMARK  status: ('A' for Active; 'I' for Inactive)
REMARK    1  A    between atoms: C_4  and  S_5 
REMARK    2  A    between atoms: S_5  and  C_6 
REMARK    3  A    between atoms: C_6  and  C_7 
REMARK       I    between atoms: C_7  and  N_8 
REMARK    4  A    between atoms: N_8  and  C_9 
REMARK    5  A    between atoms: C_10  and  O_11 
REMARK    6  A    between atoms: C_16  and  O_17 
REMARK    7  A    between atoms: C_24  and  C_25 
REMARK    8  A    between atoms: C_31  and  C_32 
REMARK       I    between atoms: C_32  and  N_33 
REMARK    9  A    between atoms: N_33  and  C_34 
ROOT
HETATM    1  C   UNL     1      44.141 -11.827   3.539  1.00  0.00     0.069 C 
HETATM    2  C   UNL     1      42.768 -11.836   2.919  1.00  0.00     0.019 C 
HETATM    3  N   UNL     1      42.012 -10.685   3.097  1.00  0.00    -0.353 N 
HETATM    4  C   UNL     1      40.645 -10.614   2.892  1.00  0.00     0.087 C 
HETATM    5  C   UNL     1      40.036 -11.601   2.199  1.00  0.00     0.055 C 
HETATM    6  C   UNL     1      38.529 -11.680   2.022  1.00  0.00     0.019 C 
HETATM    7  N   UNL     1      37.279 -11.747   1.875  1.00  0.00    -0.096 N 
HETATM    8  C   UNL     1      40.850 -12.744   1.600  1.00  0.00     0.104 C 
HETATM    9  C   UNL     1      42.241 -12.873   2.222  1.00  0.00     0.046 C 
HETATM   10  H   UNL     1      42.403  -9.944   3.673  1.00  0.00     0.166 HD
ENDROOT
BRANCH   4  11
HETATM   11  S   UNL     1      39.742  -9.250   3.488  1.00  0.00    -0.102 SA
BRANCH  11  12
HETATM   12  C   UNL     1      39.166  -9.895   5.102  1.00  0.00     0.184 C 
BRANCH  12  13
HETATM   13  C   UNL     1      40.393 -10.484   5.776  1.00  0.00     0.231 C 
HETATM   14  N   UNL     1      41.188  -9.519   6.367  1.00  0.00    -0.324 N 
HETATM   15  H   UNL     1      41.285  -8.611   5.925  1.00  0.00     0.169 HD
HETATM   16  O   UNL     1      40.563 -11.695   5.885  1.00  0.00    -0.272 OA
BRANCH  14  17
HETATM   17  C   UNL     1      41.651  -9.567   7.702  1.00  0.00     0.071 A 
HETATM   18  C   UNL     1      42.984  -9.959   7.910  1.00  0.00     0.096 A 
HETATM   19  C   UNL     1      43.542  -9.860   9.183  1.00  0.00     0.065 A 
HETATM   20  C   UNL     1      42.767  -9.386  10.247  1.00  0.00     0.070 A 
HETATM   21 CL   UNL     1      43.532  -9.238  11.793  1.00  0.00    -0.081 Cl
HETATM   22  C   UNL     1      41.426  -9.020  10.060  1.00  0.00     0.092 A 
HETATM   23  C   UNL     1      40.875  -9.127   8.780  1.00  0.00     0.071 A 
BRANCH  18  24
HETATM   24  O   UNL     1      43.682 -10.363   6.795  1.00  0.00    -0.354 OA
HETATM   25  C   UNL     1      44.967 -10.922   7.063  1.00  0.00     0.210 C 
ENDBRANCH  18  24
BRANCH  22  26
HETATM   26  O   UNL     1      40.750  -8.545  11.154  1.00  0.00    -0.354 OA
HETATM   27  C   UNL     1      39.869  -9.440  11.827  1.00  0.00     0.210 C 
ENDBRANCH  22  26
ENDBRANCH  14  17
ENDBRANCH  12  13
ENDBRANCH  11  12
ENDBRANCH   4  11
BRANCH   8  28
HETATM   28  C   UNL     1      40.903 -12.580   0.076  1.00  0.00    -0.044 A 
HETATM   29  C   UNL     1      41.342 -11.382  -0.516  1.00  0.00     0.008 A 
HETATM   30  C   UNL     1      41.370 -11.241  -1.904  1.00  0.00     0.001 A 
HETATM   31  C   UNL     1      40.946 -12.287  -2.719  1.00  0.00     0.000 A 
HETATM   32  C   UNL     1      40.495 -13.474  -2.148  1.00  0.00     0.001 A 
HETATM   33  C   UNL     1      40.470 -13.622  -0.760  1.00  0.00     0.008 A 
ENDBRANCH   8  28
BRANCH   9  34
HETATM   34  C   UNL     1      42.896 -14.221   2.242  1.00  0.00     0.255 C 
HETATM   35  N   UNL     1      42.509 -15.027   3.287  1.00  0.00    -0.323 N 
HETATM   36  H   UNL     1      41.763 -14.701   3.889  1.00  0.00     0.169 HD
HETATM   37  O   UNL     1      43.749 -14.481   1.399  1.00  0.00    -0.268 OA
BRANCH  35  38
HETATM   38  C   UNL     1      43.057 -16.275   3.653  1.00  0.00     0.035 A 
HETATM   39  C   UNL     1      43.642 -16.541   4.892  1.00  0.00     0.029 A 
HETATM   40  C   UNL     1      44.142 -17.814   5.182  1.00  0.00     0.002 A 
HETATM   41  C   UNL     1      44.053 -18.836   4.241  1.00  0.00     0.000 A 
HETATM   42  C   UNL     1      43.471 -18.582   3.001  1.00  0.00     0.002 A 
HETATM   43  C   UNL     1      42.983 -17.307   2.707  1.00  0.00     0.029 A 
ENDBRANCH  35  38
ENDBRANCH   9  34
TORSDOF 9
ENDMDL
MODEL 10
REMARK VINA RESULT:      -8.3      3.182      4.496
REMARK  9 active torsions:
REMARK  status: ('A' for Active; 'I' for Inactive)
REMARK    1  A    between atoms: C_4  and  S_5 
REMARK    2  A    between atoms: S_5  and  C_6 
REMARK    3  A    between atoms: C_6  and  C_7 
REMARK       I    between atoms: C_7  and  N_8 
REMARK    4  A    between atoms: N_8  and  C_9 
REMARK    5  A    between atoms: C_10  and  O_11 
REMARK    6  A    between atoms: C_16  and  O_17 
REMARK    7  A    between atoms: C_24  and  C_25 
REMARK    8  A    between atoms: C_31  and  C_32 
REMARK       I    between atoms: C_32  and  N_33 
REMARK    9  A    between atoms: N_33  and  C_34 
ROOT
HETATM    1  C   UNL     1      38.813 -11.505   3.167  1.00  0.00     0.069 C 
HETATM    2  C   UNL     1      40.133 -11.766   3.846  1.00  0.00     0.019 C 
HETATM    3  N   UNL     1      40.407 -10.989   4.963  1.00  0.00    -0.353 N 
HETATM    4  C   UNL     1      41.665 -10.849   5.523  1.00  0.00     0.087 C 
HETATM    5  C   UNL     1      42.634 -11.725   5.180  1.00  0.00     0.055 C 
HETATM    6  C   UNL     1      44.075 -11.589   5.642  1.00  0.00     0.019 C 
HETATM    7  N   UNL     1      45.271 -11.476   6.024  1.00  0.00    -0.096 N 
HETATM    8  C   UNL     1      42.330 -12.887   4.239  1.00  0.00     0.104 C 
HETATM    9  C   UNL     1      41.044 -12.683   3.438  1.00  0.00     0.046 C 
HETATM   10  H   UNL     1      39.737 -10.267   5.216  1.00  0.00     0.166 HD
ENDROOT
BRANCH   4  11
HETATM   11  S   UNL     1      41.971  -9.582   6.677  1.00  0.00    -0.102 SA
BRANCH  11  12
HETATM   12  C   UNL     1      40.264  -9.040   7.058  1.00  0.00     0.184 C 
BRANCH  12  13
HETATM   13  C   UNL     1      40.021  -9.420   8.508  1.00  0.00     0.231 C 
HETATM   14  N   UNL     1      41.188  -9.750   9.172  1.00  0.00    -0.324 N 
HETATM   15  H   UNL     1      41.925 -10.240   8.676  1.00  0.00     0.169 HD
HETATM   16  O   UNL     1      38.920  -9.305   9.040  1.00  0.00    -0.272 OA
BRANCH  14  17
HETATM   17  C   UNL     1      41.588  -9.205  10.414  1.00  0.00     0.071 A 
HETATM   18  C   UNL     1      42.865  -9.547  10.888  1.00  0.00     0.096 A 
HETATM   19  C   UNL     1      43.377  -8.907  12.016  1.00  0.00     0.065 A 
HETATM   20  C   UNL     1      42.609  -7.941  12.676  1.00  0.00     0.070 A 
HETATM   21 CL   UNL     1      43.319  -7.147  14.040  1.00  0.00    -0.081 Cl
HETATM   22  C   UNL     1      41.320  -7.612  12.231  1.00  0.00     0.092 A 
HETATM   23  C   UNL     1      40.815  -8.263  11.102  1.00  0.00     0.071 A 
BRANCH  18  24
HETATM   24  O   UNL     1      43.566 -10.469  10.145  1.00  0.00    -0.354 OA
HETATM   25  C   UNL     1      44.958 -10.191  10.004  1.00  0.00     0.210 C 
ENDBRANCH  18  24
BRANCH  22  26
HETATM   26  O   UNL     1      40.650  -6.638  12.926  1.00  0.00    -0.354 OA
HETATM   27  C   UNL     1      39.592  -7.050  13.786  1.00  0.00     0.210 C 
ENDBRANCH  22  26
ENDBRANCH  14  17
ENDBRANCH  12  13
ENDBRANCH  11  12
ENDBRANCH   4  11
BRANCH   8  28
HETATM   28  C   UNL     1      42.320 -14.195   5.041  1.00  0.00    -0.044 A 
HETATM   29  C   UNL     1      41.486 -14.360   6.161  1.00  0.00     0.008 A 
HETATM   30  C   UNL     1      41.499 -15.549   6.892  1.00  0.00     0.001 A 
HETATM   31  C   UNL     1      42.354 -16.583   6.522  1.00  0.00     0.000 A 
HETATM   32  C   UNL     1      43.197 -16.430   5.424  1.00  0.00     0.001 A 
HETATM   33  C   UNL     1      43.184 -15.244   4.687  1.00  0.00     0.008 A 
ENDBRANCH   8  28
BRANCH   9  34
HETATM   34  C   UNL     1      40.923 -13.340   2.096  1.00  0.00     0.255 C 
HETATM   35  N   UNL     1      40.906 -12.466   1.034  1.00  0.00    -0.323 N 
HETATM   36  H   UNL     1      41.070 -11.485   1.222  1.00  0.00     0.169 HD
HETATM   37  O   UNL     1      40.785 -14.558   2.039  1.00  0.00    -0.268 OA
BRANCH  35  38
HETATM   38  C   UNL     1      40.652 -12.771  -0.321  1.00  0.00     0.035 A 
HETATM   39  C   UNL     1      41.149 -12.033  -1.396  1.00  0.00     0.029 A 
HETATM   40  C   UNL     1      40.868 -12.416  -2.711  1.00  0.00     0.002 A 
HETATM   41  C   UNL     1      40.095 -13.546  -2.963  1.00  0.00     0.000 A 
HETATM   42  C   UNL     1      39.593 -14.290  -1.897  1.00  0.00     0.002 A 
HETATM   43  C   UNL     1      39.864 -13.899  -0.584  1.00  0.00     0.029 A 
ENDBRANCH  35  38
ENDBRANCH   9  34
TORSDOF 9
ENDMDL
