MODEL 1
REMARK VINA RESULT:      -9.1      0.000      0.000
REMARK  3 active torsions:
REMARK  status: ('A' for Active; 'I' for Inactive)
REMARK    1  A    between atoms: C_2  and  C_3 
REMARK    2  A    between atoms: C_6  and  N_7 
REMARK    3  A    between atoms: C_14  and  C_15 
REMARK       I    between atoms: C_15  and  N_16 
ROOT
HETATM    1  N   UNL     1      40.879 -13.312   0.762  1.00  0.00    -0.252 N 
HETATM    2  C   UNL     1      41.788 -12.744   1.632  1.00  0.00     0.238 C 
HETATM    3  O   UNL     1      42.142 -11.582   1.766  1.00  0.00    -0.272 OA
HETATM    4  C   UNL     1      42.224 -13.778   2.629  1.00  0.00     0.135 C 
HETATM    5  C   UNL     1      41.827 -15.067   1.958  1.00  0.00     0.130 C 
HETATM    6  C   UNL     1      40.705 -14.649   1.060  1.00  0.00     0.238 C 
HETATM    7  O   UNL     1      39.844 -15.441   0.715  1.00  0.00    -0.272 OA
HETATM    8  C   UNL     1      41.462 -13.707   3.946  1.00  0.00     0.298 C 
HETATM    9  N   UNL     1      40.879 -15.127   4.141  1.00  0.00    -0.028 N 
HETATM   10  H   UNL     1      39.853 -15.011   3.980  1.00  0.00     0.287 HD
HETATM   11  C   UNL     1      41.383 -16.046   3.039  1.00  0.00     0.242 C 
HETATM   12  C   UNL     1      41.033 -15.581   5.489  1.00  0.00     0.203 C 
HETATM   13  C   UNL     1      41.939 -16.511   5.805  1.00  0.00     0.037 C 
HETATM   14  C   UNL     1      42.758 -17.190   4.810  1.00  0.00    -0.026 A 
HETATM   15  C   UNL     1      42.492 -16.989   3.449  1.00  0.00    -0.016 A 
HETATM   16  C   UNL     1      43.751 -18.093   5.208  1.00  0.00     0.012 A 
HETATM   17  C   UNL     1      44.470 -18.812   4.255  1.00  0.00     0.001 A 
HETATM   18  C   UNL     1      44.188 -18.648   2.903  1.00  0.00     0.001 A 
HETATM   19  C   UNL     1      43.198 -17.751   2.501  1.00  0.00     0.010 A 
ENDROOT
BRANCH   1  20
HETATM   20  C   UNL     1      40.149 -12.596  -0.243  1.00  0.00     0.045 A 
HETATM   21  C   UNL     1      38.866 -12.077   0.005  1.00  0.00     0.031 A 
HETATM   22  C   UNL     1      38.162 -11.342  -0.965  1.00  0.00     0.017 A 
HETATM   23  C   UNL     1      38.729 -11.110  -2.217  1.00  0.00     0.009 A 
HETATM   24  C   UNL     1      39.992 -11.633  -2.491  1.00  0.00     0.017 A 
HETATM   25  C   UNL     1      40.693 -12.355  -1.515  1.00  0.00     0.031 A 
BRANCH  23  26
HETATM   26  C   UNL     1      38.039 -10.331  -3.282  1.00  0.00     0.155 C 
HETATM   27  C   UNL     1      36.535 -10.274  -3.292  1.00  0.00     0.096 C 
HETATM   28  O   UNL     1      38.712  -9.750  -4.130  1.00  0.00    -0.293 OA
ENDBRANCH  23  26
ENDBRANCH   1  20
BRANCH   8  29
HETATM   29  C   UNL     1      40.286 -12.713   4.013  1.00  0.00     0.248 C 
HETATM   30  N   UNL     1      40.511 -11.458   4.468  1.00  0.00    -0.368 N 
HETATM   31  H   UNL     1      41.417 -10.998   4.379  1.00  0.00     0.159 HD
HETATM   32  H   UNL     1      39.722 -10.814   4.437  1.00  0.00     0.159 HD
HETATM   33  O   UNL     1      39.168 -13.096   3.668  1.00  0.00    -0.271 OA
ENDBRANCH   8  29
TORSDOF 3
ENDMDL
MODEL 2
REMARK VINA RESULT:      -9.1      2.806      7.791
REMARK  3 active torsions:
REMARK  status: ('A' for Active; 'I' for Inactive)
REMARK    1  A    between atoms: C_2  and  C_3 
REMARK    2  A    between atoms: C_6  and  N_7 
REMARK    3  A    between atoms: C_14  and  C_15 
REMARK       I    between atoms: C_15  and  N_16 
ROOT
HETATM    1  N   UNL     1      42.248 -14.944   3.614  1.00  0.00    -0.252 N 
HETATM    2  C   UNL     1      42.734 -13.887   2.870  1.00  0.00     0.238 C 
HETATM    3  O   UNL     1      43.578 -13.858   1.987  1.00  0.00    -0.272 OA
HETATM    4  C   UNL     1      41.913 -12.665   3.160  1.00  0.00     0.135 C 
HETATM    5  C   UNL     1      41.233 -13.028   4.454  1.00  0.00     0.130 C 
HETATM    6  C   UNL     1      41.204 -14.524   4.413  1.00  0.00     0.238 C 
HETATM    7  O   UNL     1      40.358 -15.156   5.023  1.00  0.00    -0.272 OA
HETATM    8  C   UNL     1      40.816 -12.416   2.133  1.00  0.00     0.298 C 
HETATM    9  N   UNL     1      39.511 -12.338   2.962  1.00  0.00    -0.028 N 
HETATM   10  H   UNL     1      39.002 -13.219   2.729  1.00  0.00     0.287 HD
HETATM   11  C   UNL     1      39.839 -12.411   4.445  1.00  0.00     0.242 C 
HETATM   12  C   UNL     1      38.677 -11.257   2.532  1.00  0.00     0.203 C 
HETATM   13  C   UNL     1      38.554 -10.147   3.263  1.00  0.00     0.037 C 
HETATM   14  C   UNL     1      39.171  -9.987   4.574  1.00  0.00    -0.026 A 
HETATM   15  C   UNL     1      39.792 -11.089   5.178  1.00  0.00    -0.016 A 
HETATM   16  C   UNL     1      39.079  -8.768   5.256  1.00  0.00     0.012 A 
HETATM   17  C   UNL     1      39.588  -8.646   6.547  1.00  0.00     0.001 A 
HETATM   18  C   UNL     1      40.172  -9.743   7.171  1.00  0.00     0.001 A 
HETATM   19  C   UNL     1      40.264 -10.961   6.496  1.00  0.00     0.010 A 
ENDROOT
BRANCH   1  20
HETATM   20  C   UNL     1      42.699 -16.300   3.503  1.00  0.00     0.045 A 
HETATM   21  C   UNL     1      43.469 -16.908   4.511  1.00  0.00     0.031 A 
HETATM   22  C   UNL     1      43.881 -18.249   4.423  1.00  0.00     0.017 A 
HETATM   23  C   UNL     1      43.533 -19.019   3.316  1.00  0.00     0.009 A 
HETATM   24  C   UNL     1      42.786 -18.431   2.295  1.00  0.00     0.017 A 
HETATM   25  C   UNL     1      42.369 -17.097   2.395  1.00  0.00     0.031 A 
BRANCH  23  26
HETATM   26  C   UNL     1      43.929 -20.447   3.170  1.00  0.00     0.155 C 
HETATM   27  C   UNL     1      44.140 -21.279   4.406  1.00  0.00     0.096 C 
HETATM   28  O   UNL     1      44.077 -20.916   2.044  1.00  0.00    -0.293 OA
ENDBRANCH  23  26
ENDBRANCH   1  20
BRANCH   8  29
HETATM   29  C   UNL     1      40.614 -13.502   1.058  1.00  0.00     0.248 C 
HETATM   30  N   UNL     1      41.265 -13.387  -0.123  1.00  0.00    -0.368 N 
HETATM   31  H   UNL     1      42.157 -12.900  -0.211  1.00  0.00     0.159 HD
HETATM   32  H   UNL     1      41.154 -14.158  -0.781  1.00  0.00     0.159 HD
HETATM   33  O   UNL     1      39.849 -14.437   1.299  1.00  0.00    -0.271 OA
ENDBRANCH   8  29
TORSDOF 3
ENDMDL
MODEL 3
REMARK VINA RESULT:      -8.9      4.126      7.782
REMARK  3 active torsions:
REMARK  status: ('A' for Active; 'I' for Inactive)
REMARK    1  A    between atoms: C_2  and  C_3 
REMARK    2  A    between atoms: C_6  and  N_7 
REMARK    3  A    between atoms: C_14  and  C_15 
REMARK       I    between atoms: C_15  and  N_16 
ROOT
HETATM    1  N   UNL     1      43.370 -14.735   4.484  1.00  0.00    -0.252 N 
HETATM    2  C   UNL     1      43.238 -13.645   3.648  1.00  0.00     0.238 C 
HETATM    3  O   UNL     1      43.091 -13.585   2.436  1.00  0.00    -0.272 OA
HETATM    4  C   UNL     1      43.104 -12.402   4.479  1.00  0.00     0.135 C 
HETATM    5  C   UNL     1      43.626 -12.849   5.820  1.00  0.00     0.130 C 
HETATM    6  C   UNL     1      43.385 -14.326   5.803  1.00  0.00     0.238 C 
HETATM    7  O   UNL     1      43.242 -14.954   6.838  1.00  0.00    -0.272 OA
HETATM    8  C   UNL     1      41.659 -11.966   4.686  1.00  0.00     0.298 C 
HETATM    9  N   UNL     1      41.489 -11.879   6.222  1.00  0.00    -0.028 N 
HETATM   10  H   UNL     1      40.878 -12.691   6.462  1.00  0.00     0.287 HD
HETATM   11  C   UNL     1      42.825 -12.133   6.902  1.00  0.00     0.242 C 
HETATM   12  C   UNL     1      40.775 -10.701   6.608  1.00  0.00     0.203 C 
HETATM   13  C   UNL     1      41.403  -9.668   7.175  1.00  0.00     0.037 C 
HETATM   14  C   UNL     1      42.818  -9.694   7.524  1.00  0.00    -0.026 A 
HETATM   15  C   UNL     1      43.529 -10.895   7.413  1.00  0.00    -0.016 A 
HETATM   16  C   UNL     1      43.441  -8.550   8.037  1.00  0.00     0.012 A 
HETATM   17  C   UNL     1      44.768  -8.602   8.457  1.00  0.00     0.001 A 
HETATM   18  C   UNL     1      45.473  -9.799   8.387  1.00  0.00     0.001 A 
HETATM   19  C   UNL     1      44.855 -10.943   7.878  1.00  0.00     0.010 A 
ENDROOT
BRANCH   1  20
HETATM   20  C   UNL     1      43.392 -16.101   4.052  1.00  0.00     0.045 A 
HETATM   21  C   UNL     1      42.784 -16.506   2.850  1.00  0.00     0.031 A 
HETATM   22  C   UNL     1      42.836 -17.838   2.403  1.00  0.00     0.017 A 
HETATM   23  C   UNL     1      43.499 -18.805   3.156  1.00  0.00     0.009 A 
HETATM   24  C   UNL     1      44.092 -18.430   4.361  1.00  0.00     0.017 A 
HETATM   25  C   UNL     1      44.047 -17.098   4.794  1.00  0.00     0.031 A 
BRANCH  23  26
HETATM   26  C   UNL     1      43.598 -20.228   2.731  1.00  0.00     0.155 C 
HETATM   27  C   UNL     1      43.944 -21.277   3.754  1.00  0.00     0.096 C 
HETATM   28  O   UNL     1      43.397 -20.518   1.554  1.00  0.00    -0.293 OA
ENDBRANCH  23  26
ENDBRANCH   1  20
BRANCH   8  29
HETATM   29  C   UNL     1      40.566 -12.915   4.155  1.00  0.00     0.248 C 
HETATM   30  N   UNL     1      40.117 -12.757   2.888  1.00  0.00    -0.368 N 
HETATM   31  H   UNL     1      40.697 -12.362   2.147  1.00  0.00     0.159 HD
HETATM   32  H   UNL     1      39.442 -13.443   2.555  1.00  0.00     0.159 HD
HETATM   33  O   UNL     1      40.119 -13.781   4.908  1.00  0.00    -0.271 OA
ENDBRANCH   8  29
TORSDOF 3
ENDMDL
MODEL 4
REMARK VINA RESULT:      -8.7      1.442      1.834
REMARK  3 active torsions:
REMARK  status: ('A' for Active; 'I' for Inactive)
REMARK    1  A    between atoms: C_2  and  C_3 
REMARK    2  A    between atoms: C_6  and  N_7 
REMARK    3  A    between atoms: C_14  and  C_15 
REMARK       I    between atoms: C_15  and  N_16 
ROOT
HETATM    1  N   UNL     1      40.588 -13.497   1.859  1.00  0.00    -0.252 N 
HETATM    2  C   UNL     1      41.748 -13.027   2.441  1.00  0.00     0.238 C 
HETATM    3  O   UNL     1      42.202 -11.894   2.509  1.00  0.00    -0.272 OA
HETATM    4  C   UNL     1      42.391 -14.137   3.221  1.00  0.00     0.135 C 
HETATM    5  C   UNL     1      41.730 -15.364   2.648  1.00  0.00     0.130 C 
HETATM    6  C   UNL     1      40.423 -14.838   2.142  1.00  0.00     0.238 C 
HETATM    7  O   UNL     1      39.449 -15.565   2.038  1.00  0.00    -0.272 OA
HETATM    8  C   UNL     1      42.057 -14.103   4.706  1.00  0.00     0.298 C 
HETATM    9  N   UNL     1      41.465 -15.500   5.010  1.00  0.00    -0.028 N 
HETATM   10  H   UNL     1      40.448 -15.324   5.166  1.00  0.00     0.287 HD
HETATM   11  C   UNL     1      41.561 -16.379   3.772  1.00  0.00     0.242 C 
HETATM   12  C   UNL     1      41.981 -16.038   6.232  1.00  0.00     0.203 C 
HETATM   13  C   UNL     1      42.876 -17.030   6.226  1.00  0.00     0.037 C 
HETATM   14  C   UNL     1      43.319 -17.691   5.006  1.00  0.00    -0.026 A 
HETATM   15  C   UNL     1      42.678 -17.399   3.796  1.00  0.00    -0.016 A 
HETATM   16  C   UNL     1      44.324 -18.665   5.055  1.00  0.00     0.012 A 
HETATM   17  C   UNL     1      44.681 -19.364   3.903  1.00  0.00     0.001 A 
HETATM   18  C   UNL     1      44.024 -19.109   2.704  1.00  0.00     0.001 A 
HETATM   19  C   UNL     1      43.021 -18.140   2.651  1.00  0.00     0.010 A 
ENDROOT
BRANCH   1  20
HETATM   20  C   UNL     1      39.643 -12.689   1.146  1.00  0.00     0.045 A 
HETATM   21  C   UNL     1      39.646 -12.616  -0.259  1.00  0.00     0.031 A 
HETATM   22  C   UNL     1      38.697 -11.854  -0.964  1.00  0.00     0.017 A 
HETATM   23  C   UNL     1      37.719 -11.140  -0.276  1.00  0.00     0.009 A 
HETATM   24  C   UNL     1      37.710 -11.183   1.118  1.00  0.00     0.017 A 
HETATM   25  C   UNL     1      38.652 -11.953   1.814  1.00  0.00     0.031 A 
BRANCH  23  26
HETATM   26  C   UNL     1      36.681 -10.325  -0.965  1.00  0.00     0.155 C 
HETATM   27  C   UNL     1      35.629  -9.630  -0.144  1.00  0.00     0.096 C 
HETATM   28  O   UNL     1      36.704 -10.238  -2.191  1.00  0.00    -0.293 OA
ENDBRANCH  23  26
ENDBRANCH   1  20
BRANCH   8  29
HETATM   29  C   UNL     1      41.021 -13.056   5.161  1.00  0.00     0.248 C 
HETATM   30  N   UNL     1      39.707 -13.384   5.150  1.00  0.00    -0.368 N 
HETATM   31  H   UNL     1      39.382 -14.344   5.266  1.00  0.00     0.159 HD
HETATM   32  H   UNL     1      39.061 -12.687   5.518  1.00  0.00     0.159 HD
HETATM   33  O   UNL     1      41.418 -11.942   5.504  1.00  0.00    -0.271 OA
ENDBRANCH   8  29
TORSDOF 3
ENDMDL
MODEL 5
REMARK VINA RESULT:      -8.4     15.450     19.356
REMARK  3 active torsions:
REMARK  status: ('A' for Active; 'I' for Inactive)
REMARK    1  A    between atoms: C_2  and  C_3 
REMARK    2  A    between atoms: C_6  and  N_7 
REMARK    3  A    between atoms: C_14  and  C_15 
REMARK       I    between atoms: C_15  and  N_16 
ROOT
HETATM    1  N   UNL     1      48.233 -30.958   1.578  1.00  0.00    -0.252 N 
HETATM    2  C   UNL     1      46.884 -31.211   1.730  1.00  0.00     0.238 C 
HETATM    3  O   UNL     1      46.248 -31.567   2.711  1.00  0.00    -0.272 OA
HETATM    4  C   UNL     1      46.162 -30.797   0.481  1.00  0.00     0.135 C 
HETATM    5  C   UNL     1      47.277 -30.719  -0.529  1.00  0.00     0.130 C 
HETATM    6  C   UNL     1      48.483 -30.454   0.317  1.00  0.00     0.238 C 
HETATM    7  O   UNL     1      49.461 -29.885  -0.139  1.00  0.00    -0.272 OA
HETATM    8  C   UNL     1      45.545 -29.407   0.573  1.00  0.00     0.298 C 
HETATM    9  N   UNL     1      46.129 -28.636  -0.635  1.00  0.00    -0.028 N 
HETATM   10  H   UNL     1      46.794 -27.953  -0.211  1.00  0.00     0.287 HD
HETATM   11  C   UNL     1      46.967 -29.576  -1.489  1.00  0.00     0.242 C 
HETATM   12  C   UNL     1      45.125 -27.868  -1.306  1.00  0.00     0.203 C 
HETATM   13  C   UNL     1      44.641 -28.250  -2.491  1.00  0.00     0.037 C 
HETATM   14  C   UNL     1      45.150 -29.402  -3.222  1.00  0.00    -0.026 A 
HETATM   15  C   UNL     1      46.299 -30.056  -2.757  1.00  0.00    -0.016 A 
HETATM   16  C   UNL     1      44.545 -29.805  -4.418  1.00  0.00     0.012 A 
HETATM   17  C   UNL     1      45.090 -30.848  -5.165  1.00  0.00     0.001 A 
HETATM   18  C   UNL     1      46.251 -31.480  -4.732  1.00  0.00     0.001 A 
HETATM   19  C   UNL     1      46.859 -31.080  -3.541  1.00  0.00     0.010 A 
ENDROOT
BRANCH   1  20
HETATM   20  C   UNL     1      49.216 -31.105   2.610  1.00  0.00     0.045 A 
HETATM   21  C   UNL     1      49.522 -30.054   3.493  1.00  0.00     0.031 A 
HETATM   22  C   UNL     1      50.459 -30.206   4.531  1.00  0.00     0.017 A 
HETATM   23  C   UNL     1      51.119 -31.421   4.708  1.00  0.00     0.009 A 
HETATM   24  C   UNL     1      50.845 -32.470   3.831  1.00  0.00     0.017 A 
HETATM   25  C   UNL     1      49.901 -32.315   2.806  1.00  0.00     0.031 A 
BRANCH  23  26
HETATM   26  C   UNL     1      52.112 -31.647   5.794  1.00  0.00     0.155 C 
HETATM   27  C   UNL     1      52.523 -33.055   6.130  1.00  0.00     0.096 C 
HETATM   28  O   UNL     1      52.575 -30.680   6.394  1.00  0.00    -0.293 OA
ENDBRANCH  23  26
ENDBRANCH   1  20
BRANCH   8  29
HETATM   29  C   UNL     1      45.866 -28.589   1.839  1.00  0.00     0.248 C 
HETATM   30  N   UNL     1      45.035 -28.674   2.905  1.00  0.00    -0.368 N 
HETATM   31  H   UNL     1      44.477 -29.506   3.098  1.00  0.00     0.159 HD
HETATM   32  H   UNL     1      45.317 -28.168   3.743  1.00  0.00     0.159 HD
HETATM   33  O   UNL     1      46.862 -27.864   1.838  1.00  0.00    -0.271 OA
ENDBRANCH   8  29
TORSDOF 3
ENDMDL
MODEL 6
REMARK VINA RESULT:      -8.0     10.599     13.613
REMARK  3 active torsions:
REMARK  status: ('A' for Active; 'I' for Inactive)
REMARK    1  A    between atoms: C_2  and  C_3 
REMARK    2  A    between atoms: C_6  and  N_7 
REMARK    3  A    between atoms: C_14  and  C_15 
REMARK       I    between atoms: C_15  and  N_16 
ROOT
HETATM    1  N   UNL     1      42.779  -8.086  11.626  1.00  0.00    -0.252 N 
HETATM    2  C   UNL     1      42.542  -6.729  11.535  1.00  0.00     0.238 C 
HETATM    3  O   UNL     1      42.733  -5.948  10.614  1.00  0.00    -0.272 OA
HETATM    4  C   UNL     1      41.781  -6.281  12.749  1.00  0.00     0.135 C 
HETATM    5  C   UNL     1      42.018  -7.411  13.717  1.00  0.00     0.130 C 
HETATM    6  C   UNL     1      42.286  -8.577  12.818  1.00  0.00     0.238 C 
HETATM    7  O   UNL     1      42.069  -9.719  13.185  1.00  0.00    -0.272 OA
HETATM    8  C   UNL     1      40.278  -6.195  12.522  1.00  0.00     0.298 C 
HETATM    9  N   UNL     1      39.661  -7.089  13.624  1.00  0.00    -0.028 N 
HETATM   10  H   UNL     1      39.306  -7.927  13.112  1.00  0.00     0.287 HD
HETATM   11  C   UNL     1      40.756  -7.589  14.554  1.00  0.00     0.242 C 
HETATM   12  C   UNL     1      38.524  -6.469  14.233  1.00  0.00     0.203 C 
HETATM   13  C   UNL     1      38.593  -5.955  15.463  1.00  0.00     0.037 C 
HETATM   14  C   UNL     1      39.780  -6.065  16.303  1.00  0.00    -0.026 A 
HETATM   15  C   UNL     1      40.844  -6.873  15.884  1.00  0.00    -0.016 A 
HETATM   16  C   UNL     1      39.824  -5.431  17.550  1.00  0.00     0.012 A 
HETATM   17  C   UNL     1      40.920  -5.614  18.392  1.00  0.00     0.001 A 
HETATM   18  C   UNL     1      41.965  -6.444  18.002  1.00  0.00     0.001 A 
HETATM   19  C   UNL     1      41.924  -7.080  16.760  1.00  0.00     0.010 A 
ENDROOT
BRANCH   1  20
HETATM   20  C   UNL     1      43.366  -8.886  10.592  1.00  0.00     0.045 A 
HETATM   21  C   UNL     1      42.645  -9.249   9.440  1.00  0.00     0.031 A 
HETATM   22  C   UNL     1      43.229 -10.002   8.406  1.00  0.00     0.017 A 
HETATM   23  C   UNL     1      44.556 -10.416   8.502  1.00  0.00     0.009 A 
HETATM   24  C   UNL     1      45.284 -10.083   9.644  1.00  0.00     0.017 A 
HETATM   25  C   UNL     1      44.699  -9.322  10.666  1.00  0.00     0.031 A 
BRANCH  23  26
HETATM   26  C   UNL     1      45.233 -11.205   7.436  1.00  0.00     0.155 C 
HETATM   27  C   UNL     1      44.488 -12.330   6.771  1.00  0.00     0.096 C 
HETATM   28  O   UNL     1      46.388 -10.922   7.123  1.00  0.00    -0.293 OA
ENDBRANCH  23  26
ENDBRANCH   1  20
BRANCH   8  29
HETATM   29  C   UNL     1      39.751  -6.707  11.167  1.00  0.00     0.248 C 
HETATM   30  N   UNL     1      39.672  -5.847  10.125  1.00  0.00    -0.368 N 
HETATM   31  H   UNL     1      40.289  -5.040  10.034  1.00  0.00     0.159 HD
HETATM   32  H   UNL     1      39.379  -6.239   9.231  1.00  0.00     0.159 HD
HETATM   33  O   UNL     1      39.399  -7.884  11.076  1.00  0.00    -0.271 OA
ENDBRANCH   8  29
TORSDOF 3
ENDMDL
MODEL 7
REMARK VINA RESULT:      -8.0      2.705      7.941
REMARK  3 active torsions:
REMARK  status: ('A' for Active; 'I' for Inactive)
REMARK    1  A    between atoms: C_2  and  C_3 
REMARK    2  A    between atoms: C_6  and  N_7 
REMARK    3  A    between atoms: C_14  and  C_15 
REMARK       I    between atoms: C_15  and  N_16 
ROOT
HETATM    1  N   UNL     1      40.791 -14.027   3.389  1.00  0.00    -0.252 N 
HETATM    2  C   UNL     1      40.117 -13.553   4.497  1.00  0.00     0.238 C 
HETATM    3  O   UNL     1      40.088 -13.966   5.647  1.00  0.00    -0.272 OA
HETATM    4  C   UNL     1      39.486 -12.234   4.160  1.00  0.00     0.135 C 
HETATM    5  C   UNL     1      39.491 -12.244   2.654  1.00  0.00     0.130 C 
HETATM    6  C   UNL     1      40.627 -13.162   2.325  1.00  0.00     0.238 C 
HETATM    7  O   UNL     1      41.227 -13.069   1.268  1.00  0.00    -0.272 OA
HETATM    8  C   UNL     1      40.318 -11.037   4.601  1.00  0.00     0.298 C 
HETATM    9  N   UNL     1      40.521 -10.202   3.314  1.00  0.00    -0.028 N 
HETATM   10  H   UNL     1      41.529 -10.332   3.075  1.00  0.00     0.287 HD
HETATM   11  C   UNL     1      39.727 -10.817   2.171  1.00  0.00     0.242 C 
HETATM   12  C   UNL     1      40.334  -8.804   3.556  1.00  0.00     0.203 C 
HETATM   13  C   UNL     1      39.238  -8.169   3.132  1.00  0.00     0.037 C 
HETATM   14  C   UNL     1      38.210  -8.815   2.325  1.00  0.00    -0.026 A 
HETATM   15  C   UNL     1      38.437 -10.106   1.831  1.00  0.00    -0.016 A 
HETATM   16  C   UNL     1      37.042  -8.124   1.983  1.00  0.00     0.012 A 
HETATM   17  C   UNL     1      36.104  -8.707   1.134  1.00  0.00     0.001 A 
HETATM   18  C   UNL     1      36.336  -9.973   0.608  1.00  0.00     0.001 A 
HETATM   19  C   UNL     1      37.501 -10.665   0.944  1.00  0.00     0.010 A 
ENDROOT
BRANCH   1  20
HETATM   20  C   UNL     1      41.620 -15.196   3.372  1.00  0.00     0.045 A 
HETATM   21  C   UNL     1      42.754 -15.310   4.198  1.00  0.00     0.031 A 
HETATM   22  C   UNL     1      43.548 -16.470   4.211  1.00  0.00     0.017 A 
HETATM   23  C   UNL     1      43.227 -17.550   3.391  1.00  0.00     0.009 A 
HETATM   24  C   UNL     1      42.119 -17.451   2.550  1.00  0.00     0.017 A 
HETATM   25  C   UNL     1      41.325 -16.296   2.550  1.00  0.00     0.031 A 
BRANCH  23  26
HETATM   26  C   UNL     1      44.022 -18.808   3.369  1.00  0.00     0.155 C 
HETATM   27  C   UNL     1      43.739 -19.837   2.307  1.00  0.00     0.096 C 
HETATM   28  O   UNL     1      44.893 -18.982   4.219  1.00  0.00    -0.293 OA
ENDBRANCH  23  26
ENDBRANCH   1  20
BRANCH   8  29
HETATM   29  C   UNL     1      41.716 -11.338   5.177  1.00  0.00     0.248 C 
HETATM   30  N   UNL     1      41.842 -11.580   6.504  1.00  0.00    -0.368 N 
HETATM   31  H   UNL     1      41.086 -11.978   7.062  1.00  0.00     0.159 HD
HETATM   32  H   UNL     1      42.771 -11.838   6.833  1.00  0.00     0.159 HD
HETATM   33  O   UNL     1      42.683 -11.333   4.415  1.00  0.00    -0.271 OA
ENDBRANCH   8  29
TORSDOF 3
ENDMDL
MODEL 8
REMARK VINA RESULT:      -7.8      3.153      5.801
REMARK  3 active torsions:
REMARK  status: ('A' for Active; 'I' for Inactive)
REMARK    1  A    between atoms: C_2  and  C_3 
REMARK    2  A    between atoms: C_6  and  N_7 
REMARK    3  A    between atoms: C_14  and  C_15 
REMARK       I    between atoms: C_15  and  N_16 
ROOT
HETATM    1  N   UNL     1      41.268 -12.135   5.004  1.00  0.00    -0.252 N 
HETATM    2  C   UNL     1      40.281 -12.944   4.477  1.00  0.00     0.238 C 
HETATM    3  O   UNL     1      39.107 -12.709   4.232  1.00  0.00    -0.272 OA
HETATM    4  C   UNL     1      40.896 -14.235   4.020  1.00  0.00     0.135 C 
HETATM    5  C   UNL     1      42.213 -14.245   4.751  1.00  0.00     0.130 C 
HETATM    6  C   UNL     1      42.483 -12.792   4.984  1.00  0.00     0.238 C 
HETATM    7  O   UNL     1      43.621 -12.375   5.120  1.00  0.00    -0.272 OA
HETATM    8  C   UNL     1      41.211 -14.259   2.530  1.00  0.00     0.298 C 
HETATM    9  N   UNL     1      42.718 -14.604   2.452  1.00  0.00    -0.028 N 
HETATM   10  H   UNL     1      43.173 -13.716   2.145  1.00  0.00     0.287 HD
HETATM   11  C   UNL     1      43.251 -14.900   3.845  1.00  0.00     0.242 C 
HETATM   12  C   UNL     1      42.985 -15.574   1.434  1.00  0.00     0.203 C 
HETATM   13  C   UNL     1      43.279 -16.839   1.745  1.00  0.00     0.037 C 
HETATM   14  C   UNL     1      43.438 -17.302   3.117  1.00  0.00    -0.026 A 
HETATM   15  C   UNL     1      43.444 -16.366   4.160  1.00  0.00    -0.016 A 
HETATM   16  C   UNL     1      43.660 -18.658   3.385  1.00  0.00     0.012 A 
HETATM   17  C   UNL     1      43.906 -19.085   4.689  1.00  0.00     0.001 A 
HETATM   18  C   UNL     1      43.951 -18.160   5.726  1.00  0.00     0.001 A 
HETATM   19  C   UNL     1      43.733 -16.807   5.464  1.00  0.00     0.010 A 
ENDROOT
BRANCH   1  20
HETATM   20  C   UNL     1      41.079 -10.778   5.423  1.00  0.00     0.045 A 
HETATM   21  C   UNL     1      41.286  -9.699   4.544  1.00  0.00     0.031 A 
HETATM   22  C   UNL     1      41.065  -8.367   4.940  1.00  0.00     0.017 A 
HETATM   23  C   UNL     1      40.632  -8.082   6.233  1.00  0.00     0.009 A 
HETATM   24  C   UNL     1      40.440  -9.136   7.126  1.00  0.00     0.017 A 
HETATM   25  C   UNL     1      40.651 -10.461   6.722  1.00  0.00     0.031 A 
BRANCH  23  26
HETATM   26  C   UNL     1      40.371  -6.696   6.707  1.00  0.00     0.155 C 
HETATM   27  C   UNL     1      40.588  -6.363   8.159  1.00  0.00     0.096 C 
HETATM   28  O   UNL     1      39.982  -5.851   5.904  1.00  0.00    -0.293 OA
ENDBRANCH  23  26
ENDBRANCH   1  20
BRANCH   8  29
HETATM   29  C   UNL     1      41.000 -12.944   1.755  1.00  0.00     0.248 C 
HETATM   30  N   UNL     1      39.800 -12.709   1.173  1.00  0.00    -0.368 N 
HETATM   31  H   UNL     1      38.931 -13.104   1.533  1.00  0.00     0.159 HD
HETATM   32  H   UNL     1      39.681 -11.801   0.726  1.00  0.00     0.159 HD
HETATM   33  O   UNL     1      41.938 -12.150   1.671  1.00  0.00    -0.271 OA
ENDBRANCH   8  29
TORSDOF 3
ENDMDL
MODEL 9
REMARK VINA RESULT:      -7.7      3.110      4.666
REMARK  3 active torsions:
REMARK  status: ('A' for Active; 'I' for Inactive)
REMARK    1  A    between atoms: C_2  and  C_3 
REMARK    2  A    between atoms: C_6  and  N_7 
REMARK    3  A    between atoms: C_14  and  C_15 
REMARK       I    between atoms: C_15  and  N_16 
ROOT
HETATM    1  N   UNL     1      40.684 -11.735   3.546  1.00  0.00    -0.252 N 
HETATM    2  C   UNL     1      39.789 -12.764   3.329  1.00  0.00     0.238 C 
HETATM    3  O   UNL     1      38.607 -12.738   3.017  1.00  0.00    -0.272 OA
HETATM    4  C   UNL     1      40.529 -14.070   3.342  1.00  0.00     0.135 C 
HETATM    5  C   UNL     1      41.818 -13.707   4.033  1.00  0.00     0.130 C 
HETATM    6  C   UNL     1      41.951 -12.242   3.753  1.00  0.00     0.238 C 
HETATM    7  O   UNL     1      43.043 -11.700   3.738  1.00  0.00    -0.272 OA
HETATM    8  C   UNL     1      40.893 -14.572   1.952  1.00  0.00     0.298 C 
HETATM    9  N   UNL     1      42.426 -14.781   1.997  1.00  0.00    -0.028 N 
HETATM   10  H   UNL     1      42.811 -14.012   1.404  1.00  0.00     0.287 HD
HETATM   11  C   UNL     1      42.938 -14.531   3.407  1.00  0.00     0.242 C 
HETATM   12  C   UNL     1      42.811 -16.010   1.374  1.00  0.00     0.203 C 
HETATM   13  C   UNL     1      43.203 -17.060   2.100  1.00  0.00     0.037 C 
HETATM   14  C   UNL     1      43.358 -17.009   3.549  1.00  0.00    -0.026 A 
HETATM   15  C   UNL     1      43.248 -15.777   4.207  1.00  0.00    -0.016 A 
HETATM   16  C   UNL     1      43.690 -18.164   4.266  1.00  0.00     0.012 A 
HETATM   17  C   UNL     1      43.930 -18.095   5.637  1.00  0.00     0.001 A 
HETATM   18  C   UNL     1      43.860 -16.871   6.294  1.00  0.00     0.001 A 
HETATM   19  C   UNL     1      43.533 -15.716   5.582  1.00  0.00     0.010 A 
ENDROOT
BRANCH   1  20
HETATM   20  C   UNL     1      40.363 -10.341   3.473  1.00  0.00     0.045 A 
HETATM   21  C   UNL     1      40.468  -9.621   2.269  1.00  0.00     0.031 A 
HETATM   22  C   UNL     1      40.118  -8.261   2.184  1.00  0.00     0.017 A 
HETATM   23  C   UNL     1      39.654  -7.584   3.311  1.00  0.00     0.009 A 
HETATM   24  C   UNL     1      39.561  -8.274   4.519  1.00  0.00     0.017 A 
HETATM   25  C   UNL     1      39.900  -9.632   4.594  1.00  0.00     0.031 A 
BRANCH  23  26
HETATM   26  C   UNL     1      39.258  -6.150   3.282  1.00  0.00     0.155 C 
HETATM   27  C   UNL     1      40.186  -5.145   2.655  1.00  0.00     0.096 C 
HETATM   28  O   UNL     1      38.182  -5.815   3.772  1.00  0.00    -0.293 OA
ENDBRANCH  23  26
ENDBRANCH   1  20
BRANCH   8  29
HETATM   29  C   UNL     1      40.593 -13.627   0.772  1.00  0.00     0.248 C 
HETATM   30  N   UNL     1      39.411 -13.742   0.122  1.00  0.00    -0.368 N 
HETATM   31  H   UNL     1      38.568 -14.093   0.577  1.00  0.00     0.159 HD
HETATM   32  H   UNL     1      39.225 -13.058  -0.609  1.00  0.00     0.159 HD
HETATM   33  O   UNL     1      41.447 -12.803   0.442  1.00  0.00    -0.271 OA
ENDBRANCH   8  29
TORSDOF 3
ENDMDL
MODEL 10
REMARK VINA RESULT:      -7.6     16.102     18.115
REMARK  3 active torsions:
REMARK  status: ('A' for Active; 'I' for Inactive)
REMARK    1  A    between atoms: C_2  and  C_3 
REMARK    2  A    between atoms: C_6  and  N_7 
REMARK    3  A    between atoms: C_14  and  C_15 
REMARK       I    between atoms: C_15  and  N_16 
ROOT
HETATM    1  N   UNL     1      47.146 -29.860   1.476  1.00  0.00    -0.252 N 
HETATM    2  C   UNL     1      46.646 -29.424   2.687  1.00  0.00     0.238 C 
HETATM    3  O   UNL     1      45.716 -28.671   2.938  1.00  0.00    -0.272 OA
HETATM    4  C   UNL     1      47.317 -30.180   3.796  1.00  0.00     0.135 C 
HETATM    5  C   UNL     1      48.541 -30.738   3.117  1.00  0.00     0.130 C 
HETATM    6  C   UNL     1      48.128 -30.808   1.680  1.00  0.00     0.238 C 
HETATM    7  O   UNL     1      48.643 -31.606   0.915  1.00  0.00    -0.272 OA
HETATM    8  C   UNL     1      46.504 -31.367   4.295  1.00  0.00     0.298 C 
HETATM    9  N   UNL     1      47.454 -32.581   4.162  1.00  0.00    -0.028 N 
HETATM   10  H   UNL     1      47.061 -33.133   3.367  1.00  0.00     0.287 HD
HETATM   11  C   UNL     1      48.830 -32.110   3.716  1.00  0.00     0.242 C 
HETATM   12  C   UNL     1      47.398 -33.426   5.315  1.00  0.00     0.203 C 
HETATM   13  C   UNL     1      48.393 -33.447   6.205  1.00  0.00     0.037 C 
HETATM   14  C   UNL     1      49.631 -32.699   6.029  1.00  0.00    -0.026 A 
HETATM   15  C   UNL     1      49.872 -32.050   4.811  1.00  0.00    -0.016 A 
HETATM   16  C   UNL     1      50.603 -32.692   7.036  1.00  0.00     0.012 A 
HETATM   17  C   UNL     1      51.825 -32.054   6.828  1.00  0.00     0.001 A 
HETATM   18  C   UNL     1      52.089 -31.439   5.609  1.00  0.00     0.001 A 
HETATM   19  C   UNL     1      51.125 -31.445   4.601  1.00  0.00     0.010 A 
ENDROOT
BRANCH   1  20
HETATM   20  C   UNL     1      46.652 -29.457   0.192  1.00  0.00     0.045 A 
HETATM   21  C   UNL     1      47.314 -28.488  -0.583  1.00  0.00     0.031 A 
HETATM   22  C   UNL     1      46.854 -28.117  -1.859  1.00  0.00     0.017 A 
HETATM   23  C   UNL     1      45.711 -28.710  -2.392  1.00  0.00     0.009 A 
HETATM   24  C   UNL     1      45.029 -29.660  -1.632  1.00  0.00     0.017 A 
HETATM   25  C   UNL     1      45.499 -30.032  -0.366  1.00  0.00     0.031 A 
BRANCH  23  26
HETATM   26  C   UNL     1      45.181 -28.369  -3.741  1.00  0.00     0.155 C 
HETATM   27  C   UNL     1      44.634 -29.466  -4.614  1.00  0.00     0.096 C 
HETATM   28  O   UNL     1      45.202 -27.198  -4.114  1.00  0.00    -0.293 OA
ENDBRANCH  23  26
ENDBRANCH   1  20
BRANCH   8  29
HETATM   29  C   UNL     1      45.217 -31.703   3.516  1.00  0.00     0.248 C 
HETATM   30  N   UNL     1      44.053 -31.115   3.883  1.00  0.00    -0.368 N 
HETATM   31  H   UNL     1      44.020 -30.200   4.331  1.00  0.00     0.159 HD
HETATM   32  H   UNL     1      43.240 -31.315   3.303  1.00  0.00     0.159 HD
HETATM   33  O   UNL     1      45.281 -32.513   2.590  1.00  0.00    -0.271 OA
ENDBRANCH   8  29
TORSDOF 3
ENDMDL
