MODEL 1
REMARK VINA RESULT:      -7.6      0.000      0.000
REMARK  10 active torsions:
REMARK  status: ('A' for Active; 'I' for Inactive)
REMARK    1  A    between atoms: C_2  and  C_3 
REMARK    2  A    between atoms: C_3  and  N_4 
REMARK    3  A    between atoms: C_10  and  C_11 
REMARK    4  A    between atoms: C_11  and  C_12 
REMARK    5  A    between atoms: C_12  and  S_13 
REMARK    6  A    between atoms: S_13  and  C_14 
REMARK    7  A    between atoms: N_15  and  C_16 
REMARK    8  A    between atoms: C_23  and  C_24 
REMARK    9  A    between atoms: C_24  and  N_25 
REMARK   10  A    between atoms: C_33  and  N_34 
ROOT
HETATM    1  S   UNL     1      43.570 -11.940   3.673  1.00  0.00    -0.082 SA
ENDROOT
BRANCH   1   2
HETATM    2  C   UNL     1      42.819 -10.705   4.787  1.00  0.00     0.166 C 
BRANCH   2   3
HETATM    3  C   UNL     1      42.534 -11.355   6.134  1.00  0.00     0.177 C 
HETATM    4  O   UNL     1      42.891 -10.803   7.186  1.00  0.00    -0.291 OA
BRANCH   3   5
HETATM    5  C   UNL     1      41.844 -12.689   6.180  1.00  0.00     0.117 C 
HETATM    6  C   UNL     1      40.407 -12.804   5.858  1.00  0.00     0.266 C 
HETATM    7  N   UNL     1      39.920 -14.057   5.688  1.00  0.00    -0.274 N 
HETATM    8  O   UNL     1      39.679 -11.819   5.788  1.00  0.00    -0.267 OA
HETATM    9  C   UNL     1      40.505 -15.169   6.204  1.00  0.00     0.330 C 
HETATM   10  H   UNL     1      38.931 -14.144   5.499  1.00  0.00     0.173 HD
HETATM   11  N   UNL     1      41.824 -15.024   6.625  1.00  0.00    -0.289 N 
HETATM   12  O   UNL     1      39.854 -16.205   6.300  1.00  0.00    -0.246 OA
HETATM   13  C   UNL     1      42.506 -13.803   6.585  1.00  0.00     0.103 C 
BRANCH  11  14
HETATM   14  C   UNL     1      42.461 -16.234   7.162  1.00  0.00     0.135 C 
BRANCH  14  15
HETATM   15  C   UNL     1      42.880 -17.186   6.037  1.00  0.00     0.016 C 
HETATM   16  C   UNL     1      44.322 -16.960   5.617  1.00  0.00     0.006 C 
ENDBRANCH  14  15
ENDBRANCH  11  14
BRANCH  13  17
HETATM   17  N   UNL     1      43.843 -13.757   6.967  1.00  0.00    -0.287 NA
HETATM   18  H   UNL     1      44.084 -14.481   7.651  1.00  0.00     0.125 HD
HETATM   19  H   UNL     1      44.481 -13.801   6.178  1.00  0.00     0.125 HD
ENDBRANCH  13  17
ENDBRANCH   3   5
ENDBRANCH   2   3
ENDBRANCH   1   2
BRANCH   1  20
HETATM   20  C   UNL     1      42.444 -11.882   2.357  1.00  0.00     0.196 A 
HETATM   21  N   UNL     1      42.022 -12.964   1.599  1.00  0.00    -0.274 N 
HETATM   22  C   UNL     1      41.285 -12.368   0.576  1.00  0.00     0.166 A 
HETATM   23  N   UNL     1      41.279 -11.058   0.729  1.00  0.00    -0.131 NA
HETATM   24  N   UNL     1      41.998 -10.759   1.843  1.00  0.00    -0.122 NA
BRANCH  21  25
HETATM   25  C   UNL     1      42.186 -14.357   1.841  1.00  0.00     0.043 A 
HETATM   26  C   UNL     1      43.394 -14.992   1.520  1.00  0.00     0.032 A 
HETATM   27  C   UNL     1      43.573 -16.351   1.794  1.00  0.00     0.026 A 
HETATM   28  C   UNL     1      42.547 -17.084   2.383  1.00  0.00     0.034 A 
HETATM   29 CL   UNL     1      42.773 -18.751   2.731  1.00  0.00    -0.084 Cl
HETATM   30  C   UNL     1      41.339 -16.466   2.696  1.00  0.00     0.026 A 
HETATM   31  C   UNL     1      41.155 -15.105   2.425  1.00  0.00     0.032 A 
ENDBRANCH  21  25
BRANCH  22  32
HETATM   32  C   UNL     1      40.420 -13.044  -0.444  1.00  0.00     0.254 C 
HETATM   33  C   UNL     1      40.618 -12.349  -1.798  1.00  0.00     0.049 C 
BRANCH  32  34
HETATM   34  N   UNL     1      38.937 -12.927  -0.021  1.00  0.00    -0.068 N 
HETATM   35  H   UNL     1      38.601 -13.905  -0.000  1.00  0.00     0.279 HD
HETATM   36  C   UNL     1      38.692 -12.325   1.330  1.00  0.00     0.270 C 
HETATM   37  C   UNL     1      38.098 -12.237  -1.070  1.00  0.00     0.270 C 
ENDBRANCH  32  34
ENDBRANCH  22  32
ENDBRANCH   1  20
TORSDOF 10
ENDMDL
MODEL 2
REMARK VINA RESULT:      -7.5      3.351      7.071
REMARK  10 active torsions:
REMARK  status: ('A' for Active; 'I' for Inactive)
REMARK    1  A    between atoms: C_2  and  C_3 
REMARK    2  A    between atoms: C_3  and  N_4 
REMARK    3  A    between atoms: C_10  and  C_11 
REMARK    4  A    between atoms: C_11  and  C_12 
REMARK    5  A    between atoms: C_12  and  S_13 
REMARK    6  A    between atoms: S_13  and  C_14 
REMARK    7  A    between atoms: N_15  and  C_16 
REMARK    8  A    between atoms: C_23  and  C_24 
REMARK    9  A    between atoms: C_24  and  N_25 
REMARK   10  A    between atoms: C_33  and  N_34 
ROOT
HETATM    1  S   UNL     1      39.457 -12.310   4.193  1.00  0.00    -0.082 SA
ENDROOT
BRANCH   1   2
HETATM    2  C   UNL     1      39.873 -11.124   2.871  1.00  0.00     0.166 C 
BRANCH   2   3
HETATM    3  C   UNL     1      38.951 -11.357   1.682  1.00  0.00     0.177 C 
HETATM    4  O   UNL     1      37.743 -11.583   1.857  1.00  0.00    -0.291 OA
BRANCH   3   5
HETATM    5  C   UNL     1      39.520 -11.344   0.291  1.00  0.00     0.117 C 
HETATM    6  C   UNL     1      39.847 -10.067  -0.376  1.00  0.00     0.266 C 
HETATM    7  N   UNL     1      40.573 -10.144  -1.517  1.00  0.00    -0.274 N 
HETATM    8  O   UNL     1      39.448  -8.990   0.057  1.00  0.00    -0.267 OA
HETATM    9  C   UNL     1      40.634 -11.256  -2.296  1.00  0.00     0.330 C 
HETATM   10  H   UNL     1      40.773  -9.276  -1.996  1.00  0.00     0.173 HD
HETATM   11  N   UNL     1      40.205 -12.439  -1.704  1.00  0.00    -0.289 N 
HETATM   12  O   UNL     1      41.022 -11.158  -3.457  1.00  0.00    -0.246 OA
HETATM   13  C   UNL     1      39.682 -12.497  -0.407  1.00  0.00     0.103 C 
BRANCH  11  14
HETATM   14  C   UNL     1      40.294 -13.643  -2.542  1.00  0.00     0.135 C 
BRANCH  14  15
HETATM   15  C   UNL     1      38.987 -13.886  -3.303  1.00  0.00     0.016 C 
HETATM   16  C   UNL     1      38.412 -15.261  -3.010  1.00  0.00     0.006 C 
ENDBRANCH  14  15
ENDBRANCH  11  14
BRANCH  13  17
HETATM   17  N   UNL     1      39.334 -13.730   0.134  1.00  0.00    -0.287 NA
HETATM   18  H   UNL     1      38.779 -13.643   0.991  1.00  0.00     0.125 HD
HETATM   19  H   UNL     1      38.854 -14.330  -0.530  1.00  0.00     0.125 HD
ENDBRANCH  13  17
ENDBRANCH   3   5
ENDBRANCH   2   3
ENDBRANCH   1   2
BRANCH   1  20
HETATM   20  C   UNL     1      40.342 -13.696   3.643  1.00  0.00     0.196 A 
HETATM   21  N   UNL     1      41.699 -13.916   3.817  1.00  0.00    -0.274 N 
HETATM   22  C   UNL     1      41.939 -15.053   3.045  1.00  0.00     0.166 A 
HETATM   23  N   UNL     1      40.819 -15.457   2.477  1.00  0.00    -0.131 NA
HETATM   24  N   UNL     1      39.824 -14.612   2.857  1.00  0.00    -0.122 NA
BRANCH  21  25
HETATM   25  C   UNL     1      42.626 -13.237   4.657  1.00  0.00     0.043 A 
HETATM   26  C   UNL     1      42.789 -13.631   5.992  1.00  0.00     0.032 A 
HETATM   27  C   UNL     1      43.728 -12.993   6.808  1.00  0.00     0.026 A 
HETATM   28  C   UNL     1      44.504 -11.957   6.298  1.00  0.00     0.034 A 
HETATM   29 CL   UNL     1      45.666 -11.182   7.298  1.00  0.00    -0.084 Cl
HETATM   30  C   UNL     1      44.342 -11.549   4.977  1.00  0.00     0.026 A 
HETATM   31  C   UNL     1      43.404 -12.185   4.155  1.00  0.00     0.032 A 
ENDBRANCH  21  25
BRANCH  22  32
HETATM   32  C   UNL     1      43.188 -15.878   2.992  1.00  0.00     0.254 C 
HETATM   33  C   UNL     1      43.587 -16.078   1.524  1.00  0.00     0.049 C 
BRANCH  32  34
HETATM   34  N   UNL     1      42.923 -17.257   3.642  1.00  0.00    -0.068 N 
HETATM   35  H   UNL     1      41.902 -17.393   3.541  1.00  0.00     0.279 HD
HETATM   36  C   UNL     1      43.610 -18.422   2.996  1.00  0.00     0.270 C 
HETATM   37  C   UNL     1      43.180 -17.246   5.130  1.00  0.00     0.270 C 
ENDBRANCH  32  34
ENDBRANCH  22  32
ENDBRANCH   1  20
TORSDOF 10
ENDMDL
MODEL 3
REMARK VINA RESULT:      -7.3      2.799      4.459
REMARK  10 active torsions:
REMARK  status: ('A' for Active; 'I' for Inactive)
REMARK    1  A    between atoms: C_2  and  C_3 
REMARK    2  A    between atoms: C_3  and  N_4 
REMARK    3  A    between atoms: C_10  and  C_11 
REMARK    4  A    between atoms: C_11  and  C_12 
REMARK    5  A    between atoms: C_12  and  S_13 
REMARK    6  A    between atoms: S_13  and  C_14 
REMARK    7  A    between atoms: N_15  and  C_16 
REMARK    8  A    between atoms: C_23  and  C_24 
REMARK    9  A    between atoms: C_24  and  N_25 
REMARK   10  A    between atoms: C_33  and  N_34 
ROOT
HETATM    1  S   UNL     1      40.971 -12.639   5.017  1.00  0.00    -0.082 SA
ENDROOT
BRANCH   1   2
HETATM    2  C   UNL     1      42.738 -12.185   5.020  1.00  0.00     0.166 C 
BRANCH   2   3
HETATM    3  C   UNL     1      42.898 -10.804   5.640  1.00  0.00     0.177 C 
HETATM    4  O   UNL     1      42.468  -9.798   5.055  1.00  0.00    -0.291 OA
BRANCH   3   5
HETATM    5  C   UNL     1      43.611 -10.662   6.955  1.00  0.00     0.117 C 
HETATM    6  C   UNL     1      45.042 -11.007   7.076  1.00  0.00     0.266 C 
HETATM    7  N   UNL     1      45.666 -10.627   8.217  1.00  0.00    -0.274 N 
HETATM    8  O   UNL     1      45.631 -11.642   6.206  1.00  0.00    -0.267 OA
HETATM    9  C   UNL     1      45.015 -10.372   9.382  1.00  0.00     0.330 C 
HETATM   10  H   UNL     1      46.637 -10.888   8.320  1.00  0.00     0.173 HD
HETATM   11  N   UNL     1      43.642 -10.172   9.281  1.00  0.00    -0.289 N 
HETATM   12  O   UNL     1      45.644 -10.363  10.436  1.00  0.00    -0.246 OA
HETATM   13  C   UNL     1      42.942 -10.281   8.074  1.00  0.00     0.103 C 
BRANCH  11  14
HETATM   14  C   UNL     1      42.944  -9.874  10.539  1.00  0.00     0.135 C 
BRANCH  14  15
HETATM   15  C   UNL     1      43.117  -8.404  10.934  1.00  0.00     0.016 C 
HETATM   16  C   UNL     1      43.376  -8.248  12.423  1.00  0.00     0.006 C 
ENDBRANCH  14  15
ENDBRANCH  11  14
BRANCH  13  17
HETATM   17  N   UNL     1      41.579 -10.004   8.048  1.00  0.00    -0.287 NA
HETATM   18  H   UNL     1      41.194 -10.004   7.097  1.00  0.00     0.125 HD
HETATM   19  H   UNL     1      41.039 -10.626   8.640  1.00  0.00     0.125 HD
ENDBRANCH  13  17
ENDBRANCH   3   5
ENDBRANCH   2   3
ENDBRANCH   1   2
BRANCH   1  20
HETATM   20  C   UNL     1      40.577 -12.307   3.362  1.00  0.00     0.196 A 
HETATM   21  N   UNL     1      40.952 -13.071   2.267  1.00  0.00    -0.274 N 
HETATM   22  C   UNL     1      40.555 -12.290   1.182  1.00  0.00     0.166 A 
HETATM   23  N   UNL     1      39.997 -11.174   1.611  1.00  0.00    -0.131 NA
HETATM   24  N   UNL     1      40.008 -11.190   2.970  1.00  0.00    -0.122 NA
BRANCH  21  25
HETATM   25  C   UNL     1      41.504 -14.382   2.225  1.00  0.00     0.043 A 
HETATM   26  C   UNL     1      42.855 -14.569   1.901  1.00  0.00     0.032 A 
HETATM   27  C   UNL     1      43.410 -15.853   1.898  1.00  0.00     0.026 A 
HETATM   28  C   UNL     1      42.620 -16.954   2.214  1.00  0.00     0.034 A 
HETATM   29 CL   UNL     1      43.307 -18.528   2.224  1.00  0.00    -0.084 Cl
HETATM   30  C   UNL     1      41.275 -16.780   2.527  1.00  0.00     0.026 A 
HETATM   31  C   UNL     1      40.714 -15.498   2.532  1.00  0.00     0.032 A 
ENDBRANCH  21  25
BRANCH  22  32
HETATM   32  C   UNL     1      40.524 -12.678  -0.264  1.00  0.00     0.254 C 
HETATM   33  C   UNL     1      40.716 -11.417  -1.118  1.00  0.00     0.049 C 
BRANCH  32  34
HETATM   34  N   UNL     1      39.156 -13.318  -0.597  1.00  0.00    -0.068 N 
HETATM   35  H   UNL     1      38.769 -13.585   0.324  1.00  0.00     0.279 HD
HETATM   36  C   UNL     1      38.164 -12.417  -1.271  1.00  0.00     0.270 C 
HETATM   37  C   UNL     1      39.302 -14.612  -1.361  1.00  0.00     0.270 C 
ENDBRANCH  32  34
ENDBRANCH  22  32
ENDBRANCH   1  20
TORSDOF 10
ENDMDL
MODEL 4
REMARK VINA RESULT:      -7.2      4.012      7.022
REMARK  10 active torsions:
REMARK  status: ('A' for Active; 'I' for Inactive)
REMARK    1  A    between atoms: C_2  and  C_3 
REMARK    2  A    between atoms: C_3  and  N_4 
REMARK    3  A    between atoms: C_10  and  C_11 
REMARK    4  A    between atoms: C_11  and  C_12 
REMARK    5  A    between atoms: C_12  and  S_13 
REMARK    6  A    between atoms: S_13  and  C_14 
REMARK    7  A    between atoms: N_15  and  C_16 
REMARK    8  A    between atoms: C_23  and  C_24 
REMARK    9  A    between atoms: C_24  and  N_25 
REMARK   10  A    between atoms: C_33  and  N_34 
ROOT
HETATM    1  S   UNL     1      42.407 -12.909   4.579  1.00  0.00    -0.082 SA
ENDROOT
BRANCH   1   2
HETATM    2  C   UNL     1      40.753 -13.414   5.160  1.00  0.00     0.166 C 
BRANCH   2   3
HETATM    3  C   UNL     1      40.789 -14.884   5.554  1.00  0.00     0.177 C 
HETATM    4  O   UNL     1      40.251 -15.266   6.605  1.00  0.00    -0.291 OA
BRANCH   3   5
HETATM    5  C   UNL     1      41.509 -15.868   4.675  1.00  0.00     0.117 C 
HETATM    6  C   UNL     1      41.006 -16.175   3.320  1.00  0.00     0.266 C 
HETATM    7  N   UNL     1      41.832 -16.878   2.509  1.00  0.00    -0.274 N 
HETATM    8  O   UNL     1      39.881 -15.847   2.958  1.00  0.00    -0.267 OA
HETATM    9  C   UNL     1      42.840 -17.668   2.964  1.00  0.00     0.330 C 
HETATM   10  H   UNL     1      41.482 -17.119   1.592  1.00  0.00     0.173 HD
HETATM   11  N   UNL     1      43.228 -17.462   4.284  1.00  0.00    -0.289 N 
HETATM   12  O   UNL     1      43.322 -18.518   2.221  1.00  0.00    -0.246 OA
HETATM   13  C   UNL     1      42.593 -16.546   5.130  1.00  0.00     0.103 C 
BRANCH  11  14
HETATM   14  C   UNL     1      44.333 -18.303   4.765  1.00  0.00     0.135 C 
BRANCH  14  15
HETATM   15  C   UNL     1      43.811 -19.497   5.570  1.00  0.00     0.016 C 
HETATM   16  C   UNL     1      44.154 -20.818   4.904  1.00  0.00     0.006 C 
ENDBRANCH  14  15
ENDBRANCH  11  14
BRANCH  13  17
HETATM   17  N   UNL     1      43.082 -16.356   6.419  1.00  0.00    -0.287 NA
HETATM   18  H   UNL     1      43.369 -15.387   6.593  1.00  0.00     0.125 HD
HETATM   19  H   UNL     1      42.431 -16.659   7.137  1.00  0.00     0.125 HD
ENDBRANCH  13  17
ENDBRANCH   3   5
ENDBRANCH   2   3
ENDBRANCH   1   2
BRANCH   1  20
HETATM   20  C   UNL     1      43.046 -12.232   6.042  1.00  0.00     0.196 A 
HETATM   21  N   UNL     1      42.725 -10.992   6.573  1.00  0.00    -0.274 N 
HETATM   22  C   UNL     1      43.630 -10.853   7.625  1.00  0.00     0.166 A 
HETATM   23  N   UNL     1      44.404 -11.919   7.699  1.00  0.00    -0.131 NA
HETATM   24  N   UNL     1      44.033 -12.779   6.714  1.00  0.00    -0.122 NA
BRANCH  21  25
HETATM   25  C   UNL     1      41.668 -10.106   6.226  1.00  0.00     0.043 A 
HETATM   26  C   UNL     1      41.819  -9.207   5.161  1.00  0.00     0.032 A 
HETATM   27  C   UNL     1      40.767  -8.363   4.792  1.00  0.00     0.026 A 
HETATM   28  C   UNL     1      39.562  -8.409   5.486  1.00  0.00     0.034 A 
HETATM   29 CL   UNL     1      38.266  -7.380   5.024  1.00  0.00    -0.084 Cl
HETATM   30  C   UNL     1      39.404  -9.289   6.553  1.00  0.00     0.026 A 
HETATM   31  C   UNL     1      40.454 -10.137   6.927  1.00  0.00     0.032 A 
ENDBRANCH  21  25
BRANCH  22  32
HETATM   32  C   UNL     1      43.643  -9.798   8.689  1.00  0.00     0.254 C 
HETATM   33  C   UNL     1      45.097  -9.527   9.098  1.00  0.00     0.049 C 
BRANCH  32  34
HETATM   34  N   UNL     1      42.850 -10.298   9.920  1.00  0.00    -0.068 N 
HETATM   35  H   UNL     1      42.353 -11.138   9.578  1.00  0.00     0.279 HD
HETATM   36  C   UNL     1      43.676 -10.700  11.105  1.00  0.00     0.270 C 
HETATM   37  C   UNL     1      41.766  -9.331  10.331  1.00  0.00     0.270 C 
ENDBRANCH  32  34
ENDBRANCH  22  32
ENDBRANCH   1  20
TORSDOF 10
ENDMDL
MODEL 5
REMARK VINA RESULT:      -7.1      1.951      3.150
REMARK  10 active torsions:
REMARK  status: ('A' for Active; 'I' for Inactive)
REMARK    1  A    between atoms: C_2  and  C_3 
REMARK    2  A    between atoms: C_3  and  N_4 
REMARK    3  A    between atoms: C_10  and  C_11 
REMARK    4  A    between atoms: C_11  and  C_12 
REMARK    5  A    between atoms: C_12  and  S_13 
REMARK    6  A    between atoms: S_13  and  C_14 
REMARK    7  A    between atoms: N_15  and  C_16 
REMARK    8  A    between atoms: C_23  and  C_24 
REMARK    9  A    between atoms: C_24  and  N_25 
REMARK   10  A    between atoms: C_33  and  N_34 
ROOT
HETATM    1  S   UNL     1      40.570 -11.226   3.168  1.00  0.00    -0.082 SA
ENDROOT
BRANCH   1   2
HETATM    2  C   UNL     1      39.204 -12.145   3.953  1.00  0.00     0.166 C 
BRANCH   2   3
HETATM    3  C   UNL     1      39.578 -12.462   5.395  1.00  0.00     0.177 C 
HETATM    4  O   UNL     1      38.786 -12.218   6.318  1.00  0.00    -0.291 OA
BRANCH   3   5
HETATM    5  C   UNL     1      40.930 -13.044   5.697  1.00  0.00     0.117 C 
HETATM    6  C   UNL     1      41.238 -14.448   5.353  1.00  0.00     0.266 C 
HETATM    7  N   UNL     1      42.538 -14.823   5.434  1.00  0.00    -0.274 N 
HETATM    8  O   UNL     1      40.359 -15.248   5.049  1.00  0.00    -0.267 OA
HETATM    9  C   UNL     1      43.461 -14.180   6.194  1.00  0.00     0.330 C 
HETATM   10  H   UNL     1      42.751 -15.790   5.230  1.00  0.00     0.173 HD
HETATM   11  N   UNL     1      43.114 -12.902   6.624  1.00  0.00    -0.289 N 
HETATM   12  O   UNL     1      44.509 -14.750   6.483  1.00  0.00    -0.246 OA
HETATM   13  C   UNL     1      41.871 -12.319   6.352  1.00  0.00     0.103 C 
BRANCH  11  14
HETATM   14  C   UNL     1      44.124 -12.201   7.428  1.00  0.00     0.135 C 
BRANCH  14  15
HETATM   15  C   UNL     1      45.073 -11.390   6.540  1.00  0.00     0.016 C 
HETATM   16  C   UNL     1      46.162 -10.711   7.353  1.00  0.00     0.006 C 
ENDBRANCH  14  15
ENDBRANCH  11  14
BRANCH  13  17
HETATM   17  N   UNL     1      41.627 -11.013   6.764  1.00  0.00    -0.287 NA
HETATM   18  H   UNL     1      41.064 -10.968   7.620  1.00  0.00     0.125 HD
HETATM   19  H   UNL     1      42.477 -10.470   6.881  1.00  0.00     0.125 HD
ENDBRANCH  13  17
ENDBRANCH   3   5
ENDBRANCH   2   3
ENDBRANCH   1   2
BRANCH   1  20
HETATM   20  C   UNL     1      40.227 -11.545   1.499  1.00  0.00     0.196 A 
HETATM   21  N   UNL     1      40.615 -12.671   0.790  1.00  0.00    -0.274 N 
HETATM   22  C   UNL     1      40.263 -12.358  -0.523  1.00  0.00     0.166 A 
HETATM   23  N   UNL     1      39.717 -11.158  -0.569  1.00  0.00    -0.131 NA
HETATM   24  N   UNL     1      39.692 -10.656   0.694  1.00  0.00    -0.122 NA
BRANCH  21  25
HETATM   25  C   UNL     1      41.141 -13.905   1.267  1.00  0.00     0.043 A 
HETATM   26  C   UNL     1      40.294 -15.004   1.463  1.00  0.00     0.032 A 
HETATM   27  C   UNL     1      40.814 -16.230   1.893  1.00  0.00     0.026 A 
HETATM   28  C   UNL     1      42.178 -16.361   2.132  1.00  0.00     0.034 A 
HETATM   29 CL   UNL     1      42.817 -17.870   2.647  1.00  0.00    -0.084 Cl
HETATM   30  C   UNL     1      43.027 -15.273   1.951  1.00  0.00     0.026 A 
HETATM   31  C   UNL     1      42.512 -14.044   1.521  1.00  0.00     0.032 A 
ENDBRANCH  21  25
BRANCH  22  32
HETATM   32  C   UNL     1      40.263 -13.267  -1.714  1.00  0.00     0.254 C 
HETATM   33  C   UNL     1      40.619 -12.447  -2.961  1.00  0.00     0.049 C 
BRANCH  32  34
HETATM   34  N   UNL     1      38.855 -13.883  -1.892  1.00  0.00    -0.068 N 
HETATM   35  H   UNL     1      38.423 -13.805  -0.955  1.00  0.00     0.279 HD
HETATM   36  C   UNL     1      37.960 -13.186  -2.873  1.00  0.00     0.270 C 
HETATM   37  C   UNL     1      38.913 -15.363  -2.184  1.00  0.00     0.270 C 
ENDBRANCH  32  34
ENDBRANCH  22  32
ENDBRANCH   1  20
TORSDOF 10
ENDMDL
MODEL 6
REMARK VINA RESULT:      -7.1      4.292      7.714
REMARK  10 active torsions:
REMARK  status: ('A' for Active; 'I' for Inactive)
REMARK    1  A    between atoms: C_2  and  C_3 
REMARK    2  A    between atoms: C_3  and  N_4 
REMARK    3  A    between atoms: C_10  and  C_11 
REMARK    4  A    between atoms: C_11  and  C_12 
REMARK    5  A    between atoms: C_12  and  S_13 
REMARK    6  A    between atoms: S_13  and  C_14 
REMARK    7  A    between atoms: N_15  and  C_16 
REMARK    8  A    between atoms: C_23  and  C_24 
REMARK    9  A    between atoms: C_24  and  N_25 
REMARK   10  A    between atoms: C_33  and  N_34 
ROOT
HETATM    1  S   UNL     1      42.133 -11.617   4.966  1.00  0.00    -0.082 SA
ENDROOT
BRANCH   1   2
HETATM    2  C   UNL     1      43.113 -13.016   4.326  1.00  0.00     0.166 C 
BRANCH   2   3
HETATM    3  C   UNL     1      42.204 -14.223   4.147  1.00  0.00     0.177 C 
HETATM    4  O   UNL     1      41.137 -14.120   3.521  1.00  0.00    -0.291 OA
BRANCH   3   5
HETATM    5  C   UNL     1      42.591 -15.538   4.762  1.00  0.00     0.117 C 
HETATM    6  C   UNL     1      42.314 -15.813   6.188  1.00  0.00     0.266 C 
HETATM    7  N   UNL     1      42.470 -17.093   6.602  1.00  0.00    -0.274 N 
HETATM    8  O   UNL     1      41.999 -14.921   6.969  1.00  0.00    -0.267 OA
HETATM    9  C   UNL     1      43.250 -18.002   5.961  1.00  0.00     0.330 C 
HETATM   10  H   UNL     1      42.314 -17.282   7.583  1.00  0.00     0.173 HD
HETATM   11  N   UNL     1      43.615 -17.681   4.658  1.00  0.00    -0.289 N 
HETATM   12  O   UNL     1      43.609 -19.015   6.555  1.00  0.00    -0.246 OA
HETATM   13  C   UNL     1      43.263 -16.473   4.044  1.00  0.00     0.103 C 
BRANCH  11  14
HETATM   14  C   UNL     1      44.440 -18.677   3.960  1.00  0.00     0.135 C 
BRANCH  14  15
HETATM   15  C   UNL     1      43.597 -19.873   3.505  1.00  0.00     0.016 C 
HETATM   16  C   UNL     1      43.239 -19.782   2.031  1.00  0.00     0.006 C 
ENDBRANCH  14  15
ENDBRANCH  11  14
BRANCH  13  17
HETATM   17  N   UNL     1      43.615 -16.256   2.715  1.00  0.00    -0.287 NA
HETATM   18  H   UNL     1      44.601 -15.995   2.606  1.00  0.00     0.125 HD
HETATM   19  H   UNL     1      43.397 -17.045   2.115  1.00  0.00     0.125 HD
ENDBRANCH  13  17
ENDBRANCH   3   5
ENDBRANCH   2   3
ENDBRANCH   1   2
BRANCH   1  20
HETATM   20  C   UNL     1      42.903 -11.387   6.502  1.00  0.00     0.196 A 
HETATM   21  N   UNL     1      42.680 -10.332   7.373  1.00  0.00    -0.274 N 
HETATM   22  C   UNL     1      43.661 -10.513   8.349  1.00  0.00     0.166 A 
HETATM   23  N   UNL     1      44.385 -11.579   8.068  1.00  0.00    -0.131 NA
HETATM   24  N   UNL     1      43.906 -12.124   6.919  1.00  0.00    -0.122 NA
BRANCH  21  25
HETATM   25  C   UNL     1      41.645  -9.355   7.366  1.00  0.00     0.043 A 
HETATM   26  C   UNL     1      40.347  -9.699   7.765  1.00  0.00     0.032 A 
HETATM   27  C   UNL     1      39.337  -8.732   7.798  1.00  0.00     0.026 A 
HETATM   28  C   UNL     1      39.618  -7.420   7.430  1.00  0.00     0.034 A 
HETATM   29 CL   UNL     1      38.381  -6.230   7.483  1.00  0.00    -0.084 Cl
HETATM   30  C   UNL     1      40.902  -7.069   7.022  1.00  0.00     0.026 A 
HETATM   31  C   UNL     1      41.917  -8.033   6.987  1.00  0.00     0.032 A 
ENDBRANCH  21  25
BRANCH  22  32
HETATM   32  C   UNL     1      43.798  -9.792   9.655  1.00  0.00     0.254 C 
HETATM   33  C   UNL     1      45.267  -9.842  10.096  1.00  0.00     0.049 C 
BRANCH  32  34
HETATM   34  N   UNL     1      42.920 -10.488  10.722  1.00  0.00    -0.068 N 
HETATM   35  H   UNL     1      42.465 -11.263  10.211  1.00  0.00     0.279 HD
HETATM   36  C   UNL     1      43.658 -11.074  11.889  1.00  0.00     0.270 C 
HETATM   37  C   UNL     1      41.791  -9.605  11.197  1.00  0.00     0.270 C 
ENDBRANCH  32  34
ENDBRANCH  22  32
ENDBRANCH   1  20
TORSDOF 10
ENDMDL
MODEL 7
REMARK VINA RESULT:      -6.9      3.413      5.183
REMARK  10 active torsions:
REMARK  status: ('A' for Active; 'I' for Inactive)
REMARK    1  A    between atoms: C_2  and  C_3 
REMARK    2  A    between atoms: C_3  and  N_4 
REMARK    3  A    between atoms: C_10  and  C_11 
REMARK    4  A    between atoms: C_11  and  C_12 
REMARK    5  A    between atoms: C_12  and  S_13 
REMARK    6  A    between atoms: S_13  and  C_14 
REMARK    7  A    between atoms: N_15  and  C_16 
REMARK    8  A    between atoms: C_23  and  C_24 
REMARK    9  A    between atoms: C_24  and  N_25 
REMARK   10  A    between atoms: C_33  and  N_34 
ROOT
HETATM    1  S   UNL     1      40.438 -12.396   3.596  1.00  0.00    -0.082 SA
ENDROOT
BRANCH   1   2
HETATM    2  C   UNL     1      40.612 -13.960   4.518  1.00  0.00     0.166 C 
BRANCH   2   3
HETATM    3  C   UNL     1      42.084 -14.203   4.819  1.00  0.00     0.177 C 
HETATM    4  O   UNL     1      42.876 -13.250   4.894  1.00  0.00    -0.291 OA
BRANCH   3   5
HETATM    5  C   UNL     1      42.582 -15.610   4.994  1.00  0.00     0.117 C 
HETATM    6  C   UNL     1      42.574 -16.250   6.325  1.00  0.00     0.266 C 
HETATM    7  N   UNL     1      42.807 -17.585   6.360  1.00  0.00    -0.274 N 
HETATM    8  O   UNL     1      42.406 -15.603   7.354  1.00  0.00    -0.267 OA
HETATM    9  C   UNL     1      43.457 -18.261   5.377  1.00  0.00     0.330 C 
HETATM   10  H   UNL     1      42.835 -18.024   7.270  1.00  0.00     0.173 HD
HETATM   11  N   UNL     1      43.574 -17.601   4.158  1.00  0.00    -0.289 N 
HETATM   12  O   UNL     1      43.922 -19.372   5.616  1.00  0.00    -0.246 OA
HETATM   13  C   UNL     1      43.112 -16.297   3.950  1.00  0.00     0.103 C 
BRANCH  11  14
HETATM   14  C   UNL     1      44.258 -18.345   3.091  1.00  0.00     0.135 C 
BRANCH  14  15
HETATM   15  C   UNL     1      43.257 -19.102   2.214  1.00  0.00     0.016 C 
HETATM   16  C   UNL     1      43.638 -20.564   2.057  1.00  0.00     0.006 C 
ENDBRANCH  14  15
ENDBRANCH  11  14
BRANCH  13  17
HETATM   17  N   UNL     1      43.212 -15.732   2.682  1.00  0.00    -0.287 NA
HETATM   18  H   UNL     1      43.602 -16.381   1.991  1.00  0.00     0.125 HD
HETATM   19  H   UNL     1      42.330 -15.358   2.347  1.00  0.00     0.125 HD
ENDBRANCH  13  17
ENDBRANCH   3   5
ENDBRANCH   2   3
ENDBRANCH   1   2
BRANCH   1  20
HETATM   20  C   UNL     1      40.288 -13.012   1.983  1.00  0.00     0.196 A 
HETATM   21  N   UNL     1      39.465 -12.502   0.991  1.00  0.00    -0.274 N 
HETATM   22  C   UNL     1      39.572 -13.448  -0.029  1.00  0.00     0.166 A 
HETATM   23  N   UNL     1      40.386 -14.418   0.339  1.00  0.00    -0.131 NA
HETATM   24  N   UNL     1      40.835 -14.140   1.592  1.00  0.00    -0.122 NA
BRANCH  21  25
HETATM   25  C   UNL     1      38.760 -11.266   0.946  1.00  0.00     0.043 A 
HETATM   26  C   UNL     1      39.454 -10.064   0.752  1.00  0.00     0.032 A 
HETATM   27  C   UNL     1      38.761  -8.853   0.667  1.00  0.00     0.026 A 
HETATM   28  C   UNL     1      37.374  -8.836   0.779  1.00  0.00     0.034 A 
HETATM   29 CL   UNL     1      36.522  -7.348   0.661  1.00  0.00    -0.084 Cl
HETATM   30  C   UNL     1      36.675 -10.022   0.983  1.00  0.00     0.026 A 
HETATM   31  C   UNL     1      37.364 -11.238   1.069  1.00  0.00     0.032 A 
ENDBRANCH  21  25
BRANCH  22  32
HETATM   32  C   UNL     1      39.057 -13.345  -1.432  1.00  0.00     0.254 C 
HETATM   33  C   UNL     1      39.276 -14.689  -2.139  1.00  0.00     0.049 C 
BRANCH  32  34
HETATM   34  N   UNL     1      39.833 -12.238  -2.185  1.00  0.00    -0.068 N 
HETATM   35  H   UNL     1      40.290 -11.693  -1.435  1.00  0.00     0.279 HD
HETATM   36  C   UNL     1      40.899 -12.717  -3.124  1.00  0.00     0.270 C 
HETATM   37  C   UNL     1      38.910 -11.267  -2.881  1.00  0.00     0.270 C 
ENDBRANCH  32  34
ENDBRANCH  22  32
ENDBRANCH   1  20
TORSDOF 10
ENDMDL
MODEL 8
REMARK VINA RESULT:      -6.9      1.688      2.759
REMARK  10 active torsions:
REMARK  status: ('A' for Active; 'I' for Inactive)
REMARK    1  A    between atoms: C_2  and  C_3 
REMARK    2  A    between atoms: C_3  and  N_4 
REMARK    3  A    between atoms: C_10  and  C_11 
REMARK    4  A    between atoms: C_11  and  C_12 
REMARK    5  A    between atoms: C_12  and  S_13 
REMARK    6  A    between atoms: S_13  and  C_14 
REMARK    7  A    between atoms: N_15  and  C_16 
REMARK    8  A    between atoms: C_23  and  C_24 
REMARK    9  A    between atoms: C_24  and  N_25 
REMARK   10  A    between atoms: C_33  and  N_34 
ROOT
HETATM    1  S   UNL     1      40.584 -11.209   3.096  1.00  0.00    -0.082 SA
ENDROOT
BRANCH   1   2
HETATM    2  C   UNL     1      39.219 -12.024   3.990  1.00  0.00     0.166 C 
BRANCH   2   3
HETATM    3  C   UNL     1      39.538 -12.043   5.479  1.00  0.00     0.177 C 
HETATM    4  O   UNL     1      38.647 -11.831   6.316  1.00  0.00    -0.291 OA
BRANCH   3   5
HETATM    5  C   UNL     1      40.950 -12.291   5.929  1.00  0.00     0.117 C 
HETATM    6  C   UNL     1      41.787 -11.180   6.427  1.00  0.00     0.266 C 
HETATM    7  N   UNL     1      42.950 -11.518   7.034  1.00  0.00    -0.274 N 
HETATM    8  O   UNL     1      41.468 -10.007   6.263  1.00  0.00    -0.267 OA
HETATM    9  C   UNL     1      43.588 -12.701   6.833  1.00  0.00     0.330 C 
HETATM   10  H   UNL     1      43.542 -10.762   7.348  1.00  0.00     0.173 HD
HETATM   11  N   UNL     1      42.831 -13.710   6.246  1.00  0.00    -0.289 N 
HETATM   12  O   UNL     1      44.772 -12.807   7.139  1.00  0.00    -0.246 OA
HETATM   13  C   UNL     1      41.509 -13.524   5.825  1.00  0.00     0.103 C 
BRANCH  11  14
HETATM   14  C   UNL     1      43.518 -14.994   6.050  1.00  0.00     0.135 C 
BRANCH  14  15
HETATM   15  C   UNL     1      43.305 -15.924   7.248  1.00  0.00     0.016 C 
HETATM   16  C   UNL     1      43.463 -17.385   6.861  1.00  0.00     0.006 C 
ENDBRANCH  14  15
ENDBRANCH  11  14
BRANCH  13  17
HETATM   17  N   UNL     1      40.801 -14.603   5.304  1.00  0.00    -0.287 NA
HETATM   18  H   UNL     1      41.383 -15.209   4.716  1.00  0.00     0.125 HD
HETATM   19  H   UNL     1      40.340 -15.154   6.021  1.00  0.00     0.125 HD
ENDBRANCH  13  17
ENDBRANCH   3   5
ENDBRANCH   2   3
ENDBRANCH   1   2
BRANCH   1  20
HETATM   20  C   UNL     1      40.176 -11.637   1.467  1.00  0.00     0.196 A 
HETATM   21  N   UNL     1      40.543 -12.805   0.816  1.00  0.00    -0.274 N 
HETATM   22  C   UNL     1      40.134 -12.579  -0.498  1.00  0.00     0.166 A 
HETATM   23  N   UNL     1      39.577 -11.388  -0.599  1.00  0.00    -0.131 NA
HETATM   24  N   UNL     1      39.600 -10.806   0.629  1.00  0.00    -0.122 NA
BRANCH  21  25
HETATM   25  C   UNL     1      41.099 -14.002   1.349  1.00  0.00     0.043 A 
HETATM   26  C   UNL     1      40.283 -15.117   1.580  1.00  0.00     0.032 A 
HETATM   27  C   UNL     1      40.833 -16.308   2.065  1.00  0.00     0.026 A 
HETATM   28  C   UNL     1      42.198 -16.388   2.326  1.00  0.00     0.034 A 
HETATM   29 CL   UNL     1      42.875 -17.856   2.910  1.00  0.00    -0.084 Cl
HETATM   30  C   UNL     1      43.016 -15.283   2.112  1.00  0.00     0.026 A 
HETATM   31  C   UNL     1      42.470 -14.089   1.625  1.00  0.00     0.032 A 
ENDBRANCH  21  25
BRANCH  22  32
HETATM   32  C   UNL     1      40.093 -13.563  -1.627  1.00  0.00     0.254 C 
HETATM   33  C   UNL     1      40.392 -12.824  -2.938  1.00  0.00     0.049 C 
BRANCH  32  34
HETATM   34  N   UNL     1      38.684 -14.197  -1.707  1.00  0.00    -0.068 N 
HETATM   35  H   UNL     1      38.466 -14.457  -0.730  1.00  0.00     0.279 HD
HETATM   36  C   UNL     1      37.593 -13.293  -2.199  1.00  0.00     0.270 C 
HETATM   37  C   UNL     1      38.685 -15.496  -2.476  1.00  0.00     0.270 C 
ENDBRANCH  32  34
ENDBRANCH  22  32
ENDBRANCH   1  20
TORSDOF 10
ENDMDL
MODEL 9
REMARK VINA RESULT:      -6.9      3.961      6.353
REMARK  10 active torsions:
REMARK  status: ('A' for Active; 'I' for Inactive)
REMARK    1  A    between atoms: C_2  and  C_3 
REMARK    2  A    between atoms: C_3  and  N_4 
REMARK    3  A    between atoms: C_10  and  C_11 
REMARK    4  A    between atoms: C_11  and  C_12 
REMARK    5  A    between atoms: C_12  and  S_13 
REMARK    6  A    between atoms: S_13  and  C_14 
REMARK    7  A    between atoms: N_15  and  C_16 
REMARK    8  A    between atoms: C_23  and  C_24 
REMARK    9  A    between atoms: C_24  and  N_25 
REMARK   10  A    between atoms: C_33  and  N_34 
ROOT
HETATM    1  S   UNL     1      39.692 -11.622   4.165  1.00  0.00    -0.082 SA
ENDROOT
BRANCH   1   2
HETATM    2  C   UNL     1      39.532 -11.932   5.955  1.00  0.00     0.166 C 
BRANCH   2   3
HETATM    3  C   UNL     1      39.020 -10.671   6.637  1.00  0.00     0.177 C 
HETATM    4  O   UNL     1      37.927 -10.180   6.313  1.00  0.00    -0.291 OA
BRANCH   3   5
HETATM    5  C   UNL     1      39.864 -10.004   7.686  1.00  0.00     0.117 C 
HETATM    6  C   UNL     1      41.099  -9.284   7.312  1.00  0.00     0.266 C 
HETATM    7  N   UNL     1      41.667  -8.513   8.270  1.00  0.00    -0.274 N 
HETATM    8  O   UNL     1      41.610  -9.408   6.204  1.00  0.00    -0.267 OA
HETATM    9  C   UNL     1      41.462  -8.692   9.601  1.00  0.00     0.330 C 
HETATM   10  H   UNL     1      42.530  -8.042   8.031  1.00  0.00     0.173 HD
HETATM   11  N   UNL     1      40.368  -9.477   9.949  1.00  0.00    -0.289 N 
HETATM   12  O   UNL     1      42.245  -8.194  10.405  1.00  0.00    -0.246 OA
HETATM   13  C   UNL     1      39.549 -10.105   9.002  1.00  0.00     0.103 C 
BRANCH  11  14
HETATM   14  C   UNL     1      40.136  -9.651  11.389  1.00  0.00     0.135 C 
BRANCH  14  15
HETATM   15  C   UNL     1      39.307  -8.495  11.960  1.00  0.00     0.016 C 
HETATM   16  C   UNL     1      40.021  -7.805  13.109  1.00  0.00     0.006 C 
ENDBRANCH  14  15
ENDBRANCH  11  14
BRANCH  13  17
HETATM   17  N   UNL     1      38.437 -10.823   9.432  1.00  0.00    -0.287 NA
HETATM   18  H   UNL     1      38.359 -11.738   8.977  1.00  0.00     0.125 HD
HETATM   19  H   UNL     1      38.405 -10.933  10.441  1.00  0.00     0.125 HD
ENDBRANCH  13  17
ENDBRANCH   3   5
ENDBRANCH   2   3
ENDBRANCH   1   2
BRANCH   1  20
HETATM   20  C   UNL     1      40.439 -13.106   3.668  1.00  0.00     0.196 A 
HETATM   21  N   UNL     1      41.761 -13.463   3.885  1.00  0.00    -0.274 N 
HETATM   22  C   UNL     1      41.899 -14.636   3.142  1.00  0.00     0.166 A 
HETATM   23  N   UNL     1      40.758 -14.932   2.550  1.00  0.00    -0.131 NA
HETATM   24  N   UNL     1      39.849 -13.979   2.884  1.00  0.00    -0.122 NA
BRANCH  21  25
HETATM   25  C   UNL     1      42.731 -12.868   4.739  1.00  0.00     0.043 A 
HETATM   26  C   UNL     1      42.850 -13.285   6.071  1.00  0.00     0.032 A 
HETATM   27  C   UNL     1      43.830 -12.731   6.901  1.00  0.00     0.026 A 
HETATM   28  C   UNL     1      44.691 -11.756   6.407  1.00  0.00     0.034 A 
HETATM   29 CL   UNL     1      45.903 -11.085   7.423  1.00  0.00    -0.084 Cl
HETATM   30  C   UNL     1      44.574 -11.326   5.088  1.00  0.00     0.026 A 
HETATM   31  C   UNL     1      43.596 -11.878   4.252  1.00  0.00     0.032 A 
ENDBRANCH  21  25
BRANCH  22  32
HETATM   32  C   UNL     1      43.055 -15.590   3.142  1.00  0.00     0.254 C 
HETATM   33  C   UNL     1      43.514 -15.809   1.694  1.00  0.00     0.049 C 
BRANCH  32  34
HETATM   34  N   UNL     1      42.608 -16.942   3.746  1.00  0.00    -0.068 N 
HETATM   35  H   UNL     1      41.614 -17.026   3.472  1.00  0.00     0.279 HD
HETATM   36  C   UNL     1      43.332 -18.152   3.238  1.00  0.00     0.270 C 
HETATM   37  C   UNL     1      42.606 -16.919   5.256  1.00  0.00     0.270 C 
ENDBRANCH  32  34
ENDBRANCH  22  32
ENDBRANCH   1  20
TORSDOF 10
ENDMDL
MODEL 10
REMARK VINA RESULT:      -6.8      3.069      4.697
REMARK  10 active torsions:
REMARK  status: ('A' for Active; 'I' for Inactive)
REMARK    1  A    between atoms: C_2  and  C_3 
REMARK    2  A    between atoms: C_3  and  N_4 
REMARK    3  A    between atoms: C_10  and  C_11 
REMARK    4  A    between atoms: C_11  and  C_12 
REMARK    5  A    between atoms: C_12  and  S_13 
REMARK    6  A    between atoms: S_13  and  C_14 
REMARK    7  A    between atoms: N_15  and  C_16 
REMARK    8  A    between atoms: C_23  and  C_24 
REMARK    9  A    between atoms: C_24  and  N_25 
REMARK   10  A    between atoms: C_33  and  N_34 
ROOT
HETATM    1  S   UNL     1      39.449 -12.860   2.512  1.00  0.00    -0.082 SA
ENDROOT
BRANCH   1   2
HETATM    2  C   UNL     1      41.008 -13.783   2.725  1.00  0.00     0.166 C 
BRANCH   2   3
HETATM    3  C   UNL     1      40.690 -15.244   3.009  1.00  0.00     0.177 C 
HETATM    4  O   UNL     1      39.795 -15.827   2.377  1.00  0.00    -0.291 OA
BRANCH   3   5
HETATM    5  C   UNL     1      41.447 -15.970   4.085  1.00  0.00     0.117 C 
HETATM    6  C   UNL     1      41.132 -15.742   5.511  1.00  0.00     0.266 C 
HETATM    7  N   UNL     1      41.683 -16.602   6.401  1.00  0.00    -0.274 N 
HETATM    8  O   UNL     1      40.438 -14.799   5.878  1.00  0.00    -0.267 OA
HETATM    9  C   UNL     1      42.798 -17.335   6.147  1.00  0.00     0.330 C 
HETATM   10  H   UNL     1      41.497 -16.433   7.380  1.00  0.00     0.173 HD
HETATM   11  N   UNL     1      43.166 -17.443   4.810  1.00  0.00    -0.289 N 
HETATM   12  O   UNL     1      43.424 -17.825   7.083  1.00  0.00    -0.246 OA
HETATM   13  C   UNL     1      42.480 -16.795   3.777  1.00  0.00     0.103 C 
BRANCH  11  14
HETATM   14  C   UNL     1      44.360 -18.255   4.538  1.00  0.00     0.135 C 
BRANCH  14  15
HETATM   15  C   UNL     1      43.978 -19.682   4.130  1.00  0.00     0.016 C 
HETATM   16  C   UNL     1      44.297 -20.685   5.226  1.00  0.00     0.006 C 
ENDBRANCH  14  15
ENDBRANCH  11  14
BRANCH  13  17
HETATM   17  N   UNL     1      42.875 -17.004   2.459  1.00  0.00    -0.287 NA
HETATM   18  H   UNL     1      43.682 -17.633   2.385  1.00  0.00     0.125 HD
HETATM   19  H   UNL     1      42.120 -17.339   1.869  1.00  0.00     0.125 HD
ENDBRANCH  13  17
ENDBRANCH   3   5
ENDBRANCH   2   3
ENDBRANCH   1   2
BRANCH   1  20
HETATM   20  C   UNL     1      40.026 -11.497   1.611  1.00  0.00     0.196 A 
HETATM   21  N   UNL     1      40.148 -11.425   0.232  1.00  0.00    -0.274 N 
HETATM   22  C   UNL     1      40.819 -10.218   0.033  1.00  0.00     0.166 A 
HETATM   23  N   UNL     1      41.062  -9.642   1.194  1.00  0.00    -0.131 NA
HETATM   24  N   UNL     1      40.562 -10.439   2.175  1.00  0.00    -0.122 NA
BRANCH  21  25
HETATM   25  C   UNL     1      39.628 -12.294  -0.769  1.00  0.00     0.043 A 
HETATM   26  C   UNL     1      38.270 -12.245  -1.110  1.00  0.00     0.032 A 
HETATM   27  C   UNL     1      37.764 -13.068  -2.121  1.00  0.00     0.026 A 
HETATM   28  C   UNL     1      38.610 -13.946  -2.792  1.00  0.00     0.034 A 
HETATM   29 CL   UNL     1      37.991 -14.948  -4.043  1.00  0.00    -0.084 Cl
HETATM   30  C   UNL     1      39.959 -14.011  -2.454  1.00  0.00     0.026 A 
HETATM   31  C   UNL     1      40.470 -13.189  -1.443  1.00  0.00     0.032 A 
ENDBRANCH  21  25
BRANCH  22  32
HETATM   32  C   UNL     1      41.064  -9.509  -1.263  1.00  0.00     0.254 C 
HETATM   33  C   UNL     1      42.333  -8.656  -1.128  1.00  0.00     0.049 C 
BRANCH  32  34
HETATM   34  N   UNL     1      39.862  -8.589  -1.583  1.00  0.00    -0.068 N 
HETATM   35  H   UNL     1      39.204  -8.751  -0.802  1.00  0.00     0.279 HD
HETATM   36  C   UNL     1      40.164  -7.121  -1.637  1.00  0.00     0.270 C 
HETATM   37  C   UNL     1      39.123  -9.026  -2.825  1.00  0.00     0.270 C 
ENDBRANCH  32  34
ENDBRANCH  22  32
ENDBRANCH   1  20
TORSDOF 10
ENDMDL
