MODEL 1
REMARK VINA RESULT:      -8.8      0.000      0.000
REMARK  7 active torsions:
REMARK  status: ('A' for Active; 'I' for Inactive)
REMARK    1  A    between atoms: C_2  and  N_3 
REMARK       I    between atoms: N_3  and  C_4 
REMARK    2  A    between atoms: C_4  and  C_5 
REMARK    3  A    between atoms: N_8  and  C_10 
REMARK    4  A    between atoms: C_10  and  N_11 
REMARK    5  A    between atoms: C_13  and  C_14 
REMARK    6  A    between atoms: C_14  and  N_15 
REMARK    7  A    between atoms: N_22  and  C_23 
ROOT
HETATM    1  N   UNL     1      41.931 -13.849   5.236  1.00  0.00    -0.216 N 
HETATM    2  N   UNL     1      42.212 -13.443   3.947  1.00  0.00    -0.153 NA
HETATM    3  C   UNL     1      42.679 -14.513   3.357  1.00  0.00     0.160 A 
HETATM    4  N   UNL     1      42.715 -15.620   4.141  1.00  0.00    -0.272 N 
HETATM    5  C   UNL     1      42.253 -15.211   5.389  1.00  0.00     0.204 A 
HETATM    6  S   UNL     1      41.975 -16.080   6.784  1.00  0.00    -0.038 SA
ENDROOT
BRANCH   1   7
HETATM    7  C   UNL     1      41.547 -12.898   6.269  1.00  0.00     0.388 C 
BRANCH   7   8
HETATM    8  N   UNL     1      42.588 -11.831   6.463  1.00  0.00    -0.053 N 
HETATM    9  C   UNL     1      41.953 -10.625   7.116  1.00  0.00     0.237 C 
HETATM   10  C   UNL     1      42.977  -9.513   7.303  1.00  0.00     0.042 C 
HETATM   11  C   UNL     1      44.180  -9.986   8.118  1.00  0.00     0.081 C 
HETATM   12  C   UNL     1      44.797 -11.223   7.460  1.00  0.00     0.042 C 
HETATM   13  C   UNL     1      43.799 -12.346   7.197  1.00  0.00     0.237 C 
HETATM   14  H   UNL     1      42.886 -11.553   5.517  1.00  0.00     0.281 HD
BRANCH  11  15
HETATM   15  C   UNL     1      43.744 -10.273   9.551  1.00  0.00     0.221 C 
HETATM   16  N   UNL     1      42.782  -9.425  10.036  1.00  0.00    -0.361 N 
HETATM   17  H   UNL     1      42.601  -8.546   9.564  1.00  0.00     0.162 HD
HETATM   18  O   UNL     1      44.150 -11.261  10.155  1.00  0.00    -0.273 OA
BRANCH  16  19
HETATM   19  C   UNL     1      42.261  -9.558  11.386  1.00  0.00     0.118 C 
HETATM   20  C   UNL     1      43.065  -8.746  12.385  1.00  0.00     0.026 C 
ENDBRANCH  16  19
ENDBRANCH  11  15
ENDBRANCH   7   8
ENDBRANCH   1   7
BRANCH   3  21
HETATM   21  C   UNL     1      43.199 -14.468   1.923  1.00  0.00     0.315 C 
BRANCH  21  22
HETATM   22  N   UNL     1      42.090 -14.210   0.896  1.00  0.00    -0.064 N 
HETATM   23  H   UNL     1      42.494 -14.460  -0.020  1.00  0.00     0.280 HD
HETATM   24  C   UNL     1      40.878 -15.093   1.102  1.00  0.00     0.235 C 
HETATM   25  C   UNL     1      39.909 -14.888  -0.054  1.00  0.00     0.028 C 
HETATM   26  C   UNL     1      39.505 -13.425  -0.195  1.00  0.00     0.003 C 
HETATM   27  C   UNL     1      40.727 -12.520  -0.300  1.00  0.00     0.028 C 
HETATM   28  C   UNL     1      41.703 -12.746   0.845  1.00  0.00     0.235 C 
ENDBRANCH  21  22
ENDBRANCH   3  21
BRANCH   4  29
HETATM   29  C   UNL     1      43.115 -16.919   3.752  1.00  0.00     0.043 A 
HETATM   30  C   UNL     1      42.523 -17.557   2.655  1.00  0.00     0.030 A 
HETATM   31  C   UNL     1      42.911 -18.847   2.288  1.00  0.00     0.002 A 
HETATM   32  C   UNL     1      43.897 -19.513   3.009  1.00  0.00     0.000 A 
HETATM   33  C   UNL     1      44.501 -18.890   4.096  1.00  0.00     0.002 A 
HETATM   34  C   UNL     1      44.114 -17.599   4.467  1.00  0.00     0.030 A 
ENDBRANCH   4  29
TORSDOF 7
ENDMDL
MODEL 2
REMARK VINA RESULT:      -8.4      1.341      1.528
REMARK  7 active torsions:
REMARK  status: ('A' for Active; 'I' for Inactive)
REMARK    1  A    between atoms: C_2  and  N_3 
REMARK       I    between atoms: N_3  and  C_4 
REMARK    2  A    between atoms: C_4  and  C_5 
REMARK    3  A    between atoms: N_8  and  C_10 
REMARK    4  A    between atoms: C_10  and  N_11 
REMARK    5  A    between atoms: C_13  and  C_14 
REMARK    6  A    between atoms: C_14  and  N_15 
REMARK    7  A    between atoms: N_22  and  C_23 
ROOT
HETATM    1  N   UNL     1      40.832 -13.743   4.960  1.00  0.00    -0.216 N 
HETATM    2  N   UNL     1      41.251 -13.271   3.732  1.00  0.00    -0.153 NA
HETATM    3  C   UNL     1      41.955 -14.250   3.223  1.00  0.00     0.160 A 
HETATM    4  N   UNL     1      42.027 -15.358   4.003  1.00  0.00    -0.272 N 
HETATM    5  C   UNL     1      41.320 -15.049   5.162  1.00  0.00     0.204 A 
HETATM    6  S   UNL     1      40.954 -15.980   6.494  1.00  0.00    -0.038 SA
ENDROOT
BRANCH   1   7
HETATM    7  C   UNL     1      40.158 -12.881   5.919  1.00  0.00     0.388 C 
BRANCH   7   8
HETATM    8  N   UNL     1      40.729 -11.490   5.921  1.00  0.00    -0.053 N 
HETATM    9  C   UNL     1      39.795 -10.567   6.668  1.00  0.00     0.237 C 
HETATM   10  C   UNL     1      40.333  -9.142   6.666  1.00  0.00     0.042 C 
HETATM   11  C   UNL     1      41.739  -9.069   7.260  1.00  0.00     0.081 C 
HETATM   12  C   UNL     1      42.668 -10.028   6.512  1.00  0.00     0.042 C 
HETATM   13  C   UNL     1      42.146 -11.459   6.434  1.00  0.00     0.237 C 
HETATM   14  H   UNL     1      40.743 -11.191   4.936  1.00  0.00     0.281 HD
BRANCH  11  15
HETATM   15  C   UNL     1      41.680  -9.393   8.749  1.00  0.00     0.221 C 
HETATM   16  N   UNL     1      42.871  -9.800   9.293  1.00  0.00    -0.361 N 
HETATM   17  H   UNL     1      43.624 -10.104   8.686  1.00  0.00     0.162 HD
HETATM   18  O   UNL     1      40.665  -9.183   9.407  1.00  0.00    -0.273 OA
BRANCH  16  19
HETATM   19  C   UNL     1      42.985 -10.152  10.698  1.00  0.00     0.118 C 
HETATM   20  C   UNL     1      43.734  -9.094  11.487  1.00  0.00     0.026 C 
ENDBRANCH  16  19
ENDBRANCH  11  15
ENDBRANCH   7   8
ENDBRANCH   1   7
BRANCH   3  21
HETATM   21  C   UNL     1      42.682 -14.097   1.890  1.00  0.00     0.315 C 
BRANCH  21  22
HETATM   22  N   UNL     1      41.724 -13.918   0.707  1.00  0.00    -0.064 N 
HETATM   23  H   UNL     1      42.266 -14.171  -0.133  1.00  0.00     0.280 HD
HETATM   24  C   UNL     1      40.534 -14.852   0.765  1.00  0.00     0.235 C 
HETATM   25  C   UNL     1      39.735 -14.722  -0.525  1.00  0.00     0.028 C 
HETATM   26  C   UNL     1      39.292 -13.284  -0.768  1.00  0.00     0.003 C 
HETATM   27  C   UNL     1      40.476 -12.325  -0.725  1.00  0.00     0.028 C 
HETATM   28  C   UNL     1      41.285 -12.476   0.555  1.00  0.00     0.235 C 
ENDBRANCH  21  22
ENDBRANCH   3  21
BRANCH   4  29
HETATM   29  C   UNL     1      42.665 -16.578   3.681  1.00  0.00     0.043 A 
HETATM   30  C   UNL     1      42.240 -17.349   2.593  1.00  0.00     0.030 A 
HETATM   31  C   UNL     1      42.865 -18.562   2.293  1.00  0.00     0.002 A 
HETATM   32  C   UNL     1      43.924 -19.015   3.074  1.00  0.00     0.000 A 
HETATM   33  C   UNL     1      44.364 -18.256   4.152  1.00  0.00     0.002 A 
HETATM   34  C   UNL     1      43.739 -17.043   4.457  1.00  0.00     0.030 A 
ENDBRANCH   4  29
TORSDOF 7
ENDMDL
MODEL 3
REMARK VINA RESULT:      -8.3      4.298      8.108
REMARK  7 active torsions:
REMARK  status: ('A' for Active; 'I' for Inactive)
REMARK    1  A    between atoms: C_2  and  N_3 
REMARK       I    between atoms: N_3  and  C_4 
REMARK    2  A    between atoms: C_4  and  C_5 
REMARK    3  A    between atoms: N_8  and  C_10 
REMARK    4  A    between atoms: C_10  and  N_11 
REMARK    5  A    between atoms: C_13  and  C_14 
REMARK    6  A    between atoms: C_14  and  N_15 
REMARK    7  A    between atoms: N_22  and  C_23 
ROOT
HETATM    1  N   UNL     1      40.805 -15.071   1.437  1.00  0.00    -0.216 N 
HETATM    2  N   UNL     1      41.879 -15.923   1.266  1.00  0.00    -0.153 NA
HETATM    3  C   UNL     1      42.453 -15.969   2.441  1.00  0.00     0.160 A 
HETATM    4  N   UNL     1      41.839 -15.232   3.400  1.00  0.00    -0.272 N 
HETATM    5  C   UNL     1      40.767 -14.610   2.767  1.00  0.00     0.204 A 
HETATM    6  S   UNL     1      39.566 -13.628   3.374  1.00  0.00    -0.038 SA
ENDROOT
BRANCH   1   7
HETATM    7  C   UNL     1      40.003 -14.619   0.309  1.00  0.00     0.388 C 
BRANCH   7   8
HETATM    8  N   UNL     1      40.737 -13.614  -0.534  1.00  0.00    -0.053 N 
HETATM    9  C   UNL     1      40.224 -13.680  -1.953  1.00  0.00     0.237 C 
HETATM   10  C   UNL     1      40.966 -12.690  -2.841  1.00  0.00     0.042 C 
HETATM   11  C   UNL     1      40.861 -11.263  -2.304  1.00  0.00     0.081 C 
HETATM   12  C   UNL     1      41.360 -11.215  -0.858  1.00  0.00     0.042 C 
HETATM   13  C   UNL     1      40.688 -12.230   0.061  1.00  0.00     0.237 C 
HETATM   14  H   UNL     1      41.721 -13.919  -0.543  1.00  0.00     0.281 HD
BRANCH  11  15
HETATM   15  C   UNL     1      39.418 -10.782  -2.415  1.00  0.00     0.221 C 
HETATM   16  N   UNL     1      39.069  -9.808  -1.516  1.00  0.00    -0.361 N 
HETATM   17  H   UNL     1      39.649  -9.643  -0.702  1.00  0.00     0.162 HD
HETATM   18  O   UNL     1      38.686 -11.167  -3.323  1.00  0.00    -0.273 OA
BRANCH  16  19
HETATM   19  C   UNL     1      37.730  -9.245  -1.485  1.00  0.00     0.118 C 
HETATM   20  C   UNL     1      36.826  -9.990  -0.520  1.00  0.00     0.026 C 
ENDBRANCH  16  19
ENDBRANCH  11  15
ENDBRANCH   7   8
ENDBRANCH   1   7
BRANCH   3  21
HETATM   21  C   UNL     1      43.750 -16.744   2.661  1.00  0.00     0.315 C 
BRANCH  21  22
HETATM   22  N   UNL     1      43.525 -18.102   3.337  1.00  0.00    -0.064 N 
HETATM   23  H   UNL     1      42.515 -18.147   3.543  1.00  0.00     0.280 HD
HETATM   24  C   UNL     1      43.845 -19.271   2.430  1.00  0.00     0.235 C 
HETATM   25  C   UNL     1      43.434 -20.564   3.121  1.00  0.00     0.028 C 
HETATM   26  C   UNL     1      44.115 -20.717   4.476  1.00  0.00     0.003 C 
HETATM   27  C   UNL     1      43.879 -19.495   5.356  1.00  0.00     0.028 C 
HETATM   28  C   UNL     1      44.269 -18.204   4.652  1.00  0.00     0.235 C 
ENDBRANCH  21  22
ENDBRANCH   3  21
BRANCH   4  29
HETATM   29  C   UNL     1      42.206 -15.144   4.763  1.00  0.00     0.043 A 
HETATM   30  C   UNL     1      41.656 -16.013   5.714  1.00  0.00     0.030 A 
HETATM   31  C   UNL     1      42.010 -15.908   7.061  1.00  0.00     0.002 A 
HETATM   32  C   UNL     1      42.918 -14.938   7.473  1.00  0.00     0.000 A 
HETATM   33  C   UNL     1      43.480 -14.074   6.539  1.00  0.00     0.002 A 
HETATM   34  C   UNL     1      43.126 -14.174   5.191  1.00  0.00     0.030 A 
ENDBRANCH   4  29
TORSDOF 7
ENDMDL
MODEL 4
REMARK VINA RESULT:      -7.9      1.803      2.509
REMARK  7 active torsions:
REMARK  status: ('A' for Active; 'I' for Inactive)
REMARK    1  A    between atoms: C_2  and  N_3 
REMARK       I    between atoms: N_3  and  C_4 
REMARK    2  A    between atoms: C_4  and  C_5 
REMARK    3  A    between atoms: N_8  and  C_10 
REMARK    4  A    between atoms: C_10  and  N_11 
REMARK    5  A    between atoms: C_13  and  C_14 
REMARK    6  A    between atoms: C_14  and  N_15 
REMARK    7  A    between atoms: N_22  and  C_23 
ROOT
HETATM    1  N   UNL     1      41.518 -11.666   5.491  1.00  0.00    -0.216 N 
HETATM    2  N   UNL     1      41.396 -10.981   4.298  1.00  0.00    -0.153 NA
HETATM    3  C   UNL     1      41.641 -11.877   3.376  1.00  0.00     0.160 A 
HETATM    4  N   UNL     1      41.897 -13.122   3.851  1.00  0.00    -0.272 N 
HETATM    5  C   UNL     1      41.848 -13.012   5.238  1.00  0.00     0.204 A 
HETATM    6  S   UNL     1      41.996 -14.169   6.427  1.00  0.00    -0.038 SA
ENDROOT
BRANCH   1   7
HETATM    7  C   UNL     1      41.487 -10.977   6.772  1.00  0.00     0.388 C 
BRANCH   7   8
HETATM    8  N   UNL     1      42.776 -10.256   7.052  1.00  0.00    -0.053 N 
HETATM    9  C   UNL     1      42.509  -9.094   7.980  1.00  0.00     0.237 C 
HETATM   10  C   UNL     1      43.793  -8.325   8.264  1.00  0.00     0.042 C 
HETATM   11  C   UNL     1      44.876  -9.232   8.848  1.00  0.00     0.081 C 
HETATM   12  C   UNL     1      45.117 -10.419   7.911  1.00  0.00     0.042 C 
HETATM   13  C   UNL     1      43.852 -11.188   7.549  1.00  0.00     0.237 C 
HETATM   14  H   UNL     1      43.085  -9.870   6.148  1.00  0.00     0.281 HD
BRANCH  11  15
HETATM   15  C   UNL     1      44.457  -9.693  10.240  1.00  0.00     0.221 C 
HETATM   16  N   UNL     1      43.693  -8.792  10.935  1.00  0.00    -0.361 N 
HETATM   17  H   UNL     1      43.659  -7.824  10.636  1.00  0.00     0.162 HD
HETATM   18  O   UNL     1      44.697 -10.831  10.633  1.00  0.00    -0.273 OA
BRANCH  16  19
HETATM   19  C   UNL     1      43.217  -9.075  12.278  1.00  0.00     0.118 C 
HETATM   20  C   UNL     1      43.199  -7.830  13.146  1.00  0.00     0.026 C 
ENDBRANCH  16  19
ENDBRANCH  11  15
ENDBRANCH   7   8
ENDBRANCH   1   7
BRANCH   3  21
HETATM   21  C   UNL     1      41.696 -11.502   1.897  1.00  0.00     0.315 C 
BRANCH  21  22
HETATM   22  N   UNL     1      40.503 -12.045   1.101  1.00  0.00    -0.064 N 
HETATM   23  H   UNL     1      39.943 -12.590   1.774  1.00  0.00     0.280 HD
HETATM   24  C   UNL     1      39.608 -10.950   0.562  1.00  0.00     0.235 C 
HETATM   25  C   UNL     1      38.371 -11.581  -0.064  1.00  0.00     0.028 C 
HETATM   26  C   UNL     1      38.741 -12.576  -1.158  1.00  0.00     0.003 C 
HETATM   27  C   UNL     1      39.725 -13.622  -0.645  1.00  0.00     0.028 C 
HETATM   28  C   UNL     1      40.947 -12.986   0.000  1.00  0.00     0.235 C 
ENDBRANCH  21  22
ENDBRANCH   3  21
BRANCH   4  29
HETATM   29  C   UNL     1      42.134 -14.287   3.086  1.00  0.00     0.043 A 
HETATM   30  C   UNL     1      43.353 -14.478   2.424  1.00  0.00     0.030 A 
HETATM   31  C   UNL     1      43.574 -15.623   1.656  1.00  0.00     0.002 A 
HETATM   32  C   UNL     1      42.581 -16.592   1.543  1.00  0.00     0.000 A 
HETATM   33  C   UNL     1      41.369 -16.422   2.203  1.00  0.00     0.002 A 
HETATM   34  C   UNL     1      41.144 -15.275   2.971  1.00  0.00     0.030 A 
ENDBRANCH   4  29
TORSDOF 7
ENDMDL
MODEL 5
REMARK VINA RESULT:      -7.8      3.326      8.354
REMARK  7 active torsions:
REMARK  status: ('A' for Active; 'I' for Inactive)
REMARK    1  A    between atoms: C_2  and  N_3 
REMARK       I    between atoms: N_3  and  C_4 
REMARK    2  A    between atoms: C_4  and  C_5 
REMARK    3  A    between atoms: N_8  and  C_10 
REMARK    4  A    between atoms: C_10  and  N_11 
REMARK    5  A    between atoms: C_13  and  C_14 
REMARK    6  A    between atoms: C_14  and  N_15 
REMARK    7  A    between atoms: N_22  and  C_23 
ROOT
HETATM    1  N   UNL     1      40.946 -12.532   4.580  1.00  0.00    -0.216 N 
HETATM    2  N   UNL     1      41.214 -13.716   5.239  1.00  0.00    -0.153 NA
HETATM    3  C   UNL     1      42.249 -13.447   5.994  1.00  0.00     0.160 A 
HETATM    4  N   UNL     1      42.689 -12.166   5.914  1.00  0.00    -0.272 N 
HETATM    5  C   UNL     1      41.869 -11.545   4.975  1.00  0.00     0.204 A 
HETATM    6  S   UNL     1      41.815  -9.963   4.457  1.00  0.00    -0.038 SA
ENDROOT
BRANCH   1   7
HETATM    7  C   UNL     1      39.963 -12.461   3.510  1.00  0.00     0.388 C 
BRANCH   7   8
HETATM    8  N   UNL     1      40.585 -12.688   2.160  1.00  0.00    -0.053 N 
HETATM    9  C   UNL     1      39.939 -13.888   1.506  1.00  0.00     0.237 C 
HETATM   10  C   UNL     1      40.566 -14.161   0.146  1.00  0.00     0.042 C 
HETATM   11  C   UNL     1      40.475 -12.943  -0.773  1.00  0.00     0.081 C 
HETATM   12  C   UNL     1      41.109 -11.730  -0.087  1.00  0.00     0.042 C 
HETATM   13  C   UNL     1      40.556 -11.447   1.305  1.00  0.00     0.237 C 
HETATM   14  H   UNL     1      41.571 -12.924   2.341  1.00  0.00     0.281 HD
BRANCH  11  15
HETATM   15  C   UNL     1      39.015 -12.684  -1.132  1.00  0.00     0.221 C 
HETATM   16  N   UNL     1      38.653 -11.362  -1.137  1.00  0.00    -0.361 N 
HETATM   17  H   UNL     1      39.244 -10.677  -0.680  1.00  0.00     0.162 HD
HETATM   18  O   UNL     1      38.278 -13.595  -1.499  1.00  0.00    -0.273 OA
BRANCH  16  19
HETATM   19  C   UNL     1      37.298 -10.945  -1.453  1.00  0.00     0.118 C 
HETATM   20  C   UNL     1      37.178 -10.451  -2.883  1.00  0.00     0.026 C 
ENDBRANCH  16  19
ENDBRANCH  11  15
ENDBRANCH   7   8
ENDBRANCH   1   7
BRANCH   3  21
HETATM   21  C   UNL     1      42.925 -14.530   6.830  1.00  0.00     0.315 C 
BRANCH  21  22
HETATM   22  N   UNL     1      42.927 -15.899   6.142  1.00  0.00    -0.064 N 
HETATM   23  H   UNL     1      41.935 -16.132   5.980  1.00  0.00     0.280 HD
HETATM   24  C   UNL     1      43.603 -15.878   4.788  1.00  0.00     0.235 C 
HETATM   25  C   UNL     1      43.409 -17.228   4.112  1.00  0.00     0.028 C 
HETATM   26  C   UNL     1      43.940 -18.368   4.972  1.00  0.00     0.003 C 
HETATM   27  C   UNL     1      43.337 -18.333   6.372  1.00  0.00     0.028 C 
HETATM   28  C   UNL     1      43.513 -16.974   7.033  1.00  0.00     0.235 C 
ENDBRANCH  21  22
ENDBRANCH   3  21
BRANCH   4  29
HETATM   29  C   UNL     1      43.744 -11.587   6.656  1.00  0.00     0.043 A 
HETATM   30  C   UNL     1      43.504 -10.979   7.895  1.00  0.00     0.030 A 
HETATM   31  C   UNL     1      44.549 -10.393   8.613  1.00  0.00     0.002 A 
HETATM   32  C   UNL     1      45.844 -10.411   8.105  1.00  0.00     0.000 A 
HETATM   33  C   UNL     1      46.100 -11.019   6.881  1.00  0.00     0.002 A 
HETATM   34  C   UNL     1      45.057 -11.605   6.158  1.00  0.00     0.030 A 
ENDBRANCH   4  29
TORSDOF 7
ENDMDL
MODEL 6
REMARK VINA RESULT:      -7.7      2.008      4.470
REMARK  7 active torsions:
REMARK  status: ('A' for Active; 'I' for Inactive)
REMARK    1  A    between atoms: C_2  and  N_3 
REMARK       I    between atoms: N_3  and  C_4 
REMARK    2  A    between atoms: C_4  and  C_5 
REMARK    3  A    between atoms: N_8  and  C_10 
REMARK    4  A    between atoms: C_10  and  N_11 
REMARK    5  A    between atoms: C_13  and  C_14 
REMARK    6  A    between atoms: C_14  and  N_15 
REMARK    7  A    between atoms: N_22  and  C_23 
ROOT
HETATM    1  N   UNL     1      41.669 -11.291   5.988  1.00  0.00    -0.216 N 
HETATM    2  N   UNL     1      41.466 -12.534   6.557  1.00  0.00    -0.153 NA
HETATM    3  C   UNL     1      41.274 -13.335   5.540  1.00  0.00     0.160 A 
HETATM    4  N   UNL     1      41.353 -12.736   4.325  1.00  0.00    -0.272 N 
HETATM    5  C   UNL     1      41.588 -11.388   4.585  1.00  0.00     0.204 A 
HETATM    6  S   UNL     1      41.861 -10.112   3.550  1.00  0.00    -0.038 SA
ENDROOT
BRANCH   1   7
HETATM    7  C   UNL     1      41.752 -10.086   6.799  1.00  0.00     0.388 C 
BRANCH   7   8
HETATM    8  N   UNL     1      43.165  -9.791   7.222  1.00  0.00    -0.053 N 
HETATM    9  C   UNL     1      43.169  -8.611   8.165  1.00  0.00     0.237 C 
HETATM   10  C   UNL     1      44.590  -8.269   8.594  1.00  0.00     0.042 C 
HETATM   11  C   UNL     1      45.288  -9.466   9.238  1.00  0.00     0.081 C 
HETATM   12  C   UNL     1      45.253 -10.662   8.283  1.00  0.00     0.042 C 
HETATM   13  C   UNL     1      43.857 -11.009   7.778  1.00  0.00     0.237 C 
HETATM   14  H   UNL     1      43.662  -9.509   6.365  1.00  0.00     0.281 HD
BRANCH  11  15
HETATM   15  C   UNL     1      44.616  -9.792  10.568  1.00  0.00     0.221 C 
HETATM   16  N   UNL     1      43.961  -8.738  11.151  1.00  0.00    -0.361 N 
HETATM   17  H   UNL     1      44.154  -7.792  10.841  1.00  0.00     0.162 HD
HETATM   18  O   UNL     1      44.579 -10.941  10.998  1.00  0.00    -0.273 OA
BRANCH  16  19
HETATM   19  C   UNL     1      43.274  -8.879  12.423  1.00  0.00     0.118 C 
HETATM   20  C   UNL     1      41.767  -8.939  12.247  1.00  0.00     0.026 C 
ENDBRANCH  16  19
ENDBRANCH  11  15
ENDBRANCH   7   8
ENDBRANCH   1   7
BRANCH   3  21
HETATM   21  C   UNL     1      40.920 -14.806   5.743  1.00  0.00     0.315 C 
BRANCH  21  22
HETATM   22  N   UNL     1      42.151 -15.719   5.745  1.00  0.00    -0.064 N 
HETATM   23  H   UNL     1      42.958 -15.100   5.576  1.00  0.00     0.280 HD
HETATM   24  C   UNL     1      42.382 -16.394   7.080  1.00  0.00     0.235 C 
HETATM   25  C   UNL     1      43.709 -17.140   7.039  1.00  0.00     0.028 C 
HETATM   26  C   UNL     1      43.748 -18.151   5.899  1.00  0.00     0.003 C 
HETATM   27  C   UNL     1      43.415 -17.494   4.564  1.00  0.00     0.028 C 
HETATM   28  C   UNL     1      42.100 -16.730   4.619  1.00  0.00     0.235 C 
ENDBRANCH  21  22
ENDBRANCH   3  21
BRANCH   4  29
HETATM   29  C   UNL     1      41.246 -13.365   3.064  1.00  0.00     0.043 A 
HETATM   30  C   UNL     1      40.019 -13.429   2.392  1.00  0.00     0.030 A 
HETATM   31  C   UNL     1      39.918 -14.068   1.154  1.00  0.00     0.002 A 
HETATM   32  C   UNL     1      41.041 -14.646   0.572  1.00  0.00     0.000 A 
HETATM   33  C   UNL     1      42.269 -14.583   1.221  1.00  0.00     0.002 A 
HETATM   34  C   UNL     1      42.373 -13.946   2.461  1.00  0.00     0.030 A 
ENDBRANCH   4  29
TORSDOF 7
ENDMDL
MODEL 7
REMARK VINA RESULT:      -7.7      3.896      8.683
REMARK  7 active torsions:
REMARK  status: ('A' for Active; 'I' for Inactive)
REMARK    1  A    between atoms: C_2  and  N_3 
REMARK       I    between atoms: N_3  and  C_4 
REMARK    2  A    between atoms: C_4  and  C_5 
REMARK    3  A    between atoms: N_8  and  C_10 
REMARK    4  A    between atoms: C_10  and  N_11 
REMARK    5  A    between atoms: C_13  and  C_14 
REMARK    6  A    between atoms: C_14  and  N_15 
REMARK    7  A    between atoms: N_22  and  C_23 
ROOT
HETATM    1  N   UNL     1      39.431 -11.994   2.536  1.00  0.00    -0.216 N 
HETATM    2  N   UNL     1      39.439 -13.275   3.051  1.00  0.00    -0.153 NA
HETATM    3  C   UNL     1      40.461 -13.297   3.867  1.00  0.00     0.160 A 
HETATM    4  N   UNL     1      41.134 -12.123   3.963  1.00  0.00    -0.272 N 
HETATM    5  C   UNL     1      40.497 -11.252   3.082  1.00  0.00     0.204 A 
HETATM    6  S   UNL     1      40.764  -9.639   2.764  1.00  0.00    -0.038 SA
ENDROOT
BRANCH   1   7
HETATM    7  C   UNL     1      38.539 -11.613   1.451  1.00  0.00     0.388 C 
BRANCH   7   8
HETATM    8  N   UNL     1      38.620 -12.572   0.296  1.00  0.00    -0.053 N 
HETATM    9  C   UNL     1      37.774 -12.055  -0.844  1.00  0.00     0.237 C 
HETATM   10  C   UNL     1      37.813 -13.018  -2.023  1.00  0.00     0.042 C 
HETATM   11  C   UNL     1      39.244 -13.271  -2.497  1.00  0.00     0.081 C 
HETATM   12  C   UNL     1      40.097 -13.768  -1.326  1.00  0.00     0.042 C 
HETATM   13  C   UNL     1      40.045 -12.868  -0.097  1.00  0.00     0.237 C 
HETATM   14  H   UNL     1      38.195 -13.449   0.629  1.00  0.00     0.281 HD
BRANCH  11  15
HETATM   15  C   UNL     1      39.814 -11.992  -3.101  1.00  0.00     0.221 C 
HETATM   16  N   UNL     1      38.888 -11.010  -3.340  1.00  0.00    -0.361 N 
HETATM   17  H   UNL     1      37.901 -11.243  -3.357  1.00  0.00     0.162 HD
HETATM   18  O   UNL     1      41.024 -11.837  -3.240  1.00  0.00    -0.273 OA
BRANCH  16  19
HETATM   19  C   UNL     1      39.265  -9.732  -3.918  1.00  0.00     0.118 C 
HETATM   20  C   UNL     1      38.134  -9.121  -4.725  1.00  0.00     0.026 C 
ENDBRANCH  16  19
ENDBRANCH  11  15
ENDBRANCH   7   8
ENDBRANCH   1   7
BRANCH   3  21
HETATM   21  C   UNL     1      40.878 -14.579   4.584  1.00  0.00     0.315 C 
BRANCH  21  22
HETATM   22  N   UNL     1      42.003 -15.327   3.859  1.00  0.00    -0.064 N 
HETATM   23  H   UNL     1      42.847 -14.746   3.979  1.00  0.00     0.280 HD
HETATM   24  C   UNL     1      42.303 -16.677   4.473  1.00  0.00     0.235 C 
HETATM   25  C   UNL     1      43.535 -17.268   3.800  1.00  0.00     0.028 C 
HETATM   26  C   UNL     1      43.351 -17.380   2.291  1.00  0.00     0.003 C 
HETATM   27  C   UNL     1      42.948 -16.042   1.682  1.00  0.00     0.028 C 
HETATM   28  C   UNL     1      41.731 -15.445   2.374  1.00  0.00     0.235 C 
ENDBRANCH  21  22
ENDBRANCH   3  21
BRANCH   4  29
HETATM   29  C   UNL     1      42.234 -11.845   4.806  1.00  0.00     0.043 A 
HETATM   30  C   UNL     1      42.045 -11.530   6.157  1.00  0.00     0.030 A 
HETATM   31  C   UNL     1      43.135 -11.239   6.979  1.00  0.00     0.002 A 
HETATM   32  C   UNL     1      44.427 -11.263   6.462  1.00  0.00     0.000 A 
HETATM   33  C   UNL     1      44.633 -11.583   5.125  1.00  0.00     0.002 A 
HETATM   34  C   UNL     1      43.543 -11.872   4.299  1.00  0.00     0.030 A 
ENDBRANCH   4  29
TORSDOF 7
ENDMDL
MODEL 8
REMARK VINA RESULT:      -7.7      2.948      9.674
REMARK  7 active torsions:
REMARK  status: ('A' for Active; 'I' for Inactive)
REMARK    1  A    between atoms: C_2  and  N_3 
REMARK       I    between atoms: N_3  and  C_4 
REMARK    2  A    between atoms: C_4  and  C_5 
REMARK    3  A    between atoms: N_8  and  C_10 
REMARK    4  A    between atoms: C_10  and  N_11 
REMARK    5  A    between atoms: C_13  and  C_14 
REMARK    6  A    between atoms: C_14  and  N_15 
REMARK    7  A    between atoms: N_22  and  C_23 
ROOT
HETATM    1  N   UNL     1      42.009 -11.161   6.528  1.00  0.00    -0.216 N 
HETATM    2  N   UNL     1      43.051 -10.539   7.188  1.00  0.00    -0.153 NA
HETATM    3  C   UNL     1      42.507  -9.489   7.748  1.00  0.00     0.160 A 
HETATM    4  N   UNL     1      41.173  -9.363   7.537  1.00  0.00    -0.272 N 
HETATM    5  C   UNL     1      40.819 -10.432   6.718  1.00  0.00     0.204 A 
HETATM    6  S   UNL     1      39.333 -10.916   6.143  1.00  0.00    -0.038 SA
ENDROOT
BRANCH   1   7
HETATM    7  C   UNL     1      42.237 -12.286   5.633  1.00  0.00     0.388 C 
BRANCH   7   8
HETATM    8  N   UNL     1      41.983 -13.603   6.312  1.00  0.00    -0.053 N 
HETATM    9  C   UNL     1      41.313 -14.546   5.340  1.00  0.00     0.237 C 
HETATM   10  C   UNL     1      41.017 -15.884   6.006  1.00  0.00     0.042 C 
HETATM   11  C   UNL     1      42.283 -16.521   6.577  1.00  0.00     0.081 C 
HETATM   12  C   UNL     1      42.965 -15.545   7.539  1.00  0.00     0.042 C 
HETATM   13  C   UNL     1      43.231 -14.169   6.938  1.00  0.00     0.237 C 
HETATM   14  H   UNL     1      41.312 -13.404   7.068  1.00  0.00     0.281 HD
BRANCH  11  15
HETATM   15  C   UNL     1      43.211 -16.923   5.436  1.00  0.00     0.221 C 
HETATM   16  N   UNL     1      42.577 -17.185   4.249  1.00  0.00    -0.361 N 
HETATM   17  H   UNL     1      41.576 -17.351   4.238  1.00  0.00     0.162 HD
HETATM   18  O   UNL     1      44.431 -16.890   5.564  1.00  0.00    -0.273 OA
BRANCH  16  19
HETATM   19  C   UNL     1      43.315 -17.586   3.064  1.00  0.00     0.118 C 
HETATM   20  C   UNL     1      43.273 -16.520   1.984  1.00  0.00     0.026 C 
ENDBRANCH  16  19
ENDBRANCH  11  15
ENDBRANCH   7   8
ENDBRANCH   1   7
BRANCH   3  21
HETATM   21  C   UNL     1      43.349  -8.469   8.511  1.00  0.00     0.315 C 
BRANCH  21  22
HETATM   22  N   UNL     1      42.930  -8.331   9.979  1.00  0.00    -0.064 N 
HETATM   23  H   UNL     1      41.997  -8.765  10.045  1.00  0.00     0.280 HD
HETATM   24  C   UNL     1      43.839  -9.086  10.925  1.00  0.00     0.235 C 
HETATM   25  C   UNL     1      43.253  -9.031  12.329  1.00  0.00     0.028 C 
HETATM   26  C   UNL     1      43.046  -7.595  12.796  1.00  0.00     0.003 C 
HETATM   27  C   UNL     1      42.216  -6.801  11.793  1.00  0.00     0.028 C 
HETATM   28  C   UNL     1      42.793  -6.879  10.388  1.00  0.00     0.235 C 
ENDBRANCH  21  22
ENDBRANCH   3  21
BRANCH   4  29
HETATM   29  C   UNL     1      40.323  -8.364   8.066  1.00  0.00     0.043 A 
HETATM   30  C   UNL     1      40.213  -7.111   7.450  1.00  0.00     0.030 A 
HETATM   31  C   UNL     1      39.385  -6.124   7.989  1.00  0.00     0.002 A 
HETATM   32  C   UNL     1      38.656  -6.378   9.147  1.00  0.00     0.000 A 
HETATM   33  C   UNL     1      38.748  -7.620   9.766  1.00  0.00     0.002 A 
HETATM   34  C   UNL     1      39.577  -8.610   9.230  1.00  0.00     0.030 A 
ENDBRANCH   4  29
TORSDOF 7
ENDMDL
MODEL 9
REMARK VINA RESULT:      -7.6      2.039      4.586
REMARK  7 active torsions:
REMARK  status: ('A' for Active; 'I' for Inactive)
REMARK    1  A    between atoms: C_2  and  N_3 
REMARK       I    between atoms: N_3  and  C_4 
REMARK    2  A    between atoms: C_4  and  C_5 
REMARK    3  A    between atoms: N_8  and  C_10 
REMARK    4  A    between atoms: C_10  and  N_11 
REMARK    5  A    between atoms: C_13  and  C_14 
REMARK    6  A    between atoms: C_14  and  N_15 
REMARK    7  A    between atoms: N_22  and  C_23 
ROOT
HETATM    1  N   UNL     1      40.796 -12.642   4.616  1.00  0.00    -0.216 N 
HETATM    2  N   UNL     1      41.957 -13.363   4.418  1.00  0.00    -0.153 NA
HETATM    3  C   UNL     1      41.952 -13.653   3.141  1.00  0.00     0.160 A 
HETATM    4  N   UNL     1      40.888 -13.165   2.455  1.00  0.00    -0.272 N 
HETATM    5  C   UNL     1      40.097 -12.516   3.400  1.00  0.00     0.204 A 
HETATM    6  S   UNL     1      38.691 -11.640   3.224  1.00  0.00    -0.038 SA
ENDROOT
BRANCH   1   7
HETATM    7  C   UNL     1      40.344 -12.276   5.950  1.00  0.00     0.388 C 
BRANCH   7   8
HETATM    8  N   UNL     1      40.558 -10.815   6.233  1.00  0.00    -0.053 N 
HETATM    9  C   UNL     1      39.480 -10.323   7.171  1.00  0.00     0.237 C 
HETATM   10  C   UNL     1      39.653  -8.838   7.458  1.00  0.00     0.042 C 
HETATM   11  C   UNL     1      41.036  -8.532   8.032  1.00  0.00     0.081 C 
HETATM   12  C   UNL     1      42.118  -9.059   7.086  1.00  0.00     0.042 C 
HETATM   13  C   UNL     1      41.956 -10.530   6.720  1.00  0.00     0.237 C 
HETATM   14  H   UNL     1      40.433 -10.333   5.332  1.00  0.00     0.281 HD
BRANCH  11  15
HETATM   15  C   UNL     1      41.158  -9.149   9.421  1.00  0.00     0.221 C 
HETATM   16  N   UNL     1      42.430  -9.520   9.773  1.00  0.00    -0.361 N 
HETATM   17  H   UNL     1      43.143  -9.612   9.058  1.00  0.00     0.162 HD
HETATM   18  O   UNL     1      40.199  -9.188  10.188  1.00  0.00    -0.273 OA
BRANCH  16  19
HETATM   19  C   UNL     1      42.717 -10.128  11.060  1.00  0.00     0.118 C 
HETATM   20  C   UNL     1      43.360  -9.143  12.020  1.00  0.00     0.026 C 
ENDBRANCH  16  19
ENDBRANCH  11  15
ENDBRANCH   7   8
ENDBRANCH   1   7
BRANCH   3  21
HETATM   21  C   UNL     1      43.035 -14.532   2.522  1.00  0.00     0.315 C 
BRANCH  21  22
HETATM   22  N   UNL     1      42.933 -15.998   2.958  1.00  0.00    -0.064 N 
HETATM   23  H   UNL     1      41.936 -16.159   3.167  1.00  0.00     0.280 HD
HETATM   24  C   UNL     1      43.318 -16.968   1.861  1.00  0.00     0.235 C 
HETATM   25  C   UNL     1      43.026 -18.388   2.326  1.00  0.00     0.028 C 
HETATM   26  C   UNL     1      43.753 -18.713   3.626  1.00  0.00     0.003 C 
HETATM   27  C   UNL     1      43.448 -17.680   4.705  1.00  0.00     0.028 C 
HETATM   28  C   UNL     1      43.718 -16.261   4.226  1.00  0.00     0.235 C 
ENDBRANCH  21  22
ENDBRANCH   3  21
BRANCH   4  29
HETATM   29  C   UNL     1      40.657 -13.274   1.065  1.00  0.00     0.043 A 
HETATM   30  C   UNL     1      40.018 -14.398   0.527  1.00  0.00     0.030 A 
HETATM   31  C   UNL     1      39.809 -14.507  -0.850  1.00  0.00     0.002 A 
HETATM   32  C   UNL     1      40.232 -13.492  -1.704  1.00  0.00     0.000 A 
HETATM   33  C   UNL     1      40.859 -12.365  -1.184  1.00  0.00     0.002 A 
HETATM   34  C   UNL     1      41.071 -12.255   0.193  1.00  0.00     0.030 A 
ENDBRANCH   4  29
TORSDOF 7
ENDMDL
MODEL 10
REMARK VINA RESULT:      -7.5      2.166      4.949
REMARK  7 active torsions:
REMARK  status: ('A' for Active; 'I' for Inactive)
REMARK    1  A    between atoms: C_2  and  N_3 
REMARK       I    between atoms: N_3  and  C_4 
REMARK    2  A    between atoms: C_4  and  C_5 
REMARK    3  A    between atoms: N_8  and  C_10 
REMARK    4  A    between atoms: C_10  and  N_11 
REMARK    5  A    between atoms: C_13  and  C_14 
REMARK    6  A    between atoms: C_14  and  N_15 
REMARK    7  A    between atoms: N_22  and  C_23 
ROOT
HETATM    1  N   UNL     1      42.353 -12.088   2.641  1.00  0.00    -0.216 N 
HETATM    2  N   UNL     1      42.661 -13.432   2.720  1.00  0.00    -0.153 NA
HETATM    3  C   UNL     1      42.077 -13.967   1.679  1.00  0.00     0.160 A 
HETATM    4  N   UNL     1      41.416 -13.086   0.887  1.00  0.00    -0.272 N 
HETATM    5  C   UNL     1      41.557 -11.846   1.505  1.00  0.00     0.204 A 
HETATM    6  S   UNL     1      41.056 -10.330   1.029  1.00  0.00    -0.038 SA
ENDROOT
BRANCH   1   7
HETATM    7  C   UNL     1      42.680 -11.166   3.719  1.00  0.00     0.388 C 
BRANCH   7   8
HETATM    8  N   UNL     1      43.426 -11.847   4.833  1.00  0.00    -0.053 N 
HETATM    9  C   UNL     1      44.647 -11.032   5.189  1.00  0.00     0.237 C 
HETATM   10  C   UNL     1      45.440 -11.709   6.299  1.00  0.00     0.042 C 
HETATM   11  C   UNL     1      44.582 -11.950   7.540  1.00  0.00     0.081 C 
HETATM   12  C   UNL     1      43.335 -12.754   7.160  1.00  0.00     0.042 C 
HETATM   13  C   UNL     1      42.536 -12.148   6.012  1.00  0.00     0.237 C 
HETATM   14  H   UNL     1      43.751 -12.745   4.446  1.00  0.00     0.281 HD
BRANCH  11  15
HETATM   15  C   UNL     1      44.214 -10.612   8.172  1.00  0.00     0.221 C 
HETATM   16  N   UNL     1      43.375 -10.701   9.253  1.00  0.00    -0.361 N 
HETATM   17  H   UNL     1      42.857 -11.556   9.419  1.00  0.00     0.162 HD
HETATM   18  O   UNL     1      44.735  -9.565   7.798  1.00  0.00    -0.273 OA
BRANCH  16  19
HETATM   19  C   UNL     1      42.924  -9.518   9.966  1.00  0.00     0.118 C 
HETATM   20  C   UNL     1      43.810  -9.205  11.158  1.00  0.00     0.026 C 
ENDBRANCH  16  19
ENDBRANCH  11  15
ENDBRANCH   7   8
ENDBRANCH   1   7
BRANCH   3  21
HETATM   21  C   UNL     1      42.098 -15.475   1.443  1.00  0.00     0.315 C 
BRANCH  21  22
HETATM   22  N   UNL     1      42.845 -16.239   2.542  1.00  0.00    -0.064 N 
HETATM   23  H   UNL     1      43.711 -15.706   2.714  1.00  0.00     0.280 HD
HETATM   24  C   UNL     1      42.084 -16.283   3.850  1.00  0.00     0.235 C 
HETATM   25  C   UNL     1      42.968 -16.908   4.920  1.00  0.00     0.028 C 
HETATM   26  C   UNL     1      43.442 -18.299   4.514  1.00  0.00     0.003 C 
HETATM   27  C   UNL     1      44.119 -18.276   3.149  1.00  0.00     0.028 C 
HETATM   28  C   UNL     1      43.241 -17.629   2.088  1.00  0.00     0.235 C 
ENDBRANCH  21  22
ENDBRANCH   3  21
BRANCH   4  29
HETATM   29  C   UNL     1      40.749 -13.374  -0.326  1.00  0.00     0.043 A 
HETATM   30  C   UNL     1      39.784 -14.387  -0.395  1.00  0.00     0.030 A 
HETATM   31  C   UNL     1      39.143 -14.678  -1.601  1.00  0.00     0.002 A 
HETATM   32  C   UNL     1      39.454 -13.957  -2.750  1.00  0.00     0.000 A 
HETATM   33  C   UNL     1      40.402 -12.942  -2.696  1.00  0.00     0.002 A 
HETATM   34  C   UNL     1      41.048 -12.650  -1.491  1.00  0.00     0.030 A 
ENDBRANCH   4  29
TORSDOF 7
ENDMDL
