MODEL 1
REMARK VINA RESULT:      -8.1      0.000      0.000
REMARK  6 active torsions:
REMARK  status: ('A' for Active; 'I' for Inactive)
REMARK    1  A    between atoms: C_2  and  O_3 
REMARK    2  A    between atoms: O_3  and  C_4 
REMARK    3  A    between atoms: C_7  and  N_8 
REMARK    4  A    between atoms: N_8  and  C_9 
REMARK    5  A    between atoms: C_9  and  C_10 
REMARK    6  A    between atoms: C_18  and  O_19 
ROOT
HETATM    1  C   UNL     1      43.294 -15.751   5.504  1.00  0.00     0.024 A 
HETATM    2  C   UNL     1      43.133 -16.252   6.905  1.00  0.00     0.253 A 
HETATM    3  O   UNL     1      42.910 -15.487   7.840  1.00  0.00    -0.268 OA
HETATM    4  N   UNL     1      43.241 -17.602   7.109  1.00  0.00    -0.322 N 
HETATM    5  C   UNL     1      43.485 -18.524   6.088  1.00  0.00     0.045 A 
HETATM    6  C   UNL     1      43.650 -18.062   4.780  1.00  0.00    -0.006 A 
HETATM    7  C   UNL     1      43.555 -19.885   6.374  1.00  0.00     0.033 A 
HETATM    8  C   UNL     1      43.778 -20.801   5.340  1.00  0.00     0.039 A 
HETATM    9  C   UNL     1      43.933 -20.353   4.026  1.00  0.00     0.069 A 
HETATM   10  C   UNL     1      43.879 -18.982   3.753  1.00  0.00     0.050 A 
HETATM   11  C   UNL     1      43.562 -16.627   4.517  1.00  0.00     0.027 A 
HETATM   12  H   UNL     1      43.124 -17.914   8.064  1.00  0.00     0.169 HD
ENDROOT
BRANCH   1  13
HETATM   13  C   UNL     1      43.132 -14.257   5.369  1.00  0.00     0.136 C 
BRANCH  13  14
HETATM   14  N   UNL     1      41.753 -13.905   5.027  1.00  0.00    -0.289 NA
HETATM   15  H   UNL     1      41.526 -12.947   5.284  1.00  0.00     0.128 HD
BRANCH  14  16
HETATM   16  C   UNL     1      41.255 -14.179   3.749  1.00  0.00     0.008 A 
HETATM   17  C   UNL     1      40.345 -15.239   3.615  1.00  0.00     0.026 A 
HETATM   18  C   UNL     1      39.834 -15.620   2.368  1.00  0.00     0.038 A 
HETATM   19  C   UNL     1      40.237 -14.950   1.218  1.00  0.00     0.068 A 
HETATM   20  C   UNL     1      41.164 -13.915   1.331  1.00  0.00     0.038 A 
HETATM   21  C   UNL     1      41.683 -13.546   2.580  1.00  0.00     0.026 A 
BRANCH  19  22
HETATM   22  O   UNL     1      39.810 -15.206  -0.056  1.00  0.00    -0.352 OA
BRANCH  22  23
HETATM   23  C   UNL     1      39.631 -14.084  -0.916  1.00  0.00     0.171 C 
HETATM   24  C   UNL     1      39.057 -14.584  -2.229  1.00  0.00     0.034 C 
ENDBRANCH  22  23
ENDBRANCH  19  22
ENDBRANCH  14  16
ENDBRANCH  13  14
ENDBRANCH   1  13
BRANCH   9  25
HETATM   25  O   UNL     1      44.144 -21.143   2.929  1.00  0.00    -0.356 OA
HETATM   26  C   UNL     1      43.730 -20.623   1.672  1.00  0.00     0.210 C 
ENDBRANCH   9  25
TORSDOF 6
ENDMDL
MODEL 2
REMARK VINA RESULT:      -7.6      3.723      6.070
REMARK  6 active torsions:
REMARK  status: ('A' for Active; 'I' for Inactive)
REMARK    1  A    between atoms: C_2  and  O_3 
REMARK    2  A    between atoms: O_3  and  C_4 
REMARK    3  A    between atoms: C_7  and  N_8 
REMARK    4  A    between atoms: N_8  and  C_9 
REMARK    5  A    between atoms: C_9  and  C_10 
REMARK    6  A    between atoms: C_18  and  O_19 
ROOT
HETATM    1  C   UNL     1      43.451 -15.381   6.069  1.00  0.00     0.024 A 
HETATM    2  C   UNL     1      43.295 -15.978   7.433  1.00  0.00     0.253 A 
HETATM    3  O   UNL     1      43.122 -15.276   8.426  1.00  0.00    -0.268 OA
HETATM    4  N   UNL     1      43.353 -17.343   7.535  1.00  0.00    -0.322 N 
HETATM    5  C   UNL     1      43.541 -18.195   6.444  1.00  0.00     0.045 A 
HETATM    6  C   UNL     1      43.700 -17.644   5.170  1.00  0.00    -0.006 A 
HETATM    7  C   UNL     1      43.562 -19.576   6.628  1.00  0.00     0.033 A 
HETATM    8  C   UNL     1      43.728 -20.420   5.525  1.00  0.00     0.039 A 
HETATM    9  C   UNL     1      43.876 -19.882   4.244  1.00  0.00     0.069 A 
HETATM   10  C   UNL     1      43.872 -18.494   4.074  1.00  0.00     0.050 A 
HETATM   11  C   UNL     1      43.665 -16.191   5.015  1.00  0.00     0.027 A 
HETATM   12  H   UNL     1      43.241 -17.719   8.467  1.00  0.00     0.169 HD
ENDROOT
BRANCH   1  13
HETATM   13  C   UNL     1      43.347 -13.876   6.047  1.00  0.00     0.136 C 
BRANCH  13  14
HETATM   14  N   UNL     1      44.584 -13.255   6.521  1.00  0.00    -0.289 NA
HETATM   15  H   UNL     1      45.344 -13.352   5.853  1.00  0.00     0.128 HD
BRANCH  14  16
HETATM   16  C   UNL     1      44.566 -11.950   7.026  1.00  0.00     0.008 A 
HETATM   17  C   UNL     1      43.335 -11.277   7.055  1.00  0.00     0.026 A 
HETATM   18  C   UNL     1      43.229  -9.951   7.494  1.00  0.00     0.038 A 
HETATM   19  C   UNL     1      44.366  -9.262   7.903  1.00  0.00     0.068 A 
HETATM   20  C   UNL     1      45.600  -9.906   7.850  1.00  0.00     0.038 A 
HETATM   21  C   UNL     1      45.703 -11.229   7.397  1.00  0.00     0.026 A 
BRANCH  19  22
HETATM   22  O   UNL     1      44.405  -7.975   8.365  1.00  0.00    -0.352 OA
BRANCH  22  23
HETATM   23  C   UNL     1      43.164  -7.388   8.749  1.00  0.00     0.171 C 
HETATM   24  C   UNL     1      43.071  -7.434  10.264  1.00  0.00     0.034 C 
ENDBRANCH  22  23
ENDBRANCH  19  22
ENDBRANCH  14  16
ENDBRANCH  13  14
ENDBRANCH   1  13
BRANCH   9  25
HETATM   25  O   UNL     1      44.036 -20.596   3.088  1.00  0.00    -0.356 OA
HETATM   26  C   UNL     1      43.341 -20.125   1.940  1.00  0.00     0.210 C 
ENDBRANCH   9  25
TORSDOF 6
ENDMDL
MODEL 3
REMARK VINA RESULT:      -7.6      4.281      6.864
REMARK  6 active torsions:
REMARK  status: ('A' for Active; 'I' for Inactive)
REMARK    1  A    between atoms: C_2  and  O_3 
REMARK    2  A    between atoms: O_3  and  C_4 
REMARK    3  A    between atoms: C_7  and  N_8 
REMARK    4  A    between atoms: N_8  and  C_9 
REMARK    5  A    between atoms: C_9  and  C_10 
REMARK    6  A    between atoms: C_18  and  O_19 
ROOT
HETATM    1  C   UNL     1      43.437 -14.470   5.913  1.00  0.00     0.024 A 
HETATM    2  C   UNL     1      42.926 -13.956   4.603  1.00  0.00     0.253 A 
HETATM    3  O   UNL     1      42.601 -12.781   4.456  1.00  0.00    -0.268 OA
HETATM    4  N   UNL     1      42.835 -14.848   3.567  1.00  0.00    -0.322 N 
HETATM    5  C   UNL     1      43.196 -16.195   3.668  1.00  0.00     0.045 A 
HETATM    6  C   UNL     1      43.661 -16.684   4.891  1.00  0.00    -0.006 A 
HETATM    7  C   UNL     1      43.098 -17.032   2.560  1.00  0.00     0.033 A 
HETATM    8  C   UNL     1      43.483 -18.373   2.667  1.00  0.00     0.039 A 
HETATM    9  C   UNL     1      43.961 -18.872   3.882  1.00  0.00     0.069 A 
HETATM   10  C   UNL     1      44.038 -18.026   4.993  1.00  0.00     0.050 A 
HETATM   11  C   UNL     1      43.757 -15.773   6.031  1.00  0.00     0.027 A 
HETATM   12  H   UNL     1      42.491 -14.474   2.693  1.00  0.00     0.169 HD
ENDROOT
BRANCH   1  13
HETATM   13  C   UNL     1      43.530 -13.415   6.986  1.00  0.00     0.136 C 
BRANCH  13  14
HETATM   14  N   UNL     1      44.686 -12.543   6.771  1.00  0.00    -0.289 NA
HETATM   15  H   UNL     1      45.018 -12.574   5.810  1.00  0.00     0.128 HD
BRANCH  14  16
HETATM   16  C   UNL     1      44.658 -11.217   7.216  1.00  0.00     0.008 A 
HETATM   17  C   UNL     1      45.823 -10.698   7.801  1.00  0.00     0.026 A 
HETATM   18  C   UNL     1      45.872  -9.399   8.322  1.00  0.00     0.038 A 
HETATM   19  C   UNL     1      44.741  -8.591   8.279  1.00  0.00     0.068 A 
HETATM   20  C   UNL     1      43.567  -9.103   7.730  1.00  0.00     0.038 A 
HETATM   21  C   UNL     1      43.519 -10.408   7.221  1.00  0.00     0.026 A 
BRANCH  19  22
HETATM   22  O   UNL     1      44.652  -7.305   8.736  1.00  0.00    -0.352 OA
BRANCH  22  23
HETATM   23  C   UNL     1      43.368  -6.861   9.170  1.00  0.00     0.171 C 
HETATM   24  C   UNL     1      43.123  -7.417  10.561  1.00  0.00     0.034 C 
ENDBRANCH  22  23
ENDBRANCH  19  22
ENDBRANCH  14  16
ENDBRANCH  13  14
ENDBRANCH   1  13
BRANCH   9  25
HETATM   25  O   UNL     1      44.377 -20.154   4.113  1.00  0.00    -0.356 OA
HETATM   26  C   UNL     1      44.003 -20.737   5.356  1.00  0.00     0.210 C 
ENDBRANCH   9  25
TORSDOF 6
ENDMDL
MODEL 4
REMARK VINA RESULT:      -7.5      1.407      1.931
REMARK  6 active torsions:
REMARK  status: ('A' for Active; 'I' for Inactive)
REMARK    1  A    between atoms: C_2  and  O_3 
REMARK    2  A    between atoms: O_3  and  C_4 
REMARK    3  A    between atoms: C_7  and  N_8 
REMARK    4  A    between atoms: N_8  and  C_9 
REMARK    5  A    between atoms: C_9  and  C_10 
REMARK    6  A    between atoms: C_18  and  O_19 
ROOT
HETATM    1  C   UNL     1      43.104 -14.956   3.687  1.00  0.00     0.024 A 
HETATM    2  C   UNL     1      43.142 -14.975   5.184  1.00  0.00     0.253 A 
HETATM    3  O   UNL     1      42.983 -13.951   5.844  1.00  0.00    -0.268 OA
HETATM    4  N   UNL     1      43.359 -16.182   5.795  1.00  0.00    -0.322 N 
HETATM    5  C   UNL     1      43.540 -17.381   5.101  1.00  0.00     0.045 A 
HETATM    6  C   UNL     1      43.520 -17.368   3.704  1.00  0.00    -0.006 A 
HETATM    7  C   UNL     1      43.731 -18.572   5.797  1.00  0.00     0.033 A 
HETATM    8  C   UNL     1      43.888 -19.770   5.092  1.00  0.00     0.039 A 
HETATM    9  C   UNL     1      43.858 -19.773   3.696  1.00  0.00     0.069 A 
HETATM   10  C   UNL     1      43.684 -18.568   3.007  1.00  0.00     0.050 A 
HETATM   11  C   UNL     1      43.310 -16.100   3.008  1.00  0.00     0.027 A 
HETATM   12  H   UNL     1      43.376 -16.166   6.806  1.00  0.00     0.169 HD
ENDROOT
BRANCH   1  13
HETATM   13  C   UNL     1      42.832 -13.593   3.102  1.00  0.00     0.136 C 
BRANCH  13  14
HETATM   14  N   UNL     1      41.402 -13.398   2.861  1.00  0.00    -0.289 NA
HETATM   15  H   UNL     1      41.065 -12.514   3.236  1.00  0.00     0.128 HD
BRANCH  14  16
HETATM   16  C   UNL     1      40.872 -13.597   1.582  1.00  0.00     0.008 A 
HETATM   17  C   UNL     1      40.277 -14.838   1.306  1.00  0.00     0.026 A 
HETATM   18  C   UNL     1      39.767 -15.146   0.038  1.00  0.00     0.038 A 
HETATM   19  C   UNL     1      39.856 -14.216  -0.992  1.00  0.00     0.068 A 
HETATM   20  C   UNL     1      40.473 -12.991  -0.742  1.00  0.00     0.038 A 
HETATM   21  C   UNL     1      40.993 -12.692   0.525  1.00  0.00     0.026 A 
BRANCH  19  22
HETATM   22  O   UNL     1      39.391 -14.379  -2.267  1.00  0.00    -0.352 OA
BRANCH  22  23
HETATM   23  C   UNL     1      38.827 -13.233  -2.901  1.00  0.00     0.171 C 
HETATM   24  C   UNL     1      37.323 -13.275  -2.696  1.00  0.00     0.034 C 
ENDBRANCH  22  23
ENDBRANCH  19  22
ENDBRANCH  14  16
ENDBRANCH  13  14
ENDBRANCH   1  13
BRANCH   9  25
HETATM   25  O   UNL     1      43.989 -20.874   2.893  1.00  0.00    -0.356 OA
HETATM   26  C   UNL     1      43.658 -20.711   1.519  1.00  0.00     0.210 C 
ENDBRANCH   9  25
TORSDOF 6
ENDMDL
MODEL 5
REMARK VINA RESULT:      -7.4      3.550      6.652
REMARK  6 active torsions:
REMARK  status: ('A' for Active; 'I' for Inactive)
REMARK    1  A    between atoms: C_2  and  O_3 
REMARK    2  A    between atoms: O_3  and  C_4 
REMARK    3  A    between atoms: C_7  and  N_8 
REMARK    4  A    between atoms: N_8  and  C_9 
REMARK    5  A    between atoms: C_9  and  C_10 
REMARK    6  A    between atoms: C_18  and  O_19 
ROOT
HETATM    1  C   UNL     1      42.664 -13.876   3.631  1.00  0.00     0.024 A 
HETATM    2  C   UNL     1      42.406 -14.181   2.188  1.00  0.00     0.253 A 
HETATM    3  O   UNL     1      42.035 -13.311   1.404  1.00  0.00    -0.268 OA
HETATM    4  N   UNL     1      42.602 -15.471   1.771  1.00  0.00    -0.322 N 
HETATM    5  C   UNL     1      43.030 -16.502   2.611  1.00  0.00     0.045 A 
HETATM    6  C   UNL     1      43.259 -16.228   3.961  1.00  0.00    -0.006 A 
HETATM    7  C   UNL     1      43.230 -17.783   2.103  1.00  0.00     0.033 A 
HETATM    8  C   UNL     1      43.680 -18.802   2.950  1.00  0.00     0.039 A 
HETATM    9  C   UNL     1      43.924 -18.539   4.299  1.00  0.00     0.069 A 
HETATM   10  C   UNL     1      43.702 -17.252   4.802  1.00  0.00     0.050 A 
HETATM   11  C   UNL     1      43.045 -14.869   4.457  1.00  0.00     0.027 A 
HETATM   12  H   UNL     1      42.425 -15.648   0.791  1.00  0.00     0.169 HD
ENDROOT
BRANCH   1  13
HETATM   13  C   UNL     1      42.450 -12.428   3.995  1.00  0.00     0.136 C 
BRANCH  13  14
HETATM   14  N   UNL     1      43.725 -11.752   4.243  1.00  0.00    -0.289 NA
HETATM   15  H   UNL     1      43.869 -10.963   3.618  1.00  0.00     0.128 HD
BRANCH  14  16
HETATM   16  C   UNL     1      44.087 -11.393   5.545  1.00  0.00     0.008 A 
HETATM   17  C   UNL     1      43.082 -10.904   6.393  1.00  0.00     0.026 A 
HETATM   18  C   UNL     1      43.361 -10.471   7.696  1.00  0.00     0.038 A 
HETATM   19  C   UNL     1      44.666 -10.506   8.175  1.00  0.00     0.068 A 
HETATM   20  C   UNL     1      45.680 -10.960   7.334  1.00  0.00     0.038 A 
HETATM   21  C   UNL     1      45.399 -11.380   6.026  1.00  0.00     0.026 A 
BRANCH  19  22
HETATM   22  O   UNL     1      45.076 -10.129   9.424  1.00  0.00    -0.352 OA
BRANCH  22  23
HETATM   23  C   UNL     1      44.169 -10.359  10.499  1.00  0.00     0.171 C 
HETATM   24  C   UNL     1      43.997  -9.054  11.257  1.00  0.00     0.034 C 
ENDBRANCH  22  23
ENDBRANCH  19  22
ENDBRANCH  14  16
ENDBRANCH  13  14
ENDBRANCH   1  13
BRANCH   9  25
HETATM   25  O   UNL     1      44.373 -19.441   5.224  1.00  0.00    -0.356 OA
HETATM   26  C   UNL     1      43.960 -20.792   5.058  1.00  0.00     0.210 C 
ENDBRANCH   9  25
TORSDOF 6
ENDMDL
MODEL 6
REMARK VINA RESULT:      -7.4      2.910      6.894
REMARK  6 active torsions:
REMARK  status: ('A' for Active; 'I' for Inactive)
REMARK    1  A    between atoms: C_2  and  O_3 
REMARK    2  A    between atoms: O_3  and  C_4 
REMARK    3  A    between atoms: C_7  and  N_8 
REMARK    4  A    between atoms: N_8  and  C_9 
REMARK    5  A    between atoms: C_9  and  C_10 
REMARK    6  A    between atoms: C_18  and  O_19 
ROOT
HETATM    1  C   UNL     1      41.641 -12.894   4.585  1.00  0.00     0.024 A 
HETATM    2  C   UNL     1      42.612 -12.545   3.500  1.00  0.00     0.253 A 
HETATM    3  O   UNL     1      42.343 -12.723   2.314  1.00  0.00    -0.268 OA
HETATM    4  N   UNL     1      43.817 -12.015   3.878  1.00  0.00    -0.322 N 
HETATM    5  C   UNL     1      44.179 -11.781   5.207  1.00  0.00     0.045 A 
HETATM    6  C   UNL     1      43.283 -12.117   6.225  1.00  0.00    -0.006 A 
HETATM    7  C   UNL     1      45.416 -11.215   5.508  1.00  0.00     0.033 A 
HETATM    8  C   UNL     1      45.758 -10.965   6.841  1.00  0.00     0.039 A 
HETATM    9  C   UNL     1      44.866 -11.284   7.868  1.00  0.00     0.069 A 
HETATM   10  C   UNL     1      43.635 -11.870   7.555  1.00  0.00     0.050 A 
HETATM   11  C   UNL     1      41.992 -12.703   5.870  1.00  0.00     0.027 A 
HETATM   12  H   UNL     1      44.453 -11.785   3.126  1.00  0.00     0.169 HD
ENDROOT
BRANCH   1  13
HETATM   13  C   UNL     1      40.332 -13.444   4.076  1.00  0.00     0.136 C 
BRANCH  13  14
HETATM   14  N   UNL     1      40.172 -14.851   4.444  1.00  0.00    -0.289 NA
HETATM   15  H   UNL     1      39.240 -15.200   4.235  1.00  0.00     0.128 HD
BRANCH  14  16
HETATM   16  C   UNL     1      41.127 -15.794   4.045  1.00  0.00     0.008 A 
HETATM   17  C   UNL     1      42.022 -16.269   5.015  1.00  0.00     0.026 A 
HETATM   18  C   UNL     1      43.043 -17.173   4.696  1.00  0.00     0.038 A 
HETATM   19  C   UNL     1      43.198 -17.613   3.386  1.00  0.00     0.068 A 
HETATM   20  C   UNL     1      42.337 -17.125   2.405  1.00  0.00     0.038 A 
HETATM   21  C   UNL     1      41.324 -16.210   2.726  1.00  0.00     0.026 A 
BRANCH  19  22
HETATM   22  O   UNL     1      44.139 -18.500   2.939  1.00  0.00    -0.352 OA
BRANCH  22  23
HETATM   23  C   UNL     1      43.858 -19.886   3.121  1.00  0.00     0.171 C 
HETATM   24  C   UNL     1      43.588 -20.495   1.757  1.00  0.00     0.034 C 
ENDBRANCH  22  23
ENDBRANCH  19  22
ENDBRANCH  14  16
ENDBRANCH  13  14
ENDBRANCH   1  13
BRANCH   9  25
HETATM   25  O   UNL     1      45.076 -11.082   9.204  1.00  0.00    -0.356 OA
HETATM   26  C   UNL     1      44.063 -10.382   9.916  1.00  0.00     0.210 C 
ENDBRANCH   9  25
TORSDOF 6
ENDMDL
MODEL 7
REMARK VINA RESULT:      -7.2      2.735      3.914
REMARK  6 active torsions:
REMARK  status: ('A' for Active; 'I' for Inactive)
REMARK    1  A    between atoms: C_2  and  O_3 
REMARK    2  A    between atoms: O_3  and  C_4 
REMARK    3  A    between atoms: C_7  and  N_8 
REMARK    4  A    between atoms: N_8  and  C_9 
REMARK    5  A    between atoms: C_9  and  C_10 
REMARK    6  A    between atoms: C_18  and  O_19 
ROOT
HETATM    1  C   UNL     1      40.894 -15.138   2.746  1.00  0.00     0.024 A 
HETATM    2  C   UNL     1      41.364 -14.606   4.065  1.00  0.00     0.253 A 
HETATM    3  O   UNL     1      40.916 -13.562   4.533  1.00  0.00    -0.268 OA
HETATM    4  N   UNL     1      42.315 -15.329   4.735  1.00  0.00    -0.322 N 
HETATM    5  C   UNL     1      42.858 -16.525   4.259  1.00  0.00     0.045 A 
HETATM    6  C   UNL     1      42.435 -17.021   3.024  1.00  0.00    -0.006 A 
HETATM    7  C   UNL     1      43.804 -17.215   5.014  1.00  0.00     0.033 A 
HETATM    8  C   UNL     1      44.325 -18.423   4.538  1.00  0.00     0.039 A 
HETATM    9  C   UNL     1      43.900 -18.936   3.309  1.00  0.00     0.069 A 
HETATM   10  C   UNL     1      42.963 -18.225   2.552  1.00  0.00     0.050 A 
HETATM   11  C   UNL     1      41.435 -16.273   2.263  1.00  0.00     0.027 A 
HETATM   12  H   UNL     1      42.612 -14.949   5.624  1.00  0.00     0.169 HD
ENDROOT
BRANCH   1  13
HETATM   13  C   UNL     1      39.828 -14.294   2.094  1.00  0.00     0.136 C 
BRANCH  13  14
HETATM   14  N   UNL     1      39.659 -14.653   0.685  1.00  0.00    -0.289 NA
HETATM   15  H   UNL     1      38.753 -15.075   0.502  1.00  0.00     0.128 HD
BRANCH  14  16
HETATM   16  C   UNL     1      39.956 -13.722  -0.317  1.00  0.00     0.008 A 
HETATM   17  C   UNL     1      39.778 -14.119  -1.651  1.00  0.00     0.026 A 
HETATM   18  C   UNL     1      40.099 -13.273  -2.721  1.00  0.00     0.038 A 
HETATM   19  C   UNL     1      40.620 -12.007  -2.474  1.00  0.00     0.068 A 
HETATM   20  C   UNL     1      40.832 -11.611  -1.155  1.00  0.00     0.038 A 
HETATM   21  C   UNL     1      40.522 -12.466  -0.088  1.00  0.00     0.026 A 
BRANCH  19  22
HETATM   22  O   UNL     1      40.963 -11.079  -3.418  1.00  0.00    -0.352 OA
BRANCH  22  23
HETATM   23  C   UNL     1      40.870  -9.708  -3.039  1.00  0.00     0.171 C 
HETATM   24  C   UNL     1      41.123  -8.860  -4.273  1.00  0.00     0.034 C 
ENDBRANCH  22  23
ENDBRANCH  19  22
ENDBRANCH  14  16
ENDBRANCH  13  14
ENDBRANCH   1  13
BRANCH   9  25
HETATM   25  O   UNL     1      44.322 -20.106   2.740  1.00  0.00    -0.356 OA
HETATM   26  C   UNL     1      43.564 -20.597   1.641  1.00  0.00     0.210 C 
ENDBRANCH   9  25
TORSDOF 6
ENDMDL
MODEL 8
REMARK VINA RESULT:      -7.1      2.251      7.765
REMARK  6 active torsions:
REMARK  status: ('A' for Active; 'I' for Inactive)
REMARK    1  A    between atoms: C_2  and  O_3 
REMARK    2  A    between atoms: O_3  and  C_4 
REMARK    3  A    between atoms: C_7  and  N_8 
REMARK    4  A    between atoms: N_8  and  C_9 
REMARK    5  A    between atoms: C_9  and  C_10 
REMARK    6  A    between atoms: C_18  and  O_19 
ROOT
HETATM    1  C   UNL     1      40.719 -13.948   2.113  1.00  0.00     0.024 A 
HETATM    2  C   UNL     1      39.954 -15.161   1.684  1.00  0.00     0.253 A 
HETATM    3  O   UNL     1      39.647 -16.043   2.482  1.00  0.00    -0.268 OA
HETATM    4  N   UNL     1      39.605 -15.253   0.362  1.00  0.00    -0.322 N 
HETATM    5  C   UNL     1      39.917 -14.281  -0.592  1.00  0.00     0.045 A 
HETATM    6  C   UNL     1      40.642 -13.153  -0.202  1.00  0.00    -0.006 A 
HETATM    7  C   UNL     1      39.503 -14.437  -1.913  1.00  0.00     0.033 A 
HETATM    8  C   UNL     1      39.802 -13.446  -2.855  1.00  0.00     0.039 A 
HETATM    9  C   UNL     1      40.516 -12.307  -2.475  1.00  0.00     0.069 A 
HETATM   10  C   UNL     1      40.943 -12.171  -1.149  1.00  0.00     0.050 A 
HETATM   11  C   UNL     1      41.053 -13.021   1.195  1.00  0.00     0.027 A 
HETATM   12  H   UNL     1      39.086 -16.080   0.100  1.00  0.00     0.169 HD
ENDROOT
BRANCH   1  13
HETATM   13  C   UNL     1      41.036 -13.918   3.587  1.00  0.00     0.136 C 
BRANCH  13  14
HETATM   14  N   UNL     1      42.468 -14.105   3.823  1.00  0.00    -0.289 NA
HETATM   15  H   UNL     1      42.805 -13.551   4.606  1.00  0.00     0.128 HD
BRANCH  14  16
HETATM   16  C   UNL     1      43.005 -15.396   3.894  1.00  0.00     0.008 A 
HETATM   17  C   UNL     1      43.480 -15.838   5.138  1.00  0.00     0.026 A 
HETATM   18  C   UNL     1      44.081 -17.094   5.293  1.00  0.00     0.038 A 
HETATM   19  C   UNL     1      44.231 -17.934   4.194  1.00  0.00     0.068 A 
HETATM   20  C   UNL     1      43.792 -17.495   2.947  1.00  0.00     0.038 A 
HETATM   21  C   UNL     1      43.204 -16.232   2.793  1.00  0.00     0.026 A 
BRANCH  19  22
HETATM   22  O   UNL     1      44.784 -19.184   4.205  1.00  0.00    -0.352 OA
BRANCH  22  23
HETATM   23  C   UNL     1      43.888 -20.288   4.102  1.00  0.00     0.171 C 
HETATM   24  C   UNL     1      43.734 -20.900   5.483  1.00  0.00     0.034 C 
ENDBRANCH  22  23
ENDBRANCH  19  22
ENDBRANCH  14  16
ENDBRANCH  13  14
ENDBRANCH   1  13
BRANCH   9  25
HETATM   25  O   UNL     1      40.862 -11.267  -3.293  1.00  0.00    -0.356 OA
HETATM   26  C   UNL     1      40.967  -9.982  -2.692  1.00  0.00     0.210 C 
ENDBRANCH   9  25
TORSDOF 6
ENDMDL
MODEL 9
REMARK VINA RESULT:      -7.0      2.608      4.089
REMARK  6 active torsions:
REMARK  status: ('A' for Active; 'I' for Inactive)
REMARK    1  A    between atoms: C_2  and  O_3 
REMARK    2  A    between atoms: O_3  and  C_4 
REMARK    3  A    between atoms: C_7  and  N_8 
REMARK    4  A    between atoms: N_8  and  C_9 
REMARK    5  A    between atoms: C_9  and  C_10 
REMARK    6  A    between atoms: C_18  and  O_19 
ROOT
HETATM    1  C   UNL     1      42.202 -14.614   2.070  1.00  0.00     0.024 A 
HETATM    2  C   UNL     1      42.330 -13.946   3.404  1.00  0.00     0.253 A 
HETATM    3  O   UNL     1      42.004 -12.773   3.570  1.00  0.00    -0.268 OA
HETATM    4  N   UNL     1      42.826 -14.694   4.439  1.00  0.00    -0.322 N 
HETATM    5  C   UNL     1      43.207 -16.033   4.316  1.00  0.00     0.045 A 
HETATM    6  C   UNL     1      43.102 -16.658   3.072  1.00  0.00    -0.006 A 
HETATM    7  C   UNL     1      43.678 -16.732   5.425  1.00  0.00     0.033 A 
HETATM    8  C   UNL     1      44.036 -18.078   5.295  1.00  0.00     0.039 A 
HETATM    9  C   UNL     1      43.925 -18.719   4.058  1.00  0.00     0.069 A 
HETATM   10  C   UNL     1      43.468 -18.001   2.948  1.00  0.00     0.050 A 
HETATM   11  C   UNL     1      42.597 -15.894   1.933  1.00  0.00     0.027 A 
HETATM   12  H   UNL     1      42.899 -14.219   5.329  1.00  0.00     0.169 HD
ENDROOT
BRANCH   1  13
HETATM   13  C   UNL     1      41.622 -13.725   0.998  1.00  0.00     0.136 C 
BRANCH  13  14
HETATM   14  N   UNL     1      40.917 -14.512  -0.015  1.00  0.00    -0.289 NA
HETATM   15  H   UNL     1      40.688 -15.446   0.314  1.00  0.00     0.128 HD
BRANCH  14  16
HETATM   16  C   UNL     1      39.817 -13.967  -0.686  1.00  0.00     0.008 A 
HETATM   17  C   UNL     1      39.390 -14.599  -1.864  1.00  0.00     0.026 A 
HETATM   18  C   UNL     1      38.332 -14.094  -2.630  1.00  0.00     0.038 A 
HETATM   19  C   UNL     1      37.682 -12.929  -2.236  1.00  0.00     0.068 A 
HETATM   20  C   UNL     1      38.115 -12.273  -1.086  1.00  0.00     0.038 A 
HETATM   21  C   UNL     1      39.184 -12.774  -0.329  1.00  0.00     0.026 A 
BRANCH  19  22
HETATM   22  O   UNL     1      36.630 -12.336  -2.879  1.00  0.00    -0.352 OA
BRANCH  22  23
HETATM   23  C   UNL     1      36.615 -10.911  -2.913  1.00  0.00     0.171 C 
HETATM   24  C   UNL     1      35.250 -10.466  -3.406  1.00  0.00     0.034 C 
ENDBRANCH  22  23
ENDBRANCH  19  22
ENDBRANCH  14  16
ENDBRANCH  13  14
ENDBRANCH   1  13
BRANCH   9  25
HETATM   25  O   UNL     1      44.231 -20.028   3.803  1.00  0.00    -0.356 OA
HETATM   26  C   UNL     1      43.977 -20.963   4.844  1.00  0.00     0.210 C 
ENDBRANCH   9  25
TORSDOF 6
ENDMDL
MODEL 10
REMARK VINA RESULT:      -7.0     13.240     15.779
REMARK  6 active torsions:
REMARK  status: ('A' for Active; 'I' for Inactive)
REMARK    1  A    between atoms: C_2  and  O_3 
REMARK    2  A    between atoms: O_3  and  C_4 
REMARK    3  A    between atoms: C_7  and  N_8 
REMARK    4  A    between atoms: N_8  and  C_9 
REMARK    5  A    between atoms: C_9  and  C_10 
REMARK    6  A    between atoms: C_18  and  O_19 
ROOT
HETATM    1  C   UNL     1      47.220 -28.430  -0.855  1.00  0.00     0.024 A 
HETATM    2  C   UNL     1      47.458 -28.522   0.620  1.00  0.00     0.253 A 
HETATM    3  O   UNL     1      46.696 -27.997   1.428  1.00  0.00    -0.268 OA
HETATM    4  N   UNL     1      48.559 -29.220   1.040  1.00  0.00    -0.322 N 
HETATM    5  C   UNL     1      49.458 -29.846   0.172  1.00  0.00     0.045 A 
HETATM    6  C   UNL     1      49.250 -29.752  -1.206  1.00  0.00    -0.006 A 
HETATM    7  C   UNL     1      50.542 -30.559   0.679  1.00  0.00     0.033 A 
HETATM    8  C   UNL     1      51.423 -31.200  -0.199  1.00  0.00     0.039 A 
HETATM    9  C   UNL     1      51.219 -31.124  -1.579  1.00  0.00     0.069 A 
HETATM   10  C   UNL     1      50.138 -30.390  -2.077  1.00  0.00     0.050 A 
HETATM   11  C   UNL     1      48.098 -29.001  -1.702  1.00  0.00     0.027 A 
HETATM   12  H   UNL     1      48.694 -29.270   2.041  1.00  0.00     0.169 HD
ENDROOT
BRANCH   1  13
HETATM   13  C   UNL     1      45.971 -27.669  -1.224  1.00  0.00     0.136 C 
BRANCH  13  14
HETATM   14  N   UNL     1      44.808 -28.555  -1.272  1.00  0.00    -0.289 NA
HETATM   15  H   UNL     1      43.949 -28.078  -1.009  1.00  0.00     0.128 HD
BRANCH  14  16
HETATM   16  C   UNL     1      44.577 -29.349  -2.402  1.00  0.00     0.008 A 
HETATM   17  C   UNL     1      44.402 -30.727  -2.207  1.00  0.00     0.026 A 
HETATM   18  C   UNL     1      44.218 -31.606  -3.283  1.00  0.00     0.038 A 
HETATM   19  C   UNL     1      44.218 -31.120  -4.586  1.00  0.00     0.068 A 
HETATM   20  C   UNL     1      44.422 -29.758  -4.796  1.00  0.00     0.038 A 
HETATM   21  C   UNL     1      44.619 -28.884  -3.718  1.00  0.00     0.026 A 
BRANCH  19  22
HETATM   22  O   UNL     1      44.038 -31.860  -5.722  1.00  0.00    -0.352 OA
BRANCH  22  23
HETATM   23  C   UNL     1      44.884 -31.560  -6.829  1.00  0.00     0.171 C 
HETATM   24  C   UNL     1      44.010 -31.406  -8.061  1.00  0.00     0.034 C 
ENDBRANCH  22  23
ENDBRANCH  19  22
ENDBRANCH  14  16
ENDBRANCH  13  14
ENDBRANCH   1  13
BRANCH   9  25
HETATM   25  O   UNL     1      51.998 -31.712  -2.538  1.00  0.00    -0.356 OA
HETATM   26  C   UNL     1      51.325 -32.271  -3.659  1.00  0.00     0.210 C 
ENDBRANCH   9  25
TORSDOF 6
ENDMDL
