MODEL 1
REMARK VINA RESULT:      -7.6      0.000      0.000
REMARK  8 active torsions:
REMARK  status: ('A' for Active; 'I' for Inactive)
REMARK    1  A    between atoms: C_2  and  S_3 
REMARK    2  A    between atoms: S_3  and  C_4 
REMARK    3  A    between atoms: C_4  and  C_5 
REMARK    4  A    between atoms: C_5  and  N_6 
REMARK       I    between atoms: N_6  and  C_7 
REMARK    5  A    between atoms: N_6  and  C_22 
REMARK    6  A    between atoms: C_7  and  C_8 
REMARK    7  A    between atoms: C_12  and  C_13 
REMARK    8  A    between atoms: C_16  and  O_17 
ROOT
HETATM    1  C   UNL     1      41.427 -15.343   1.331  1.00  0.00     0.120 A 
HETATM    2  N   UNL     1      42.761 -15.137   1.109  1.00  0.00    -0.272 N 
HETATM    3  H   UNL     1      43.180 -14.360   0.607  1.00  0.00     0.189 HD
HETATM    4  N   UNL     1      43.560 -16.086   1.614  1.00  0.00    -0.174 NA
HETATM    5  C   UNL     1      42.732 -16.908   2.279  1.00  0.00     0.089 A 
HETATM    6  C   UNL     1      41.388 -16.456   2.145  1.00  0.00     0.071 A 
ENDROOT
BRANCH   1   7
HETATM    7  C   UNL     1      40.445 -14.406   0.846  1.00  0.00     0.272 C 
HETATM    8  N   UNL     1      40.201 -13.197   1.531  1.00  0.00    -0.341 N 
HETATM    9  O   UNL     1      39.799 -14.697  -0.161  1.00  0.00    -0.266 OA
BRANCH   8  10
HETATM   10  C   UNL     1      39.193 -12.325   0.905  1.00  0.00     0.136 C 
BRANCH  10  11
HETATM   11  C   UNL     1      39.847 -11.243   0.039  1.00  0.00     0.093 C 
BRANCH  11  12
HETATM   12  S   UNL     1      39.397 -11.446  -1.715  1.00  0.00    -0.168 SA
BRANCH  12  13
HETATM   13  C   UNL     1      37.743 -12.169  -1.479  1.00  0.00     0.069 C 
HETATM   14  C   UNL     1      37.499 -13.264  -2.502  1.00  0.00     0.016 C 
ENDBRANCH  12  13
ENDBRANCH  11  12
ENDBRANCH  10  11
ENDBRANCH   8  10
BRANCH   8  15
HETATM   15  C   UNL     1      40.693 -12.896   2.902  1.00  0.00     0.087 C 
HETATM   16  C   UNL     1      41.981 -12.049   3.015  1.00  0.00     0.025 C 
HETATM   17  C   UNL     1      41.802 -10.533   3.144  1.00  0.00     0.002 C 
HETATM   18  C   UNL     1      40.671 -10.144   4.086  1.00  0.00     0.000 C 
HETATM   19  C   UNL     1      39.378 -10.868   3.737  1.00  0.00     0.002 C 
HETATM   20  C   UNL     1      39.568 -12.377   3.815  1.00  0.00     0.025 C 
ENDBRANCH   8  15
ENDBRANCH   1   7
BRANCH   5  21
HETATM   21  C   UNL     1      43.233 -18.067   3.025  1.00  0.00    -0.005 A 
HETATM   22  C   UNL     1      43.574 -17.945   4.382  1.00  0.00     0.016 A 
HETATM   23  C   UNL     1      44.046 -19.042   5.109  1.00  0.00     0.037 A 
HETATM   24  C   UNL     1      44.183 -20.271   4.474  1.00  0.00     0.065 A 
HETATM   25  C   UNL     1      43.859 -20.416   3.131  1.00  0.00     0.037 A 
HETATM   26  C   UNL     1      43.385 -19.318   2.407  1.00  0.00     0.016 A 
BRANCH  24  27
HETATM   27  O   UNL     1      44.639 -21.368   5.140  1.00  0.00    -0.361 OA
HETATM   28  H   UNL     1      44.084 -21.503   5.927  1.00  0.00     0.217 HD
ENDBRANCH  24  27
ENDBRANCH   5  21
TORSDOF 8
ENDMDL
MODEL 2
REMARK VINA RESULT:      -7.3      2.201      3.633
REMARK  8 active torsions:
REMARK  status: ('A' for Active; 'I' for Inactive)
REMARK    1  A    between atoms: C_2  and  S_3 
REMARK    2  A    between atoms: S_3  and  C_4 
REMARK    3  A    between atoms: C_4  and  C_5 
REMARK    4  A    between atoms: C_5  and  N_6 
REMARK       I    between atoms: N_6  and  C_7 
REMARK    5  A    between atoms: N_6  and  C_22 
REMARK    6  A    between atoms: C_7  and  C_8 
REMARK    7  A    between atoms: C_12  and  C_13 
REMARK    8  A    between atoms: C_16  and  O_17 
ROOT
HETATM    1  C   UNL     1      42.881 -13.982   3.315  1.00  0.00     0.120 A 
HETATM    2  N   UNL     1      42.423 -14.357   4.548  1.00  0.00    -0.272 N 
HETATM    3  H   UNL     1      41.994 -13.756   5.245  1.00  0.00     0.189 HD
HETATM    4  N   UNL     1      42.586 -15.657   4.829  1.00  0.00    -0.174 NA
HETATM    5  C   UNL     1      43.088 -16.186   3.701  1.00  0.00     0.089 A 
HETATM    6  C   UNL     1      43.261 -15.168   2.720  1.00  0.00     0.071 A 
ENDROOT
BRANCH   1   7
HETATM    7  C   UNL     1      42.774 -12.615   2.873  1.00  0.00     0.272 C 
HETATM    8  N   UNL     1      41.599 -12.147   2.248  1.00  0.00    -0.341 N 
HETATM    9  O   UNL     1      43.743 -11.869   3.023  1.00  0.00    -0.266 OA
BRANCH   8  10
HETATM   10  C   UNL     1      41.621 -10.722   1.877  1.00  0.00     0.136 C 
BRANCH  10  11
HETATM   11  C   UNL     1      41.082  -9.840   3.008  1.00  0.00     0.093 C 
BRANCH  11  12
HETATM   12  S   UNL     1      39.907  -8.602   2.369  1.00  0.00    -0.168 SA
BRANCH  12  13
HETATM   13  C   UNL     1      38.459  -9.077   3.365  1.00  0.00     0.069 C 
HETATM   14  C   UNL     1      38.886  -9.962   4.522  1.00  0.00     0.016 C 
ENDBRANCH  12  13
ENDBRANCH  11  12
ENDBRANCH  10  11
ENDBRANCH   8  10
BRANCH   8  15
HETATM   15  C   UNL     1      40.509 -13.028   1.747  1.00  0.00     0.087 C 
HETATM   16  C   UNL     1      39.067 -12.476   1.831  1.00  0.00     0.025 C 
HETATM   17  C   UNL     1      38.538 -11.738   0.598  1.00  0.00     0.002 C 
HETATM   18  C   UNL     1      38.910 -12.419  -0.712  1.00  0.00     0.000 C 
HETATM   19  C   UNL     1      40.402 -12.709  -0.788  1.00  0.00     0.002 C 
HETATM   20  C   UNL     1      40.835 -13.611   0.361  1.00  0.00     0.025 C 
ENDBRANCH   8  15
ENDBRANCH   1   7
BRANCH   5  21
HETATM   21  C   UNL     1      43.367 -17.622   3.583  1.00  0.00    -0.005 A 
HETATM   22  C   UNL     1      43.925 -18.327   4.661  1.00  0.00     0.016 A 
HETATM   23  C   UNL     1      44.190 -19.697   4.567  1.00  0.00     0.037 A 
HETATM   24  C   UNL     1      43.900 -20.366   3.385  1.00  0.00     0.065 A 
HETATM   25  C   UNL     1      43.353 -19.690   2.302  1.00  0.00     0.037 A 
HETATM   26  C   UNL     1      43.087 -18.321   2.399  1.00  0.00     0.016 A 
BRANCH  24  27
HETATM   27  O   UNL     1      44.141 -21.700   3.246  1.00  0.00    -0.361 OA
HETATM   28  H   UNL     1      43.922 -22.142   4.084  1.00  0.00     0.217 HD
ENDBRANCH  24  27
ENDBRANCH   5  21
TORSDOF 8
ENDMDL
MODEL 3
REMARK VINA RESULT:      -7.2      2.286      3.963
REMARK  8 active torsions:
REMARK  status: ('A' for Active; 'I' for Inactive)
REMARK    1  A    between atoms: C_2  and  S_3 
REMARK    2  A    between atoms: S_3  and  C_4 
REMARK    3  A    between atoms: C_4  and  C_5 
REMARK    4  A    between atoms: C_5  and  N_6 
REMARK       I    between atoms: N_6  and  C_7 
REMARK    5  A    between atoms: N_6  and  C_22 
REMARK    6  A    between atoms: C_7  and  C_8 
REMARK    7  A    between atoms: C_12  and  C_13 
REMARK    8  A    between atoms: C_16  and  O_17 
ROOT
HETATM    1  C   UNL     1      43.007 -14.203   2.680  1.00  0.00     0.120 A 
HETATM    2  N   UNL     1      43.320 -14.770   1.476  1.00  0.00    -0.272 N 
HETATM    3  H   UNL     1      43.420 -14.291   0.586  1.00  0.00     0.189 HD
HETATM    4  N   UNL     1      43.493 -16.098   1.517  1.00  0.00    -0.174 NA
HETATM    5  C   UNL     1      43.383 -16.414   2.817  1.00  0.00     0.089 A 
HETATM    6  C   UNL     1      43.105 -15.244   3.580  1.00  0.00     0.071 A 
ENDROOT
BRANCH   1   7
HETATM    7  C   UNL     1      42.790 -12.782   2.792  1.00  0.00     0.272 C 
HETATM    8  N   UNL     1      41.518 -12.224   2.546  1.00  0.00    -0.341 N 
HETATM    9  O   UNL     1      43.746 -12.061   3.076  1.00  0.00    -0.266 OA
BRANCH   8  10
HETATM   10  C   UNL     1      41.437 -10.765   2.727  1.00  0.00     0.136 C 
BRANCH  10  11
HETATM   11  C   UNL     1      40.726 -10.400   4.034  1.00  0.00     0.093 C 
BRANCH  11  12
HETATM   12  S   UNL     1      41.926 -10.084   5.368  1.00  0.00    -0.168 SA
BRANCH  12  13
HETATM   13  C   UNL     1      41.866 -11.717   6.168  1.00  0.00     0.069 C 
HETATM   14  C   UNL     1      40.483 -12.324   6.016  1.00  0.00     0.016 C 
ENDBRANCH  12  13
ENDBRANCH  11  12
ENDBRANCH  10  11
ENDBRANCH   8  10
BRANCH   8  15
HETATM   15  C   UNL     1      40.392 -12.956   1.905  1.00  0.00     0.087 C 
HETATM   16  C   UNL     1      38.983 -12.736   2.502  1.00  0.00     0.025 C 
HETATM   17  C   UNL     1      38.133 -11.626   1.879  1.00  0.00     0.002 C 
HETATM   18  C   UNL     1      38.219 -11.590   0.359  1.00  0.00     0.000 C 
HETATM   19  C   UNL     1      39.664 -11.573  -0.119  1.00  0.00     0.002 C 
HETATM   20  C   UNL     1      40.409 -12.806   0.374  1.00  0.00     0.025 C 
ENDBRANCH   8  15
ENDBRANCH   1   7
BRANCH   5  21
HETATM   21  C   UNL     1      43.560 -17.790   3.293  1.00  0.00    -0.005 A 
HETATM   22  C   UNL     1      43.416 -18.871   2.407  1.00  0.00     0.016 A 
HETATM   23  C   UNL     1      43.589 -20.188   2.842  1.00  0.00     0.037 A 
HETATM   24  C   UNL     1      43.905 -20.429   4.174  1.00  0.00     0.065 A 
HETATM   25  C   UNL     1      44.046 -19.378   5.071  1.00  0.00     0.037 A 
HETATM   26  C   UNL     1      43.875 -18.061   4.633  1.00  0.00     0.016 A 
BRANCH  24  27
HETATM   27  O   UNL     1      44.083 -21.695   4.645  1.00  0.00    -0.361 OA
HETATM   28  H   UNL     1      44.807 -21.683   5.292  1.00  0.00     0.217 HD
ENDBRANCH  24  27
ENDBRANCH   5  21
TORSDOF 8
ENDMDL
MODEL 4
REMARK VINA RESULT:      -7.0      1.910      3.341
REMARK  8 active torsions:
REMARK  status: ('A' for Active; 'I' for Inactive)
REMARK    1  A    between atoms: C_2  and  S_3 
REMARK    2  A    between atoms: S_3  and  C_4 
REMARK    3  A    between atoms: C_4  and  C_5 
REMARK    4  A    between atoms: C_5  and  N_6 
REMARK       I    between atoms: N_6  and  C_7 
REMARK    5  A    between atoms: N_6  and  C_22 
REMARK    6  A    between atoms: C_7  and  C_8 
REMARK    7  A    between atoms: C_12  and  C_13 
REMARK    8  A    between atoms: C_16  and  O_17 
ROOT
HETATM    1  C   UNL     1      42.024 -14.360   2.019  1.00  0.00     0.120 A 
HETATM    2  N   UNL     1      43.286 -14.438   1.498  1.00  0.00    -0.272 N 
HETATM    3  H   UNL     1      43.804 -13.691   1.046  1.00  0.00     0.189 HD
HETATM    4  N   UNL     1      43.858 -15.645   1.608  1.00  0.00    -0.174 NA
HETATM    5  C   UNL     1      42.977 -16.374   2.312  1.00  0.00     0.089 A 
HETATM    6  C   UNL     1      41.826 -15.590   2.611  1.00  0.00     0.071 A 
ENDROOT
BRANCH   1   7
HETATM    7  C   UNL     1      41.282 -13.125   1.974  1.00  0.00     0.272 C 
HETATM    8  N   UNL     1      40.579 -12.747   0.811  1.00  0.00    -0.341 N 
HETATM    9  O   UNL     1      41.301 -12.390   2.962  1.00  0.00    -0.266 OA
BRANCH   8  10
HETATM   10  C   UNL     1      39.843 -11.476   0.919  1.00  0.00     0.136 C 
BRANCH  10  11
HETATM   11  C   UNL     1      38.373 -11.709   1.283  1.00  0.00     0.093 C 
BRANCH  11  12
HETATM   12  S   UNL     1      37.578 -10.160   1.821  1.00  0.00    -0.168 SA
BRANCH  12  13
HETATM   13  C   UNL     1      36.250 -10.101   0.579  1.00  0.00     0.069 C 
HETATM   14  C   UNL     1      36.814 -10.370  -0.805  1.00  0.00     0.016 C 
ENDBRANCH  12  13
ENDBRANCH  11  12
ENDBRANCH  10  11
ENDBRANCH   8  10
BRANCH   8  15
HETATM   15  C   UNL     1      40.744 -13.398  -0.517  1.00  0.00     0.087 C 
HETATM   16  C   UNL     1      39.615 -14.349  -0.977  1.00  0.00     0.025 C 
HETATM   17  C   UNL     1      38.499 -13.735  -1.827  1.00  0.00     0.002 C 
HETATM   18  C   UNL     1      39.015 -12.765  -2.880  1.00  0.00     0.000 C 
HETATM   19  C   UNL     1      39.942 -11.722  -2.273  1.00  0.00     0.002 C 
HETATM   20  C   UNL     1      41.140 -12.387  -1.607  1.00  0.00     0.025 C 
ENDBRANCH   8  15
ENDBRANCH   1   7
BRANCH   5  21
HETATM   21  C   UNL     1      43.257 -17.763   2.692  1.00  0.00    -0.005 A 
HETATM   22  C   UNL     1      43.916 -18.050   3.898  1.00  0.00     0.016 A 
HETATM   23  C   UNL     1      44.183 -19.369   4.278  1.00  0.00     0.037 A 
HETATM   24  C   UNL     1      43.793 -20.410   3.444  1.00  0.00     0.065 A 
HETATM   25  C   UNL     1      43.145 -20.152   2.242  1.00  0.00     0.037 A 
HETATM   26  C   UNL     1      42.877 -18.832   1.866  1.00  0.00     0.016 A 
BRANCH  24  27
HETATM   27  O   UNL     1      44.032 -21.711   3.770  1.00  0.00    -0.361 OA
HETATM   28  H   UNL     1      43.219 -22.088   4.147  1.00  0.00     0.217 HD
ENDBRANCH  24  27
ENDBRANCH   5  21
TORSDOF 8
ENDMDL
MODEL 5
REMARK VINA RESULT:      -6.9      3.726      7.637
REMARK  8 active torsions:
REMARK  status: ('A' for Active; 'I' for Inactive)
REMARK    1  A    between atoms: C_2  and  S_3 
REMARK    2  A    between atoms: S_3  and  C_4 
REMARK    3  A    between atoms: C_4  and  C_5 
REMARK    4  A    between atoms: C_5  and  N_6 
REMARK       I    between atoms: N_6  and  C_7 
REMARK    5  A    between atoms: N_6  and  C_22 
REMARK    6  A    between atoms: C_7  and  C_8 
REMARK    7  A    between atoms: C_12  and  C_13 
REMARK    8  A    between atoms: C_16  and  O_17 
ROOT
HETATM    1  C   UNL     1      40.835 -12.567   2.418  1.00  0.00     0.120 A 
HETATM    2  N   UNL     1      41.529 -11.779   1.542  1.00  0.00    -0.272 N 
HETATM    3  H   UNL     1      42.251 -11.104   1.774  1.00  0.00     0.189 HD
HETATM    4  N   UNL     1      41.183 -11.938   0.258  1.00  0.00    -0.174 NA
HETATM    5  C   UNL     1      40.287 -12.939   0.270  1.00  0.00     0.089 A 
HETATM    6  C   UNL     1      40.065 -13.376   1.607  1.00  0.00     0.071 A 
ENDROOT
BRANCH   1   7
HETATM    7  C   UNL     1      41.097 -12.506   3.833  1.00  0.00     0.272 C 
HETATM    8  N   UNL     1      41.583 -13.635   4.528  1.00  0.00    -0.341 N 
HETATM    9  O   UNL     1      40.859 -11.457   4.433  1.00  0.00    -0.266 OA
BRANCH   8  10
HETATM   10  C   UNL     1      41.834 -13.418   5.962  1.00  0.00     0.136 C 
BRANCH  10  11
HETATM   11  C   UNL     1      43.316 -13.144   6.237  1.00  0.00     0.093 C 
BRANCH  11  12
HETATM   12  S   UNL     1      43.563 -11.453   6.870  1.00  0.00    -0.168 SA
BRANCH  12  13
HETATM   13  C   UNL     1      45.383 -11.456   6.922  1.00  0.00     0.069 C 
HETATM   14  C   UNL     1      45.881 -10.372   7.861  1.00  0.00     0.016 C 
ENDBRANCH  12  13
ENDBRANCH  11  12
ENDBRANCH  10  11
ENDBRANCH   8  10
BRANCH   8  15
HETATM   15  C   UNL     1      41.608 -15.014   3.970  1.00  0.00     0.087 C 
HETATM   16  C   UNL     1      42.988 -15.582   3.566  1.00  0.00     0.025 C 
HETATM   17  C   UNL     1      43.739 -16.392   4.626  1.00  0.00     0.002 C 
HETATM   18  C   UNL     1      42.837 -17.340   5.404  1.00  0.00     0.000 C 
HETATM   19  C   UNL     1      41.616 -16.620   5.959  1.00  0.00     0.002 C 
HETATM   20  C   UNL     1      40.800 -15.997   4.835  1.00  0.00     0.025 C 
ENDBRANCH   8  15
ENDBRANCH   1   7
BRANCH   5  21
HETATM   21  C   UNL     1      39.693 -13.455  -0.968  1.00  0.00    -0.005 A 
HETATM   22  C   UNL     1      39.371 -12.580  -2.018  1.00  0.00     0.016 A 
HETATM   23  C   UNL     1      38.811 -13.056  -3.208  1.00  0.00     0.037 A 
HETATM   24  C   UNL     1      38.566 -14.416  -3.347  1.00  0.00     0.065 A 
HETATM   25  C   UNL     1      38.869 -15.302  -2.321  1.00  0.00     0.037 A 
HETATM   26  C   UNL     1      39.431 -14.823  -1.133  1.00  0.00     0.016 A 
BRANCH  24  27
HETATM   27  O   UNL     1      38.021 -14.928  -4.486  1.00  0.00    -0.361 OA
HETATM   28  H   UNL     1      37.268 -14.370  -4.745  1.00  0.00     0.217 HD
ENDBRANCH  24  27
ENDBRANCH   5  21
TORSDOF 8
ENDMDL
MODEL 6
REMARK VINA RESULT:      -6.6      3.851      4.891
REMARK  8 active torsions:
REMARK  status: ('A' for Active; 'I' for Inactive)
REMARK    1  A    between atoms: C_2  and  S_3 
REMARK    2  A    between atoms: S_3  and  C_4 
REMARK    3  A    between atoms: C_4  and  C_5 
REMARK    4  A    between atoms: C_5  and  N_6 
REMARK       I    between atoms: N_6  and  C_7 
REMARK    5  A    between atoms: N_6  and  C_22 
REMARK    6  A    between atoms: C_7  and  C_8 
REMARK    7  A    between atoms: C_12  and  C_13 
REMARK    8  A    between atoms: C_16  and  O_17 
ROOT
HETATM    1  C   UNL     1      42.118 -14.471   5.894  1.00  0.00     0.120 A 
HETATM    2  N   UNL     1      42.070 -15.180   7.062  1.00  0.00    -0.272 N 
HETATM    3  H   UNL     1      41.759 -14.840   7.967  1.00  0.00     0.189 HD
HETATM    4  N   UNL     1      42.495 -16.447   6.960  1.00  0.00    -0.174 NA
HETATM    5  C   UNL     1      42.749 -16.614   5.652  1.00  0.00     0.089 A 
HETATM    6  C   UNL     1      42.497 -15.402   4.948  1.00  0.00     0.071 A 
ENDROOT
BRANCH   1   7
HETATM    7  C   UNL     1      41.693 -13.094   5.848  1.00  0.00     0.272 C 
HETATM    8  N   UNL     1      42.524 -12.065   6.342  1.00  0.00    -0.341 N 
HETATM    9  O   UNL     1      40.577 -12.837   5.399  1.00  0.00    -0.266 OA
BRANCH   8  10
HETATM   10  C   UNL     1      41.973 -10.707   6.204  1.00  0.00     0.136 C 
BRANCH  10  11
HETATM   11  C   UNL     1      42.451 -10.037   4.911  1.00  0.00     0.093 C 
BRANCH  11  12
HETATM   12  S   UNL     1      41.066  -9.239   4.036  1.00  0.00    -0.168 SA
BRANCH  12  13
HETATM   13  C   UNL     1      40.779 -10.520   2.775  1.00  0.00     0.069 C 
HETATM   14  C   UNL     1      42.103 -11.082   2.290  1.00  0.00     0.016 C 
ENDBRANCH  12  13
ENDBRANCH  11  12
ENDBRANCH  10  11
ENDBRANCH   8  10
BRANCH   8  15
HETATM   15  C   UNL     1      43.736 -12.294   7.174  1.00  0.00     0.087 C 
HETATM   16  C   UNL     1      45.080 -12.451   6.427  1.00  0.00     0.025 C 
HETATM   17  C   UNL     1      45.909 -11.180   6.222  1.00  0.00     0.002 C 
HETATM   18  C   UNL     1      45.938 -10.281   7.451  1.00  0.00     0.000 C 
HETATM   19  C   UNL     1      44.535  -9.999   7.970  1.00  0.00     0.002 C 
HETATM   20  C   UNL     1      43.827 -11.295   8.341  1.00  0.00     0.025 C 
ENDBRANCH   8  15
ENDBRANCH   1   7
BRANCH   5  21
HETATM   21  C   UNL     1      43.197 -17.903   5.114  1.00  0.00    -0.005 A 
HETATM   22  C   UNL     1      43.404 -18.062   3.734  1.00  0.00     0.016 A 
HETATM   23  C   UNL     1      43.839 -19.282   3.205  1.00  0.00     0.037 A 
HETATM   24  C   UNL     1      44.065 -20.352   4.062  1.00  0.00     0.065 A 
HETATM   25  C   UNL     1      43.861 -20.222   5.430  1.00  0.00     0.037 A 
HETATM   26  C   UNL     1      43.429 -19.001   5.956  1.00  0.00     0.016 A 
BRANCH  24  27
HETATM   27  O   UNL     1      44.488 -21.560   3.594  1.00  0.00    -0.361 OA
HETATM   28  H   UNL     1      45.064 -21.965   4.265  1.00  0.00     0.217 HD
ENDBRANCH  24  27
ENDBRANCH   5  21
TORSDOF 8
ENDMDL
MODEL 7
REMARK VINA RESULT:      -6.5      2.108      2.771
REMARK  8 active torsions:
REMARK  status: ('A' for Active; 'I' for Inactive)
REMARK    1  A    between atoms: C_2  and  S_3 
REMARK    2  A    between atoms: S_3  and  C_4 
REMARK    3  A    between atoms: C_4  and  C_5 
REMARK    4  A    between atoms: C_5  and  N_6 
REMARK       I    between atoms: N_6  and  C_7 
REMARK    5  A    between atoms: N_6  and  C_22 
REMARK    6  A    between atoms: C_7  and  C_8 
REMARK    7  A    between atoms: C_12  and  C_13 
REMARK    8  A    between atoms: C_16  and  O_17 
ROOT
HETATM    1  C   UNL     1      41.327 -14.634   2.303  1.00  0.00     0.120 A 
HETATM    2  N   UNL     1      42.668 -14.372   2.352  1.00  0.00    -0.272 N 
HETATM    3  H   UNL     1      43.113 -13.462   2.274  1.00  0.00     0.189 HD
HETATM    4  N   UNL     1      43.439 -15.456   2.511  1.00  0.00    -0.174 NA
HETATM    5  C   UNL     1      42.571 -16.469   2.667  1.00  0.00     0.089 A 
HETATM    6  C   UNL     1      41.236 -15.985   2.569  1.00  0.00     0.071 A 
ENDROOT
BRANCH   1   7
HETATM    7  C   UNL     1      40.372 -13.567   2.136  1.00  0.00     0.272 C 
HETATM    8  N   UNL     1      40.168 -12.613   3.156  1.00  0.00    -0.341 N 
HETATM    9  O   UNL     1      39.715 -13.521   1.096  1.00  0.00    -0.266 OA
BRANCH   8  10
HETATM   10  C   UNL     1      39.186 -11.565   2.835  1.00  0.00     0.136 C 
BRANCH  10  11
HETATM   11  C   UNL     1      39.867 -10.309   2.280  1.00  0.00     0.093 C 
BRANCH  11  12
HETATM   12  S   UNL     1      38.644  -9.009   1.911  1.00  0.00    -0.168 SA
BRANCH  12  13
HETATM   13  C   UNL     1      39.229  -7.756   3.094  1.00  0.00     0.069 C 
HETATM   14  C   UNL     1      38.620  -8.003   4.463  1.00  0.00     0.016 C 
ENDBRANCH  12  13
ENDBRANCH  11  12
ENDBRANCH  10  11
ENDBRANCH   8  10
BRANCH   8  15
HETATM   15  C   UNL     1      40.674 -12.756   4.549  1.00  0.00     0.087 C 
HETATM   16  C   UNL     1      41.818 -11.809   4.979  1.00  0.00     0.025 C 
HETATM   17  C   UNL     1      41.412 -10.495   5.651  1.00  0.00     0.002 C 
HETATM   18  C   UNL     1      40.281 -10.663   6.656  1.00  0.00     0.000 C 
HETATM   19  C   UNL     1      39.102 -11.411   6.051  1.00  0.00     0.002 C 
HETATM   20  C   UNL     1      39.527 -12.793   5.574  1.00  0.00     0.025 C 
ENDBRANCH   8  15
ENDBRANCH   1   7
BRANCH   5  21
HETATM   21  C   UNL     1      43.027 -17.841   2.918  1.00  0.00    -0.005 A 
HETATM   22  C   UNL     1      43.725 -18.152   4.096  1.00  0.00     0.016 A 
HETATM   23  C   UNL     1      44.159 -19.456   4.354  1.00  0.00     0.037 A 
HETATM   24  C   UNL     1      43.897 -20.456   3.426  1.00  0.00     0.065 A 
HETATM   25  C   UNL     1      43.214 -20.173   2.250  1.00  0.00     0.037 A 
HETATM   26  C   UNL     1      42.779 -18.869   1.995  1.00  0.00     0.016 A 
BRANCH  24  27
HETATM   27  O   UNL     1      44.301 -21.741   3.632  1.00  0.00    -0.361 OA
HETATM   28  H   UNL     1      44.719 -22.067   2.818  1.00  0.00     0.217 HD
ENDBRANCH  24  27
ENDBRANCH   5  21
TORSDOF 8
ENDMDL
MODEL 8
REMARK VINA RESULT:      -6.5      2.206      3.945
REMARK  8 active torsions:
REMARK  status: ('A' for Active; 'I' for Inactive)
REMARK    1  A    between atoms: C_2  and  S_3 
REMARK    2  A    between atoms: S_3  and  C_4 
REMARK    3  A    between atoms: C_4  and  C_5 
REMARK    4  A    between atoms: C_5  and  N_6 
REMARK       I    between atoms: N_6  and  C_7 
REMARK    5  A    between atoms: N_6  and  C_22 
REMARK    6  A    between atoms: C_7  and  C_8 
REMARK    7  A    between atoms: C_12  and  C_13 
REMARK    8  A    between atoms: C_16  and  O_17 
ROOT
HETATM    1  C   UNL     1      40.129 -13.868   2.326  1.00  0.00     0.120 A 
HETATM    2  N   UNL     1      39.252 -14.892   2.555  1.00  0.00    -0.272 N 
HETATM    3  H   UNL     1      38.247 -14.874   2.412  1.00  0.00     0.189 HD
HETATM    4  N   UNL     1      39.818 -16.011   3.027  1.00  0.00    -0.174 NA
HETATM    5  C   UNL     1      41.135 -15.752   3.023  1.00  0.00     0.089 A 
HETATM    6  C   UNL     1      41.369 -14.425   2.563  1.00  0.00     0.071 A 
ENDROOT
BRANCH   1   7
HETATM    7  C   UNL     1      39.667 -12.600   1.819  1.00  0.00     0.272 C 
HETATM    8  N   UNL     1      39.622 -12.351   0.430  1.00  0.00    -0.341 N 
HETATM    9  O   UNL     1      39.341 -11.727   2.623  1.00  0.00    -0.266 OA
BRANCH   8  10
HETATM   10  C   UNL     1      39.101 -11.025   0.057  1.00  0.00     0.136 C 
BRANCH  10  11
HETATM   11  C   UNL     1      37.595 -11.073  -0.220  1.00  0.00     0.093 C 
BRANCH  11  12
HETATM   12  S   UNL     1      36.980  -9.451  -0.777  1.00  0.00    -0.168 SA
BRANCH  12  13
HETATM   13  C   UNL     1      38.517  -8.831  -1.528  1.00  0.00     0.069 C 
HETATM   14  C   UNL     1      38.373  -8.763  -3.038  1.00  0.00     0.016 C 
ENDBRANCH  12  13
ENDBRANCH  11  12
ENDBRANCH  10  11
ENDBRANCH   8  10
BRANCH   8  15
HETATM   15  C   UNL     1      40.275 -13.208  -0.596  1.00  0.00     0.087 C 
HETATM   16  C   UNL     1      39.537 -14.506  -0.998  1.00  0.00     0.025 C 
HETATM   17  C   UNL     1      38.593 -14.419  -2.201  1.00  0.00     0.002 C 
HETATM   18  C   UNL     1      39.163 -13.601  -3.351  1.00  0.00     0.000 C 
HETATM   19  C   UNL     1      39.653 -12.239  -2.879  1.00  0.00     0.002 C 
HETATM   20  C   UNL     1      40.734 -12.392  -1.817  1.00  0.00     0.025 C 
ENDBRANCH   8  15
ENDBRANCH   1   7
BRANCH   5  21
HETATM   21  C   UNL     1      42.119 -16.761   3.431  1.00  0.00    -0.005 A 
HETATM   22  C   UNL     1      42.625 -17.678   2.495  1.00  0.00     0.016 A 
HETATM   23  C   UNL     1      43.569 -18.641   2.866  1.00  0.00     0.037 A 
HETATM   24  C   UNL     1      44.008 -18.691   4.183  1.00  0.00     0.065 A 
HETATM   25  C   UNL     1      43.519 -17.799   5.129  1.00  0.00     0.037 A 
HETATM   26  C   UNL     1      42.577 -16.836   4.755  1.00  0.00     0.016 A 
BRANCH  24  27
HETATM   27  O   UNL     1      44.926 -19.611   4.593  1.00  0.00    -0.361 OA
HETATM   28  H   UNL     1      45.405 -19.248   5.357  1.00  0.00     0.217 HD
ENDBRANCH  24  27
ENDBRANCH   5  21
TORSDOF 8
ENDMDL
MODEL 9
REMARK VINA RESULT:      -6.5      1.892      2.617
REMARK  8 active torsions:
REMARK  status: ('A' for Active; 'I' for Inactive)
REMARK    1  A    between atoms: C_2  and  S_3 
REMARK    2  A    between atoms: S_3  and  C_4 
REMARK    3  A    between atoms: C_4  and  C_5 
REMARK    4  A    between atoms: C_5  and  N_6 
REMARK       I    between atoms: N_6  and  C_7 
REMARK    5  A    between atoms: N_6  and  C_22 
REMARK    6  A    between atoms: C_7  and  C_8 
REMARK    7  A    between atoms: C_12  and  C_13 
REMARK    8  A    between atoms: C_16  and  O_17 
ROOT
HETATM    1  C   UNL     1      40.616 -14.700   0.913  1.00  0.00     0.120 A 
HETATM    2  N   UNL     1      39.716 -15.177   1.826  1.00  0.00    -0.272 N 
HETATM    3  H   UNL     1      38.737 -14.918   1.906  1.00  0.00     0.189 HD
HETATM    4  N   UNL     1      40.221 -16.067   2.691  1.00  0.00    -0.174 NA
HETATM    5  C   UNL     1      41.485 -16.259   2.279  1.00  0.00     0.089 A 
HETATM    6  C   UNL     1      41.759 -15.438   1.148  1.00  0.00     0.071 A 
ENDROOT
BRANCH   1   7
HETATM    7  C   UNL     1      40.218 -13.736  -0.081  1.00  0.00     0.272 C 
HETATM    8  N   UNL     1      40.451 -12.358   0.115  1.00  0.00    -0.341 N 
HETATM    9  O   UNL     1      39.642 -14.136  -1.093  1.00  0.00    -0.266 OA
BRANCH   8  10
HETATM   10  C   UNL     1      40.019 -11.494  -0.996  1.00  0.00     0.136 C 
BRANCH  10  11
HETATM   11  C   UNL     1      41.107 -11.374  -2.069  1.00  0.00     0.093 C 
BRANCH  11  12
HETATM   12  S   UNL     1      40.654 -10.135  -3.325  1.00  0.00    -0.168 SA
BRANCH  12  13
HETATM   13  C   UNL     1      40.764  -8.649  -2.280  1.00  0.00     0.069 C 
HETATM   14  C   UNL     1      42.218  -8.286  -2.037  1.00  0.00     0.016 C 
ENDBRANCH  12  13
ENDBRANCH  11  12
ENDBRANCH  10  11
ENDBRANCH   8  10
BRANCH   8  15
HETATM   15  C   UNL     1      40.850 -11.753   1.415  1.00  0.00     0.087 C 
HETATM   16  C   UNL     1      41.685 -10.453   1.356  1.00  0.00     0.025 C 
HETATM   17  C   UNL     1      40.911  -9.132   1.397  1.00  0.00     0.002 C 
HETATM   18  C   UNL     1      39.770  -9.139   2.406  1.00  0.00     0.000 C 
HETATM   19  C   UNL     1      38.869 -10.352   2.222  1.00  0.00     0.002 C 
HETATM   20  C   UNL     1      39.661 -11.643   2.385  1.00  0.00     0.025 C 
ENDBRANCH   8  15
ENDBRANCH   1   7
BRANCH   5  21
HETATM   21  C   UNL     1      42.375 -17.215   2.947  1.00  0.00    -0.005 A 
HETATM   22  C   UNL     1      42.828 -18.358   2.267  1.00  0.00     0.016 A 
HETATM   23  C   UNL     1      43.683 -19.274   2.887  1.00  0.00     0.037 A 
HETATM   24  C   UNL     1      44.085 -19.050   4.198  1.00  0.00     0.065 A 
HETATM   25  C   UNL     1      43.646 -17.932   4.894  1.00  0.00     0.037 A 
HETATM   26  C   UNL     1      42.793 -17.015   4.272  1.00  0.00     0.016 A 
BRANCH  24  27
HETATM   27  O   UNL     1      44.916 -19.915   4.845  1.00  0.00    -0.361 OA
HETATM   28  H   UNL     1      45.831 -19.712   4.588  1.00  0.00     0.217 HD
ENDBRANCH  24  27
ENDBRANCH   5  21
TORSDOF 8
ENDMDL
MODEL 10
REMARK VINA RESULT:      -6.4      2.578      3.428
REMARK  8 active torsions:
REMARK  status: ('A' for Active; 'I' for Inactive)
REMARK    1  A    between atoms: C_2  and  S_3 
REMARK    2  A    between atoms: S_3  and  C_4 
REMARK    3  A    between atoms: C_4  and  C_5 
REMARK    4  A    between atoms: C_5  and  N_6 
REMARK       I    between atoms: N_6  and  C_7 
REMARK    5  A    between atoms: N_6  and  C_22 
REMARK    6  A    between atoms: C_7  and  C_8 
REMARK    7  A    between atoms: C_12  and  C_13 
REMARK    8  A    between atoms: C_16  and  O_17 
ROOT
HETATM    1  C   UNL     1      41.979 -14.447   5.055  1.00  0.00     0.120 A 
HETATM    2  N   UNL     1      43.085 -14.607   5.843  1.00  0.00    -0.272 N 
HETATM    3  H   UNL     1      43.453 -13.941   6.516  1.00  0.00     0.189 HD
HETATM    4  N   UNL     1      43.727 -15.770   5.669  1.00  0.00    -0.174 NA
HETATM    5  C   UNL     1      42.963 -16.451   4.799  1.00  0.00     0.089 A 
HETATM    6  C   UNL     1      41.843 -15.661   4.412  1.00  0.00     0.071 A 
ENDROOT
BRANCH   1   7
HETATM    7  C   UNL     1      41.187 -13.246   5.130  1.00  0.00     0.272 C 
HETATM    8  N   UNL     1      41.105 -12.364   4.031  1.00  0.00    -0.341 N 
HETATM    9  O   UNL     1      40.608 -12.986   6.185  1.00  0.00    -0.266 OA
BRANCH   8  10
HETATM   10  C   UNL     1      40.237 -11.194   4.240  1.00  0.00     0.136 C 
BRANCH  10  11
HETATM   11  C   UNL     1      38.906 -11.342   3.494  1.00  0.00     0.093 C 
BRANCH  11  12
HETATM   12  S   UNL     1      38.220  -9.714   3.048  1.00  0.00    -0.168 SA
BRANCH  12  13
HETATM   13  C   UNL     1      37.927 -10.028   1.280  1.00  0.00     0.069 C 
HETATM   14  C   UNL     1      36.953 -11.180   1.107  1.00  0.00     0.016 C 
ENDBRANCH  12  13
ENDBRANCH  11  12
ENDBRANCH  10  11
ENDBRANCH   8  10
BRANCH   8  15
HETATM   15  C   UNL     1      41.998 -12.423   2.842  1.00  0.00     0.087 C 
HETATM   16  C   UNL     1      41.482 -13.213   1.616  1.00  0.00     0.025 C 
HETATM   17  C   UNL     1      40.724 -12.416   0.550  1.00  0.00     0.002 C 
HETATM   18  C   UNL     1      41.362 -11.067   0.246  1.00  0.00     0.000 C 
HETATM   19  C   UNL     1      41.616 -10.269   1.518  1.00  0.00     0.002 C 
HETATM   20  C   UNL     1      42.537 -11.034   2.460  1.00  0.00     0.025 C 
ENDBRANCH   8  15
ENDBRANCH   1   7
BRANCH   5  21
HETATM   21  C   UNL     1      43.304 -17.815   4.380  1.00  0.00    -0.005 A 
HETATM   22  C   UNL     1      43.150 -18.205   3.039  1.00  0.00     0.016 A 
HETATM   23  C   UNL     1      43.477 -19.498   2.622  1.00  0.00     0.037 A 
HETATM   24  C   UNL     1      43.958 -20.412   3.551  1.00  0.00     0.065 A 
HETATM   25  C   UNL     1      44.113 -20.053   4.884  1.00  0.00     0.037 A 
HETATM   26  C   UNL     1      43.788 -18.758   5.299  1.00  0.00     0.016 A 
BRANCH  24  27
HETATM   27  O   UNL     1      44.289 -21.684   3.193  1.00  0.00    -0.361 OA
HETATM   28  H   UNL     1      43.573 -22.046   2.645  1.00  0.00     0.217 HD
ENDBRANCH  24  27
ENDBRANCH   5  21
TORSDOF 8
ENDMDL
