MODEL 1
REMARK VINA RESULT:      -8.1      0.000      0.000
REMARK  5 active torsions:
REMARK  status: ('A' for Active; 'I' for Inactive)
REMARK    1  A    between atoms: C_2  and  C_3 
REMARK    2  A    between atoms: C_3  and  N_4 
REMARK       I    between atoms: N_4  and  C_5 
REMARK    3  A    between atoms: C_5  and  C_6 
REMARK    4  A    between atoms: C_10  and  N_11 
REMARK       I    between atoms: N_11  and  C_12 
REMARK       I    between atoms: C_12  and  N_13 
REMARK    5  A    between atoms: N_13  and  C_14 
ROOT
HETATM    1  C   UNL     1      43.165 -16.253   4.290  1.00  0.00     0.053 A 
HETATM    2  C   UNL     1      42.740 -14.969   3.930  1.00  0.00     0.051 A 
HETATM    3 CL   UNL     1      42.095 -14.584   2.371  1.00  0.00    -0.083 Cl
HETATM    4  C   UNL     1      42.837 -13.912   4.847  1.00  0.00     0.054 A 
HETATM    5  C   UNL     1      43.358 -14.118   6.128  1.00  0.00     0.038 A 
HETATM    6  C   UNL     1      43.858 -15.381   6.457  1.00  0.00     0.030 A 
HETATM    7  C   UNL     1      43.760 -16.439   5.548  1.00  0.00     0.021 A 
ENDROOT
BRANCH   5   8
HETATM    8  N   UNL     1      43.384 -13.132   7.137  1.00  0.00    -0.309 N 
HETATM    9  C   UNL     1      44.021 -11.899   7.076  1.00  0.00     0.325 C 
HETATM   10  N   UNL     1      43.726 -11.148   8.198  1.00  0.00    -0.305 N 
HETATM   11  O   UNL     1      44.719 -11.523   6.145  1.00  0.00    -0.247 OA
HETATM   12  H   UNL     1      43.492 -11.652   9.038  1.00  0.00     0.171 HD
HETATM   13  H   UNL     1      42.693 -13.227   7.868  1.00  0.00     0.170 HD
BRANCH  10  14
HETATM   14  C   UNL     1      43.939  -9.787   8.349  1.00  0.00     0.086 A 
HETATM   15  C   UNL     1      45.109  -8.969   8.324  1.00  0.00     0.079 A 
HETATM   16  C   UNL     1      46.534  -9.326   8.104  1.00  0.00     0.075 C 
HETATM   17  N   UNL     1      44.803  -7.673   8.490  1.00  0.00    -0.177 NA
HETATM   18  N   UNL     1      43.474  -7.659   8.607  1.00  0.00    -0.280 N 
HETATM   19  H   UNL     1      43.019  -6.761   8.738  1.00  0.00     0.189 HD
HETATM   20  C   UNL     1      42.896  -8.893   8.510  1.00  0.00     0.052 A 
HETATM   21  C   UNL     1      41.426  -9.064   8.581  1.00  0.00     0.072 C 
ENDBRANCH  10  14
ENDBRANCH   5   8
BRANCH   1  22
HETATM   22  C   UNL     1      42.989 -17.479   3.465  1.00  0.00     0.253 C 
HETATM   23  N   UNL     1      43.893 -18.496   3.667  1.00  0.00    -0.357 N 
HETATM   24  H   UNL     1      44.600 -18.395   4.385  1.00  0.00     0.162 HD
HETATM   25  O   UNL     1      42.128 -17.506   2.591  1.00  0.00    -0.268 OA
BRANCH  23  26
HETATM   26  C   UNL     1      43.987 -19.639   2.784  1.00  0.00     0.122 C 
BRANCH  26  27
HETATM   27  C   UNL     1      43.908 -20.961   3.549  1.00  0.00     0.015 C 
HETATM   28  C   UNL     1      43.888 -20.769   5.059  1.00  0.00     0.006 C 
ENDBRANCH  26  27
ENDBRANCH  23  26
ENDBRANCH   1  22
TORSDOF 5
ENDMDL
MODEL 2
REMARK VINA RESULT:      -7.7      5.938      7.788
REMARK  5 active torsions:
REMARK  status: ('A' for Active; 'I' for Inactive)
REMARK    1  A    between atoms: C_2  and  C_3 
REMARK    2  A    between atoms: C_3  and  N_4 
REMARK       I    between atoms: N_4  and  C_5 
REMARK    3  A    between atoms: C_5  and  C_6 
REMARK    4  A    between atoms: C_10  and  N_11 
REMARK       I    between atoms: N_11  and  C_12 
REMARK       I    between atoms: C_12  and  N_13 
REMARK    5  A    between atoms: N_13  and  C_14 
ROOT
HETATM    1  C   UNL     1      41.641 -16.024   3.974  1.00  0.00     0.053 A 
HETATM    2  C   UNL     1      41.400 -14.725   4.437  1.00  0.00     0.051 A 
HETATM    3 CL   UNL     1      42.125 -14.076   5.867  1.00  0.00    -0.083 Cl
HETATM    4  C   UNL     1      40.522 -13.882   3.739  1.00  0.00     0.054 A 
HETATM    5  C   UNL     1      39.876 -14.319   2.579  1.00  0.00     0.038 A 
HETATM    6  C   UNL     1      40.055 -15.642   2.166  1.00  0.00     0.030 A 
HETATM    7  C   UNL     1      40.930 -16.486   2.855  1.00  0.00     0.021 A 
ENDROOT
BRANCH   5   8
HETATM    8  N   UNL     1      39.070 -13.493   1.767  1.00  0.00    -0.309 N 
HETATM    9  C   UNL     1      39.493 -12.718   0.694  1.00  0.00     0.325 C 
HETATM   10  N   UNL     1      38.409 -12.142   0.058  1.00  0.00    -0.305 N 
HETATM   11  O   UNL     1      40.658 -12.590   0.346  1.00  0.00    -0.247 OA
HETATM   12  H   UNL     1      37.584 -11.984   0.613  1.00  0.00     0.171 HD
HETATM   13  H   UNL     1      38.075 -13.658   1.816  1.00  0.00     0.170 HD
BRANCH  10  14
HETATM   14  C   UNL     1      38.416 -11.554  -1.197  1.00  0.00     0.086 A 
HETATM   15  C   UNL     1      38.680 -10.228  -1.656  1.00  0.00     0.079 A 
HETATM   16  C   UNL     1      39.065  -9.004  -0.908  1.00  0.00     0.075 C 
HETATM   17  N   UNL     1      38.592 -10.148  -2.993  1.00  0.00    -0.177 NA
HETATM   18  N   UNL     1      38.292 -11.390  -3.380  1.00  0.00    -0.280 N 
HETATM   19  H   UNL     1      38.182 -11.562  -4.374  1.00  0.00     0.189 HD
HETATM   20  C   UNL     1      38.192 -12.282  -2.351  1.00  0.00     0.052 A 
HETATM   21  C   UNL     1      37.900 -13.713  -2.597  1.00  0.00     0.072 C 
ENDBRANCH  10  14
ENDBRANCH   5   8
BRANCH   1  22
HETATM   22  C   UNL     1      42.648 -16.964   4.540  1.00  0.00     0.253 C 
HETATM   23  N   UNL     1      43.531 -17.532   3.652  1.00  0.00    -0.357 N 
HETATM   24  H   UNL     1      43.497 -17.261   2.677  1.00  0.00     0.162 HD
HETATM   25  O   UNL     1      42.598 -17.266   5.728  1.00  0.00    -0.268 OA
BRANCH  23  26
HETATM   26  C   UNL     1      44.404 -18.628   4.016  1.00  0.00     0.122 C 
BRANCH  26  27
HETATM   27  C   UNL     1      43.928 -19.958   3.430  1.00  0.00     0.015 C 
HETATM   28  C   UNL     1      43.241 -19.796   2.081  1.00  0.00     0.006 C 
ENDBRANCH  26  27
ENDBRANCH  23  26
ENDBRANCH   1  22
TORSDOF 5
ENDMDL
MODEL 3
REMARK VINA RESULT:      -7.7      5.467      7.847
REMARK  5 active torsions:
REMARK  status: ('A' for Active; 'I' for Inactive)
REMARK    1  A    between atoms: C_2  and  C_3 
REMARK    2  A    between atoms: C_3  and  N_4 
REMARK       I    between atoms: N_4  and  C_5 
REMARK    3  A    between atoms: C_5  and  C_6 
REMARK    4  A    between atoms: C_10  and  N_11 
REMARK       I    between atoms: N_11  and  C_12 
REMARK       I    between atoms: C_12  and  N_13 
REMARK    5  A    between atoms: N_13  and  C_14 
ROOT
HETATM    1  C   UNL     1      43.223 -16.375   3.825  1.00  0.00     0.053 A 
HETATM    2  C   UNL     1      42.648 -15.146   4.168  1.00  0.00     0.051 A 
HETATM    3 CL   UNL     1      42.535 -14.570   5.796  1.00  0.00    -0.083 Cl
HETATM    4  C   UNL     1      42.113 -14.317   3.170  1.00  0.00     0.054 A 
HETATM    5  C   UNL     1      42.142 -14.699   1.826  1.00  0.00     0.038 A 
HETATM    6  C   UNL     1      42.642 -15.961   1.496  1.00  0.00     0.030 A 
HETATM    7  C   UNL     1      43.180 -16.791   2.484  1.00  0.00     0.021 A 
ENDROOT
BRANCH   5   8
HETATM    8  N   UNL     1      41.726 -13.872   0.761  1.00  0.00    -0.309 N 
HETATM    9  C   UNL     1      40.541 -13.978   0.044  1.00  0.00     0.325 C 
HETATM   10  N   UNL     1      40.416 -12.922  -0.839  1.00  0.00    -0.305 N 
HETATM   11  O   UNL     1      39.713 -14.865   0.196  1.00  0.00    -0.247 OA
HETATM   12  H   UNL     1      41.268 -12.493  -1.164  1.00  0.00     0.171 HD
HETATM   13  H   UNL     1      42.213 -12.993   0.666  1.00  0.00     0.170 HD
BRANCH  10  14
HETATM   14  C   UNL     1      39.258 -12.541  -1.498  1.00  0.00     0.086 A 
HETATM   15  C   UNL     1      38.451 -13.160  -2.500  1.00  0.00     0.079 A 
HETATM   16  C   UNL     1      38.588 -14.476  -3.175  1.00  0.00     0.075 C 
HETATM   17  N   UNL     1      37.388 -12.402  -2.809  1.00  0.00    -0.177 NA
HETATM   18  N   UNL     1      37.504 -11.332  -2.019  1.00  0.00    -0.280 N 
HETATM   19  H   UNL     1      36.788 -10.615  -2.085  1.00  0.00     0.189 HD
HETATM   20  C   UNL     1      38.594 -11.366  -1.196  1.00  0.00     0.052 A 
HETATM   21  C   UNL     1      38.862 -10.278  -0.228  1.00  0.00     0.072 C 
ENDBRANCH  10  14
ENDBRANCH   5   8
BRANCH   1  22
HETATM   22  C   UNL     1      43.945 -17.277   4.764  1.00  0.00     0.253 C 
HETATM   23  N   UNL     1      43.541 -18.591   4.791  1.00  0.00    -0.357 N 
HETATM   24  H   UNL     1      42.817 -18.901   4.154  1.00  0.00     0.162 HD
HETATM   25  O   UNL     1      44.786 -16.814   5.528  1.00  0.00    -0.268 OA
BRANCH  23  26
HETATM   26  C   UNL     1      43.986 -19.521   5.808  1.00  0.00     0.122 C 
BRANCH  26  27
HETATM   27  C   UNL     1      44.160 -20.936   5.256  1.00  0.00     0.015 C 
HETATM   28  C   UNL     1      43.865 -21.027   3.764  1.00  0.00     0.006 C 
ENDBRANCH  26  27
ENDBRANCH  23  26
ENDBRANCH   1  22
TORSDOF 5
ENDMDL
MODEL 4
REMARK VINA RESULT:      -7.2      3.008      4.196
REMARK  5 active torsions:
REMARK  status: ('A' for Active; 'I' for Inactive)
REMARK    1  A    between atoms: C_2  and  C_3 
REMARK    2  A    between atoms: C_3  and  N_4 
REMARK       I    between atoms: N_4  and  C_5 
REMARK    3  A    between atoms: C_5  and  C_6 
REMARK    4  A    between atoms: C_10  and  N_11 
REMARK       I    between atoms: N_11  and  C_12 
REMARK       I    between atoms: C_12  and  N_13 
REMARK    5  A    between atoms: N_13  and  C_14 
ROOT
HETATM    1  C   UNL     1      40.963 -14.589   2.931  1.00  0.00     0.053 A 
HETATM    2  C   UNL     1      42.179 -15.018   3.474  1.00  0.00     0.051 A 
HETATM    3 CL   UNL     1      43.156 -16.256   2.761  1.00  0.00    -0.083 Cl
HETATM    4  C   UNL     1      42.658 -14.448   4.664  1.00  0.00     0.054 A 
HETATM    5  C   UNL     1      41.935 -13.451   5.324  1.00  0.00     0.038 A 
HETATM    6  C   UNL     1      40.683 -13.083   4.825  1.00  0.00     0.030 A 
HETATM    7  C   UNL     1      40.202 -13.645   3.639  1.00  0.00     0.021 A 
ENDROOT
BRANCH   5   8
HETATM    8  N   UNL     1      42.405 -12.756   6.460  1.00  0.00    -0.309 N 
HETATM    9  C   UNL     1      43.307 -11.699   6.471  1.00  0.00     0.325 C 
HETATM   10  N   UNL     1      43.436 -11.189   7.749  1.00  0.00    -0.305 N 
HETATM   11  O   UNL     1      43.880 -11.264   5.482  1.00  0.00    -0.247 OA
HETATM   12  H   UNL     1      43.253 -11.818   8.513  1.00  0.00     0.171 HD
HETATM   13  H   UNL     1      41.870 -12.878   7.307  1.00  0.00     0.170 HD
BRANCH  10  14
HETATM   14  C   UNL     1      44.009  -9.974   8.089  1.00  0.00     0.086 A 
HETATM   15  C   UNL     1      45.350  -9.485   8.077  1.00  0.00     0.079 A 
HETATM   16  C   UNL     1      46.616 -10.143   7.663  1.00  0.00     0.075 C 
HETATM   17  N   UNL     1      45.407  -8.204   8.474  1.00  0.00    -0.177 NA
HETATM   18  N   UNL     1      44.137  -7.878   8.723  1.00  0.00    -0.280 N 
HETATM   19  H   UNL     1      43.944  -6.933   9.037  1.00  0.00     0.189 HD
HETATM   20  C   UNL     1      43.249  -8.890   8.491  1.00  0.00     0.052 A 
HETATM   21  C   UNL     1      41.793  -8.696   8.680  1.00  0.00     0.072 C 
ENDBRANCH  10  14
ENDBRANCH   5   8
BRANCH   1  22
HETATM   22  C   UNL     1      40.415 -15.011   1.612  1.00  0.00     0.253 C 
HETATM   23  N   UNL     1      40.519 -14.106   0.582  1.00  0.00    -0.357 N 
HETATM   24  H   UNL     1      40.994 -13.226   0.741  1.00  0.00     0.162 HD
HETATM   25  O   UNL     1      39.822 -16.081   1.514  1.00  0.00    -0.268 OA
BRANCH  23  26
HETATM   26  C   UNL     1      39.831 -14.283  -0.680  1.00  0.00     0.122 C 
BRANCH  26  27
HETATM   27  C   UNL     1      40.006 -13.076  -1.601  1.00  0.00     0.015 C 
HETATM   28  C   UNL     1      40.536 -13.456  -2.977  1.00  0.00     0.006 C 
ENDBRANCH  26  27
ENDBRANCH  23  26
ENDBRANCH   1  22
TORSDOF 5
ENDMDL
MODEL 5
REMARK VINA RESULT:      -7.1      2.059      2.659
REMARK  5 active torsions:
REMARK  status: ('A' for Active; 'I' for Inactive)
REMARK    1  A    between atoms: C_2  and  C_3 
REMARK    2  A    between atoms: C_3  and  N_4 
REMARK       I    between atoms: N_4  and  C_5 
REMARK    3  A    between atoms: C_5  and  C_6 
REMARK    4  A    between atoms: C_10  and  N_11 
REMARK       I    between atoms: N_11  and  C_12 
REMARK       I    between atoms: C_12  and  N_13 
REMARK    5  A    between atoms: N_13  and  C_14 
ROOT
HETATM    1  C   UNL     1      42.885 -14.286   4.639  1.00  0.00     0.053 A 
HETATM    2  C   UNL     1      43.103 -12.964   4.233  1.00  0.00     0.051 A 
HETATM    3 CL   UNL     1      42.781 -12.395   2.631  1.00  0.00    -0.083 Cl
HETATM    4  C   UNL     1      43.621 -12.027   5.140  1.00  0.00     0.054 A 
HETATM    5  C   UNL     1      43.927 -12.392   6.454  1.00  0.00     0.038 A 
HETATM    6  C   UNL     1      43.785 -13.730   6.832  1.00  0.00     0.030 A 
HETATM    7  C   UNL     1      43.267 -14.668   5.934  1.00  0.00     0.021 A 
ENDROOT
BRANCH   5   8
HETATM    8  N   UNL     1      44.344 -11.482   7.449  1.00  0.00    -0.309 N 
HETATM    9  C   UNL     1      43.566 -10.507   8.060  1.00  0.00     0.325 C 
HETATM   10  N   UNL     1      44.274  -9.889   9.073  1.00  0.00    -0.305 N 
HETATM   11  O   UNL     1      42.407 -10.255   7.761  1.00  0.00    -0.247 OA
HETATM   12  H   UNL     1      45.278  -9.878   8.989  1.00  0.00     0.171 HD
HETATM   13  H   UNL     1      45.206 -11.708   7.924  1.00  0.00     0.170 HD
BRANCH  10  14
HETATM   14  C   UNL     1      43.742  -9.089  10.072  1.00  0.00     0.086 A 
HETATM   15  C   UNL     1      43.325  -7.724  10.116  1.00  0.00     0.079 A 
HETATM   16  C   UNL     1      43.311  -6.682   9.058  1.00  0.00     0.075 C 
HETATM   17  N   UNL     1      42.837  -7.401  11.324  1.00  0.00    -0.177 NA
HETATM   18  N   UNL     1      42.928  -8.530  12.030  1.00  0.00    -0.280 N 
HETATM   19  H   UNL     1      42.603  -8.515  12.992  1.00  0.00     0.189 HD
HETATM   20  C   UNL     1      43.444  -9.583  11.329  1.00  0.00     0.052 A 
HETATM   21  C   UNL     1      43.585 -10.923  11.943  1.00  0.00     0.072 C 
ENDBRANCH  10  14
ENDBRANCH   5   8
BRANCH   1  22
HETATM   22  C   UNL     1      42.216 -15.335   3.821  1.00  0.00     0.253 C 
HETATM   23  N   UNL     1      43.029 -16.284   3.247  1.00  0.00    -0.357 N 
HETATM   24  H   UNL     1      44.024 -16.263   3.434  1.00  0.00     0.162 HD
HETATM   25  O   UNL     1      41.008 -15.268   3.614  1.00  0.00    -0.268 OA
BRANCH  23  26
HETATM   26  C   UNL     1      42.550 -17.216   2.248  1.00  0.00     0.122 C 
BRANCH  26  27
HETATM   27  C   UNL     1      43.218 -18.586   2.376  1.00  0.00     0.015 C 
HETATM   28  C   UNL     1      44.007 -18.739   3.669  1.00  0.00     0.006 C 
ENDBRANCH  26  27
ENDBRANCH  23  26
ENDBRANCH   1  22
TORSDOF 5
ENDMDL
MODEL 6
REMARK VINA RESULT:      -7.0      5.297      8.977
REMARK  5 active torsions:
REMARK  status: ('A' for Active; 'I' for Inactive)
REMARK    1  A    between atoms: C_2  and  C_3 
REMARK    2  A    between atoms: C_3  and  N_4 
REMARK       I    between atoms: N_4  and  C_5 
REMARK    3  A    between atoms: C_5  and  C_6 
REMARK    4  A    between atoms: C_10  and  N_11 
REMARK       I    between atoms: N_11  and  C_12 
REMARK       I    between atoms: C_12  and  N_13 
REMARK    5  A    between atoms: N_13  and  C_14 
ROOT
HETATM    1  C   UNL     1      43.212 -13.386   5.083  1.00  0.00     0.053 A 
HETATM    2  C   UNL     1      42.670 -14.626   4.722  1.00  0.00     0.051 A 
HETATM    3 CL   UNL     1      42.434 -15.923   5.842  1.00  0.00    -0.083 Cl
HETATM    4  C   UNL     1      42.300 -14.870   3.390  1.00  0.00     0.054 A 
HETATM    5  C   UNL     1      42.464 -13.890   2.407  1.00  0.00     0.038 A 
HETATM    6  C   UNL     1      43.081 -12.685   2.754  1.00  0.00     0.030 A 
HETATM    7  C   UNL     1      43.449 -12.434   4.079  1.00  0.00     0.021 A 
ENDROOT
BRANCH   5   8
HETATM    8  N   UNL     1      42.014 -14.024   1.076  1.00  0.00    -0.309 N 
HETATM    9  C   UNL     1      40.863 -13.470   0.530  1.00  0.00     0.325 C 
HETATM   10  N   UNL     1      40.812 -13.709  -0.830  1.00  0.00    -0.305 N 
HETATM   11  O   UNL     1      40.031 -12.833   1.162  1.00  0.00    -0.247 OA
HETATM   12  H   UNL     1      41.293 -14.525  -1.170  1.00  0.00     0.171 HD
HETATM   13  H   UNL     1      42.696 -14.351   0.408  1.00  0.00     0.170 HD
BRANCH  10  14
HETATM   14  C   UNL     1      39.981 -13.074  -1.740  1.00  0.00     0.086 A 
HETATM   15  C   UNL     1      39.840 -11.715  -2.156  1.00  0.00     0.079 A 
HETATM   16  C   UNL     1      40.579 -10.495  -1.742  1.00  0.00     0.075 C 
HETATM   17  N   UNL     1      38.901 -11.591  -3.107  1.00  0.00    -0.177 NA
HETATM   18  N   UNL     1      38.462 -12.836  -3.303  1.00  0.00    -0.280 N 
HETATM   19  H   UNL     1      37.737 -12.978  -3.999  1.00  0.00     0.189 HD
HETATM   20  C   UNL     1      39.085 -13.772  -2.528  1.00  0.00     0.052 A 
HETATM   21  C   UNL     1      38.749 -15.210  -2.638  1.00  0.00     0.072 C 
ENDBRANCH  10  14
ENDBRANCH   5   8
BRANCH   1  22
HETATM   22  C   UNL     1      43.514 -12.954   6.475  1.00  0.00     0.253 C 
HETATM   23  N   UNL     1      44.080 -11.711   6.627  1.00  0.00    -0.357 N 
HETATM   24  H   UNL     1      44.225 -11.128   5.811  1.00  0.00     0.162 HD
HETATM   25  O   UNL     1      43.342 -13.735   7.406  1.00  0.00    -0.268 OA
BRANCH  23  26
HETATM   26  C   UNL     1      44.637 -11.259   7.885  1.00  0.00     0.122 C 
BRANCH  26  27
HETATM   27  C   UNL     1      46.034 -10.662   7.713  1.00  0.00     0.015 C 
HETATM   28  C   UNL     1      46.139  -9.241   8.248  1.00  0.00     0.006 C 
ENDBRANCH  26  27
ENDBRANCH  23  26
ENDBRANCH   1  22
TORSDOF 5
ENDMDL
MODEL 7
REMARK VINA RESULT:      -7.0      4.228      8.971
REMARK  5 active torsions:
REMARK  status: ('A' for Active; 'I' for Inactive)
REMARK    1  A    between atoms: C_2  and  C_3 
REMARK    2  A    between atoms: C_3  and  N_4 
REMARK       I    between atoms: N_4  and  C_5 
REMARK    3  A    between atoms: C_5  and  C_6 
REMARK    4  A    between atoms: C_10  and  N_11 
REMARK       I    between atoms: N_11  and  C_12 
REMARK       I    between atoms: C_12  and  N_13 
REMARK    5  A    between atoms: N_13  and  C_14 
ROOT
HETATM    1  C   UNL     1      43.703 -11.011   7.628  1.00  0.00     0.053 A 
HETATM    2  C   UNL     1      42.952 -10.251   6.723  1.00  0.00     0.051 A 
HETATM    3 CL   UNL     1      42.327  -8.680   7.090  1.00  0.00    -0.083 Cl
HETATM    4  C   UNL     1      42.661 -10.761   5.449  1.00  0.00     0.054 A 
HETATM    5  C   UNL     1      43.110 -12.027   5.062  1.00  0.00     0.038 A 
HETATM    6  C   UNL     1      43.787 -12.816   5.996  1.00  0.00     0.030 A 
HETATM    7  C   UNL     1      44.083 -12.313   7.266  1.00  0.00     0.021 A 
ENDROOT
BRANCH   5   8
HETATM    8  N   UNL     1      42.951 -12.558   3.764  1.00  0.00    -0.309 N 
HETATM    9  C   UNL     1      41.755 -12.919   3.157  1.00  0.00     0.325 C 
HETATM   10  N   UNL     1      41.973 -13.281   1.841  1.00  0.00    -0.305 N 
HETATM   11  O   UNL     1      40.661 -12.890   3.703  1.00  0.00    -0.247 OA
HETATM   12  H   UNL     1      42.885 -13.639   1.609  1.00  0.00     0.171 HD
HETATM   13  H   UNL     1      43.737 -12.448   3.141  1.00  0.00     0.170 HD
BRANCH  10  14
HETATM   14  C   UNL     1      41.003 -13.418   0.859  1.00  0.00     0.086 A 
HETATM   15  C   UNL     1      40.581 -12.588  -0.223  1.00  0.00     0.079 A 
HETATM   16  C   UNL     1      41.076 -11.263  -0.676  1.00  0.00     0.075 C 
HETATM   17  N   UNL     1      39.606 -13.174  -0.935  1.00  0.00    -0.177 NA
HETATM   18  N   UNL     1      39.416 -14.350  -0.333  1.00  0.00    -0.280 N 
HETATM   19  H   UNL     1      38.712 -14.971  -0.718  1.00  0.00     0.189 HD
HETATM   20  C   UNL     1      40.238 -14.563   0.737  1.00  0.00     0.052 A 
HETATM   21  C   UNL     1      40.192 -15.829   1.504  1.00  0.00     0.072 C 
ENDBRANCH  10  14
ENDBRANCH   5   8
BRANCH   1  22
HETATM   22  C   UNL     1      44.194 -10.533   8.950  1.00  0.00     0.253 C 
HETATM   23  N   UNL     1      43.430 -10.853  10.047  1.00  0.00    -0.357 N 
HETATM   24  H   UNL     1      42.605 -11.427   9.926  1.00  0.00     0.162 HD
HETATM   25  O   UNL     1      45.185  -9.811   9.006  1.00  0.00    -0.268 OA
BRANCH  23  26
HETATM   26  C   UNL     1      43.656 -10.265  11.351  1.00  0.00     0.122 C 
BRANCH  26  27
HETATM   27  C   UNL     1      42.869  -8.968  11.539  1.00  0.00     0.015 C 
HETATM   28  C   UNL     1      43.342  -8.161  12.741  1.00  0.00     0.006 C 
ENDBRANCH  26  27
ENDBRANCH  23  26
ENDBRANCH   1  22
TORSDOF 5
ENDMDL
MODEL 8
REMARK VINA RESULT:      -7.0      5.690      9.441
REMARK  5 active torsions:
REMARK  status: ('A' for Active; 'I' for Inactive)
REMARK    1  A    between atoms: C_2  and  C_3 
REMARK    2  A    between atoms: C_3  and  N_4 
REMARK       I    between atoms: N_4  and  C_5 
REMARK    3  A    between atoms: C_5  and  C_6 
REMARK    4  A    between atoms: C_10  and  N_11 
REMARK       I    between atoms: N_11  and  C_12 
REMARK       I    between atoms: C_12  and  N_13 
REMARK    5  A    between atoms: N_13  and  C_14 
ROOT
HETATM    1  C   UNL     1      39.859 -12.186  -0.906  1.00  0.00     0.053 A 
HETATM    2  C   UNL     1      40.683 -11.969   0.204  1.00  0.00     0.051 A 
HETATM    3 CL   UNL     1      41.303 -10.413   0.639  1.00  0.00    -0.083 Cl
HETATM    4  C   UNL     1      41.056 -13.045   1.023  1.00  0.00     0.054 A 
HETATM    5  C   UNL     1      40.618 -14.344   0.748  1.00  0.00     0.038 A 
HETATM    6  C   UNL     1      39.865 -14.570  -0.407  1.00  0.00     0.030 A 
HETATM    7  C   UNL     1      39.487 -13.502  -1.225  1.00  0.00     0.021 A 
ENDROOT
BRANCH   5   8
HETATM    8  N   UNL     1      40.861 -15.453   1.586  1.00  0.00    -0.309 N 
HETATM    9  C   UNL     1      42.088 -16.060   1.824  1.00  0.00     0.325 C 
HETATM   10  N   UNL     1      41.964 -17.035   2.795  1.00  0.00    -0.305 N 
HETATM   11  O   UNL     1      43.135 -15.751   1.272  1.00  0.00    -0.247 OA
HETATM   12  H   UNL     1      41.060 -17.469   2.895  1.00  0.00     0.171 HD
HETATM   13  H   UNL     1      40.132 -15.677   2.247  1.00  0.00     0.170 HD
BRANCH  10  14
HETATM   14  C   UNL     1      43.003 -17.637   3.486  1.00  0.00     0.086 A 
HETATM   15  C   UNL     1      43.740 -18.845   3.292  1.00  0.00     0.079 A 
HETATM   16  C   UNL     1      43.637 -19.881   2.233  1.00  0.00     0.075 C 
HETATM   17  N   UNL     1      44.694 -18.990   4.225  1.00  0.00    -0.177 NA
HETATM   18  N   UNL     1      44.579 -17.901   4.988  1.00  0.00    -0.280 N 
HETATM   19  H   UNL     1      45.220 -17.800   5.769  1.00  0.00     0.189 HD
HETATM   20  C   UNL     1      43.597 -17.042   4.585  1.00  0.00     0.052 A 
HETATM   21  C   UNL     1      43.351 -15.765   5.293  1.00  0.00     0.072 C 
ENDBRANCH  10  14
ENDBRANCH   5   8
BRANCH   1  22
HETATM   22  C   UNL     1      39.281 -11.118  -1.769  1.00  0.00     0.253 C 
HETATM   23  N   UNL     1      39.955 -10.832  -2.933  1.00  0.00    -0.357 N 
HETATM   24  H   UNL     1      40.773 -11.375  -3.179  1.00  0.00     0.162 HD
HETATM   25  O   UNL     1      38.306 -10.483  -1.380  1.00  0.00    -0.268 OA
BRANCH  23  26
HETATM   26  C   UNL     1      39.646  -9.674  -3.745  1.00  0.00     0.122 C 
BRANCH  26  27
HETATM   27  C   UNL     1      40.880  -8.808  -4.003  1.00  0.00     0.015 C 
HETATM   28  C   UNL     1      41.644  -8.476  -2.728  1.00  0.00     0.006 C 
ENDBRANCH  26  27
ENDBRANCH  23  26
ENDBRANCH   1  22
TORSDOF 5
ENDMDL
MODEL 9
REMARK VINA RESULT:      -7.0      8.770     11.976
REMARK  5 active torsions:
REMARK  status: ('A' for Active; 'I' for Inactive)
REMARK    1  A    between atoms: C_2  and  C_3 
REMARK    2  A    between atoms: C_3  and  N_4 
REMARK       I    between atoms: N_4  and  C_5 
REMARK    3  A    between atoms: C_5  and  C_6 
REMARK    4  A    between atoms: C_10  and  N_11 
REMARK       I    between atoms: N_11  and  C_12 
REMARK       I    between atoms: C_12  and  N_13 
REMARK    5  A    between atoms: N_13  and  C_14 
ROOT
HETATM    1  C   UNL     1      42.322  -8.777  12.514  1.00  0.00     0.053 A 
HETATM    2  C   UNL     1      41.434  -9.100  13.548  1.00  0.00     0.051 A 
HETATM    3 CL   UNL     1      40.189 -10.291  13.394  1.00  0.00    -0.083 Cl
HETATM    4  C   UNL     1      41.519  -8.435  14.780  1.00  0.00     0.054 A 
HETATM    5  C   UNL     1      42.483  -7.446  14.999  1.00  0.00     0.038 A 
HETATM    6  C   UNL     1      43.313  -7.069  13.940  1.00  0.00     0.030 A 
HETATM    7  C   UNL     1      43.235  -7.729  12.710  1.00  0.00     0.021 A 
ENDROOT
BRANCH   5   8
HETATM    8  N   UNL     1      42.699  -6.816  16.243  1.00  0.00    -0.309 N 
HETATM    9  C   UNL     1      41.727  -6.299  17.091  1.00  0.00     0.325 C 
HETATM   10  N   UNL     1      42.298  -5.872  18.275  1.00  0.00    -0.305 N 
HETATM   11  O   UNL     1      40.532  -6.257  16.834  1.00  0.00    -0.247 OA
HETATM   12  H   UNL     1      43.264  -5.591  18.242  1.00  0.00     0.171 HD
HETATM   13  H   UNL     1      43.606  -6.961  16.662  1.00  0.00     0.170 HD
BRANCH  10  14
HETATM   14  C   UNL     1      41.621  -5.576  19.448  1.00  0.00     0.086 A 
HETATM   15  C   UNL     1      40.953  -4.408  19.925  1.00  0.00     0.079 A 
HETATM   16  C   UNL     1      40.744  -3.084  19.286  1.00  0.00     0.075 C 
HETATM   17  N   UNL     1      40.410  -4.616  21.134  1.00  0.00    -0.177 NA
HETATM   18  N   UNL     1      40.711  -5.885  21.419  1.00  0.00    -0.280 N 
HETATM   19  H   UNL     1      40.387  -6.262  22.304  1.00  0.00     0.189 HD
HETATM   20  C   UNL     1      41.419  -6.520  20.438  1.00  0.00     0.052 A 
HETATM   21  C   UNL     1      41.810  -7.942  20.568  1.00  0.00     0.072 C 
ENDBRANCH  10  14
ENDBRANCH   5   8
BRANCH   1  22
HETATM   22  C   UNL     1      42.427  -9.498  11.216  1.00  0.00     0.253 C 
HETATM   23  N   UNL     1      43.648 -10.052  10.913  1.00  0.00    -0.357 N 
HETATM   24  H   UNL     1      44.401  -9.991  11.587  1.00  0.00     0.162 HD
HETATM   25  O   UNL     1      41.477  -9.495  10.439  1.00  0.00    -0.268 OA
BRANCH  23  26
HETATM   26  C   UNL     1      43.961 -10.574   9.599  1.00  0.00     0.122 C 
BRANCH  26  27
HETATM   27  C   UNL     1      45.367 -10.181   9.146  1.00  0.00     0.015 C 
HETATM   28  C   UNL     1      45.442  -8.748   8.634  1.00  0.00     0.006 C 
ENDBRANCH  26  27
ENDBRANCH  23  26
ENDBRANCH   1  22
TORSDOF 5
ENDMDL
MODEL 10
REMARK VINA RESULT:      -6.8      3.437      9.352
REMARK  5 active torsions:
REMARK  status: ('A' for Active; 'I' for Inactive)
REMARK    1  A    between atoms: C_2  and  C_3 
REMARK    2  A    between atoms: C_3  and  N_4 
REMARK       I    between atoms: N_4  and  C_5 
REMARK    3  A    between atoms: C_5  and  C_6 
REMARK    4  A    between atoms: C_10  and  N_11 
REMARK       I    between atoms: N_11  and  C_12 
REMARK       I    between atoms: C_12  and  N_13 
REMARK    5  A    between atoms: N_13  and  C_14 
ROOT
HETATM    1  C   UNL     1      43.016  -9.353   9.130  1.00  0.00     0.053 A 
HETATM    2  C   UNL     1      44.190 -10.097   8.965  1.00  0.00     0.051 A 
HETATM    3 CL   UNL     1      45.493 -10.082  10.102  1.00  0.00    -0.083 Cl
HETATM    4  C   UNL     1      44.361 -10.896   7.824  1.00  0.00     0.054 A 
HETATM    5  C   UNL     1      43.371 -10.965   6.840  1.00  0.00     0.038 A 
HETATM    6  C   UNL     1      42.237 -10.159   6.967  1.00  0.00     0.030 A 
HETATM    7  C   UNL     1      42.059  -9.362   8.102  1.00  0.00     0.021 A 
ENDROOT
BRANCH   5   8
HETATM    8  N   UNL     1      43.426 -11.829   5.725  1.00  0.00    -0.309 N 
HETATM    9  C   UNL     1      43.042 -13.164   5.692  1.00  0.00     0.325 C 
HETATM   10  N   UNL     1      43.117 -13.655   4.402  1.00  0.00    -0.305 N 
HETATM   11  O   UNL     1      42.662 -13.803   6.663  1.00  0.00    -0.247 OA
HETATM   12  H   UNL     1      43.776 -13.214   3.782  1.00  0.00     0.171 HD
HETATM   13  H   UNL     1      43.528 -11.386   4.824  1.00  0.00     0.170 HD
BRANCH  10  14
HETATM   14  C   UNL     1      42.548 -14.833   3.942  1.00  0.00     0.086 A 
HETATM   15  C   UNL     1      42.868 -16.212   4.123  1.00  0.00     0.079 A 
HETATM   16  C   UNL     1      43.949 -16.859   4.910  1.00  0.00     0.075 C 
HETATM   17  N   UNL     1      41.988 -17.004   3.491  1.00  0.00    -0.177 NA
HETATM   18  N   UNL     1      41.123 -16.157   2.930  1.00  0.00    -0.280 N 
HETATM   19  H   UNL     1      40.355 -16.550   2.396  1.00  0.00     0.189 HD
HETATM   20  C   UNL     1      41.393 -14.842   3.181  1.00  0.00     0.052 A 
HETATM   21  C   UNL     1      40.518 -13.764   2.667  1.00  0.00     0.072 C 
ENDBRANCH  10  14
ENDBRANCH   5   8
BRANCH   1  22
HETATM   22  C   UNL     1      42.654  -8.580  10.350  1.00  0.00     0.253 C 
HETATM   23  N   UNL     1      42.080  -9.285  11.382  1.00  0.00    -0.357 N 
HETATM   24  H   UNL     1      41.970 -10.288  11.296  1.00  0.00     0.162 HD
HETATM   25  O   UNL     1      42.787  -7.360  10.358  1.00  0.00    -0.268 OA
BRANCH  23  26
HETATM   26  C   UNL     1      41.470  -8.635  12.522  1.00  0.00     0.122 C 
BRANCH  26  27
HETATM   27  C   UNL     1      42.385  -8.651  13.748  1.00  0.00     0.015 C 
HETATM   28  C   UNL     1      43.192  -7.368  13.897  1.00  0.00     0.006 C 
ENDBRANCH  26  27
ENDBRANCH  23  26
ENDBRANCH   1  22
TORSDOF 5
ENDMDL
