MODEL 1
REMARK VINA RESULT:      -8.8      0.000      0.000
REMARK  6 active torsions:
REMARK  status: ('A' for Active; 'I' for Inactive)
REMARK    1  A    between atoms: O_2  and  C_3 
REMARK    2  A    between atoms: C_3  and  C_4 
REMARK    3  A    between atoms: C_7  and  C_8 
REMARK    4  A    between atoms: C_8  and  O_9 
REMARK    5  A    between atoms: O_9  and  C_10 
REMARK    6  A    between atoms: C_13  and  C_14 
ROOT
HETATM    1  C   UNL     1      42.021 -14.022   2.605  1.00  0.00     0.069 A 
HETATM    2  C   UNL     1      41.091 -15.032   2.852  1.00  0.00     0.037 A 
HETATM    3  C   UNL     1      41.403 -16.365   2.570  1.00  0.00     0.014 A 
HETATM    4  C   UNL     1      42.647 -16.691   2.024  1.00  0.00    -0.035 A 
HETATM    5  C   UNL     1      43.555 -15.671   1.720  1.00  0.00     0.014 A 
HETATM    6  C   UNL     1      43.239 -14.338   2.002  1.00  0.00     0.037 A 
ENDROOT
BRANCH   1   7
HETATM    7  O   UNL     1      41.636 -12.764   2.987  1.00  0.00    -0.347 OA
BRANCH   7   8
HETATM    8  C   UNL     1      40.979 -12.683   4.254  1.00  0.00     0.214 C 
BRANCH   8   9
HETATM    9  C   UNL     1      41.954 -12.192   5.303  1.00  0.00    -0.034 A 
HETATM   10  C   UNL     1      41.956 -10.842   5.683  1.00  0.00     0.010 A 
HETATM   11  C   UNL     1      42.840 -10.379   6.661  1.00  0.00     0.018 A 
HETATM   12  C   UNL     1      43.732 -11.259   7.283  1.00  0.00     0.039 A 
HETATM   13  C   UNL     1      43.731 -12.611   6.914  1.00  0.00     0.018 A 
HETATM   14  C   UNL     1      42.845 -13.072   5.934  1.00  0.00     0.010 A 
BRANCH  12  15
HETATM   15  C   UNL     1      44.650 -10.708   8.318  1.00  0.00     0.292 C 
HETATM   16  O   UNL     1      45.830 -11.009   8.402  1.00  0.00    -0.259 OA
BRANCH  15  17
HETATM   17  O   UNL     1      43.997  -9.835   9.125  1.00  0.00    -0.323 OA
HETATM   18  C   UNL     1      43.601 -10.394  10.378  1.00  0.00     0.213 C 
ENDBRANCH  15  17
ENDBRANCH  12  15
ENDBRANCH   8   9
ENDBRANCH   7   8
ENDBRANCH   1   7
BRANCH   4  19
HETATM   19  C   UNL     1      43.017 -18.090   1.823  1.00  0.00     0.029 C 
HETATM   20  C   UNL     1      43.322 -18.980   2.777  1.00  0.00     0.045 A 
HETATM   21  C   UNL     1      43.706 -20.386   2.391  1.00  0.00     0.257 A 
HETATM   22  C   UNL     1      43.385 -18.900   4.238  1.00  0.00     0.006 A 
HETATM   23  O   UNL     1      43.771 -20.857   1.271  1.00  0.00    -0.267 OA
HETATM   24  N   UNL     1      43.969 -21.027   3.589  1.00  0.00    -0.322 N 
HETATM   25  C   UNL     1      43.784 -20.170   4.672  1.00  0.00     0.046 A 
HETATM   26  H   UNL     1      44.254 -21.992   3.640  1.00  0.00     0.169 HD
HETATM   27  C   UNL     1      43.955 -20.486   6.004  1.00  0.00     0.030 A 
HETATM   28  C   UNL     1      43.709 -19.477   6.936  1.00  0.00     0.002 A 
HETATM   29  C   UNL     1      43.304 -18.195   6.518  1.00  0.00     0.001 A 
HETATM   30  C   UNL     1      43.138 -17.898   5.159  1.00  0.00     0.015 A 
ENDBRANCH   4  19
TORSDOF 6
ENDMDL
MODEL 2
REMARK VINA RESULT:      -8.6      1.775      2.622
REMARK  6 active torsions:
REMARK  status: ('A' for Active; 'I' for Inactive)
REMARK    1  A    between atoms: O_2  and  C_3 
REMARK    2  A    between atoms: C_3  and  C_4 
REMARK    3  A    between atoms: C_7  and  C_8 
REMARK    4  A    between atoms: C_8  and  O_9 
REMARK    5  A    between atoms: O_9  and  C_10 
REMARK    6  A    between atoms: C_13  and  C_14 
ROOT
HETATM    1  C   UNL     1      40.458 -13.686   1.469  1.00  0.00     0.069 A 
HETATM    2  C   UNL     1      39.795 -14.885   1.733  1.00  0.00     0.037 A 
HETATM    3  C   UNL     1      40.519 -16.051   1.993  1.00  0.00     0.014 A 
HETATM    4  C   UNL     1      41.916 -16.025   1.976  1.00  0.00    -0.035 A 
HETATM    5  C   UNL     1      42.579 -14.837   1.652  1.00  0.00     0.014 A 
HETATM    6  C   UNL     1      41.852 -13.672   1.389  1.00  0.00     0.037 A 
ENDROOT
BRANCH   1   7
HETATM    7  O   UNL     1      39.651 -12.594   1.300  1.00  0.00    -0.347 OA
BRANCH   7   8
HETATM    8  C   UNL     1      38.944 -12.168   2.469  1.00  0.00     0.214 C 
BRANCH   8   9
HETATM    9  C   UNL     1      39.931 -11.805   3.557  1.00  0.00    -0.034 A 
HETATM   10  C   UNL     1      40.018 -12.588   4.717  1.00  0.00     0.010 A 
HETATM   11  C   UNL     1      40.936 -12.274   5.722  1.00  0.00     0.018 A 
HETATM   12  C   UNL     1      41.791 -11.176   5.581  1.00  0.00     0.039 A 
HETATM   13  C   UNL     1      41.716 -10.392   4.423  1.00  0.00     0.018 A 
HETATM   14  C   UNL     1      40.795 -10.709   3.417  1.00  0.00     0.010 A 
BRANCH  12  15
HETATM   15  C   UNL     1      42.749 -10.890   6.686  1.00  0.00     0.292 C 
HETATM   16  O   UNL     1      42.876  -9.790   7.200  1.00  0.00    -0.259 OA
BRANCH  15  17
HETATM   17  O   UNL     1      43.432 -12.010   7.032  1.00  0.00    -0.323 OA
HETATM   18  C   UNL     1      44.850 -11.881   6.912  1.00  0.00     0.213 C 
ENDBRANCH  15  17
ENDBRANCH  12  15
ENDBRANCH   8   9
ENDBRANCH   7   8
ENDBRANCH   1   7
BRANCH   4  19
HETATM   19  C   UNL     1      42.677 -17.215   2.348  1.00  0.00     0.029 C 
HETATM   20  C   UNL     1      43.100 -17.541   3.577  1.00  0.00     0.045 A 
HETATM   21  C   UNL     1      43.899 -18.803   3.782  1.00  0.00     0.257 A 
HETATM   22  C   UNL     1      42.964 -16.897   4.885  1.00  0.00     0.006 A 
HETATM   23  O   UNL     1      44.223 -19.621   2.941  1.00  0.00    -0.267 OA
HETATM   24  N   UNL     1      44.184 -18.831   5.136  1.00  0.00    -0.322 N 
HETATM   25  C   UNL     1      43.643 -17.726   5.789  1.00  0.00     0.046 A 
HETATM   26  H   UNL     1      44.715 -19.571   5.567  1.00  0.00     0.169 HD
HETATM   27  C   UNL     1      43.735 -17.445   7.136  1.00  0.00     0.030 A 
HETATM   28  C   UNL     1      43.112 -16.282   7.591  1.00  0.00     0.002 A 
HETATM   29  C   UNL     1      42.423 -15.440   6.697  1.00  0.00     0.001 A 
HETATM   30  C   UNL     1      42.345 -15.744   5.333  1.00  0.00     0.015 A 
ENDBRANCH   4  19
TORSDOF 6
ENDMDL
MODEL 3
REMARK VINA RESULT:      -8.6      3.487      6.360
REMARK  6 active torsions:
REMARK  status: ('A' for Active; 'I' for Inactive)
REMARK    1  A    between atoms: O_2  and  C_3 
REMARK    2  A    between atoms: C_3  and  C_4 
REMARK    3  A    between atoms: C_7  and  C_8 
REMARK    4  A    between atoms: C_8  and  O_9 
REMARK    5  A    between atoms: O_9  and  C_10 
REMARK    6  A    between atoms: C_13  and  C_14 
ROOT
HETATM    1  C   UNL     1      41.914 -13.804   2.533  1.00  0.00     0.069 A 
HETATM    2  C   UNL     1      40.946 -14.803   2.630  1.00  0.00     0.037 A 
HETATM    3  C   UNL     1      41.276 -16.136   2.370  1.00  0.00     0.014 A 
HETATM    4  C   UNL     1      42.579 -16.473   1.994  1.00  0.00    -0.035 A 
HETATM    5  C   UNL     1      43.534 -15.462   1.838  1.00  0.00     0.014 A 
HETATM    6  C   UNL     1      43.200 -14.129   2.097  1.00  0.00     0.037 A 
ENDROOT
BRANCH   1   7
HETATM    7  O   UNL     1      41.498 -12.547   2.881  1.00  0.00    -0.347 OA
BRANCH   7   8
HETATM    8  C   UNL     1      41.670 -11.544   1.875  1.00  0.00     0.214 C 
BRANCH   8   9
HETATM    9  C   UNL     1      40.740 -11.823   0.714  1.00  0.00    -0.034 A 
HETATM   10  C   UNL     1      41.262 -12.042  -0.568  1.00  0.00     0.010 A 
HETATM   11  C   UNL     1      40.416 -12.315  -1.645  1.00  0.00     0.018 A 
HETATM   12  C   UNL     1      39.031 -12.384  -1.458  1.00  0.00     0.039 A 
HETATM   13  C   UNL     1      38.502 -12.173  -0.179  1.00  0.00     0.018 A 
HETATM   14  C   UNL     1      39.351 -11.899   0.899  1.00  0.00     0.010 A 
BRANCH  12  15
HETATM   15  C   UNL     1      38.180 -12.679  -2.644  1.00  0.00     0.292 C 
HETATM   16  O   UNL     1      37.081 -12.179  -2.826  1.00  0.00    -0.259 OA
BRANCH  15  17
HETATM   17  O   UNL     1      38.798 -13.555  -3.474  1.00  0.00    -0.323 OA
HETATM   18  C   UNL     1      38.343 -14.903  -3.334  1.00  0.00     0.213 C 
ENDBRANCH  15  17
ENDBRANCH  12  15
ENDBRANCH   8   9
ENDBRANCH   7   8
ENDBRANCH   1   7
BRANCH   4  19
HETATM   19  C   UNL     1      42.955 -17.873   1.821  1.00  0.00     0.029 C 
HETATM   20  C   UNL     1      43.264 -18.744   2.792  1.00  0.00     0.045 A 
HETATM   21  C   UNL     1      43.653 -20.155   2.433  1.00  0.00     0.257 A 
HETATM   22  C   UNL     1      43.324 -18.635   4.251  1.00  0.00     0.006 A 
HETATM   23  O   UNL     1      43.721 -20.648   1.323  1.00  0.00    -0.267 OA
HETATM   24  N   UNL     1      43.918 -20.772   3.644  1.00  0.00    -0.322 N 
HETATM   25  C   UNL     1      43.729 -19.896   4.709  1.00  0.00     0.046 A 
HETATM   26  H   UNL     1      44.207 -21.735   3.714  1.00  0.00     0.169 HD
HETATM   27  C   UNL     1      43.900 -20.185   6.048  1.00  0.00     0.030 A 
HETATM   28  C   UNL     1      43.649 -19.159   6.960  1.00  0.00     0.002 A 
HETATM   29  C   UNL     1      43.240 -17.887   6.517  1.00  0.00     0.001 A 
HETATM   30  C   UNL     1      43.074 -17.617   5.153  1.00  0.00     0.015 A 
ENDBRANCH   4  19
TORSDOF 6
ENDMDL
MODEL 4
REMARK VINA RESULT:      -8.4      3.059      5.641
REMARK  6 active torsions:
REMARK  status: ('A' for Active; 'I' for Inactive)
REMARK    1  A    between atoms: O_2  and  C_3 
REMARK    2  A    between atoms: C_3  and  C_4 
REMARK    3  A    between atoms: C_7  and  C_8 
REMARK    4  A    between atoms: C_8  and  O_9 
REMARK    5  A    between atoms: O_9  and  C_10 
REMARK    6  A    between atoms: C_13  and  C_14 
ROOT
HETATM    1  C   UNL     1      44.984 -11.631   6.797  1.00  0.00     0.069 A 
HETATM    2  C   UNL     1      44.916 -11.250   5.456  1.00  0.00     0.037 A 
HETATM    3  C   UNL     1      43.800 -11.580   4.683  1.00  0.00     0.014 A 
HETATM    4  C   UNL     1      42.750 -12.309   5.247  1.00  0.00    -0.035 A 
HETATM    5  C   UNL     1      42.846 -12.743   6.573  1.00  0.00     0.014 A 
HETATM    6  C   UNL     1      43.965 -12.413   7.344  1.00  0.00     0.037 A 
ENDROOT
BRANCH   1   7
HETATM    7  O   UNL     1      46.088 -11.192   7.476  1.00  0.00    -0.347 OA
BRANCH   7   8
HETATM    8  C   UNL     1      46.165  -9.778   7.673  1.00  0.00     0.214 C 
BRANCH   8   9
HETATM    9  C   UNL     1      45.282  -9.378   8.836  1.00  0.00    -0.034 A 
HETATM   10  C   UNL     1      44.385  -8.308   8.702  1.00  0.00     0.010 A 
HETATM   11  C   UNL     1      43.553  -7.938   9.762  1.00  0.00     0.018 A 
HETATM   12  C   UNL     1      43.597  -8.637  10.973  1.00  0.00     0.039 A 
HETATM   13  C   UNL     1      44.485  -9.712  11.112  1.00  0.00     0.018 A 
HETATM   14  C   UNL     1      45.317 -10.080  10.050  1.00  0.00     0.010 A 
BRANCH  12  15
HETATM   15  C   UNL     1      42.686  -8.197  12.067  1.00  0.00     0.292 C 
HETATM   16  O   UNL     1      43.027  -7.442  12.964  1.00  0.00    -0.259 OA
BRANCH  15  17
HETATM   17  O   UNL     1      41.453  -8.739  11.913  1.00  0.00    -0.323 OA
HETATM   18  C   UNL     1      41.119  -9.705  12.912  1.00  0.00     0.213 C 
ENDBRANCH  15  17
ENDBRANCH  12  15
ENDBRANCH   8   9
ENDBRANCH   7   8
ENDBRANCH   1   7
BRANCH   4  19
HETATM   19  C   UNL     1      41.537 -12.567   4.474  1.00  0.00     0.029 C 
HETATM   20  C   UNL     1      41.257 -13.675   3.775  1.00  0.00     0.045 A 
HETATM   21  C   UNL     1      39.960 -13.768   3.012  1.00  0.00     0.257 A 
HETATM   22  C   UNL     1      41.982 -14.927   3.550  1.00  0.00     0.006 A 
HETATM   23  O   UNL     1      39.076 -12.935   2.945  1.00  0.00    -0.267 OA
HETATM   24  N   UNL     1      39.992 -15.009   2.400  1.00  0.00    -0.322 N 
HETATM   25  C   UNL     1      41.166 -15.694   2.708  1.00  0.00     0.046 A 
HETATM   26  H   UNL     1      39.246 -15.349   1.814  1.00  0.00     0.169 HD
HETATM   27  C   UNL     1      41.518 -16.954   2.271  1.00  0.00     0.030 A 
HETATM   28  C   UNL     1      42.743 -17.463   2.705  1.00  0.00     0.002 A 
HETATM   29  C   UNL     1      43.574 -16.707   3.554  1.00  0.00     0.001 A 
HETATM   30  C   UNL     1      43.196 -15.429   3.984  1.00  0.00     0.015 A 
ENDBRANCH   4  19
TORSDOF 6
ENDMDL
MODEL 5
REMARK VINA RESULT:      -8.4      3.615      7.100
REMARK  6 active torsions:
REMARK  status: ('A' for Active; 'I' for Inactive)
REMARK    1  A    between atoms: O_2  and  C_3 
REMARK    2  A    between atoms: C_3  and  C_4 
REMARK    3  A    between atoms: C_7  and  C_8 
REMARK    4  A    between atoms: C_8  and  O_9 
REMARK    5  A    between atoms: O_9  and  C_10 
REMARK    6  A    between atoms: C_13  and  C_14 
ROOT
HETATM    1  C   UNL     1      40.491 -11.873   3.982  1.00  0.00     0.069 A 
HETATM    2  C   UNL     1      41.886 -11.876   4.015  1.00  0.00     0.037 A 
HETATM    3  C   UNL     1      42.573 -12.812   4.793  1.00  0.00     0.014 A 
HETATM    4  C   UNL     1      41.864 -13.742   5.557  1.00  0.00    -0.035 A 
HETATM    5  C   UNL     1      40.466 -13.699   5.571  1.00  0.00     0.014 A 
HETATM    6  C   UNL     1      39.780 -12.760   4.793  1.00  0.00     0.037 A 
ENDROOT
BRANCH   1   7
HETATM    7  O   UNL     1      39.926 -10.962   3.131  1.00  0.00    -0.347 OA
BRANCH   7   8
HETATM    8  C   UNL     1      38.717 -11.385   2.495  1.00  0.00     0.214 C 
BRANCH   8   9
HETATM    9  C   UNL     1      39.034 -11.956   1.129  1.00  0.00    -0.034 A 
HETATM   10  C   UNL     1      38.684 -11.246  -0.028  1.00  0.00     0.010 A 
HETATM   11  C   UNL     1      38.985 -11.754  -1.294  1.00  0.00     0.018 A 
HETATM   12  C   UNL     1      39.649 -12.978  -1.426  1.00  0.00     0.039 A 
HETATM   13  C   UNL     1      40.009 -13.690  -0.275  1.00  0.00     0.018 A 
HETATM   14  C   UNL     1      39.707 -13.179   0.992  1.00  0.00     0.010 A 
BRANCH  12  15
HETATM   15  C   UNL     1      39.943 -13.468  -2.802  1.00  0.00     0.292 C 
HETATM   16  O   UNL     1      41.067 -13.735  -3.196  1.00  0.00    -0.259 OA
BRANCH  15  17
HETATM   17  O   UNL     1      38.802 -13.580  -3.527  1.00  0.00    -0.323 OA
HETATM   18  C   UNL     1      38.229 -14.889  -3.502  1.00  0.00     0.213 C 
ENDBRANCH  15  17
ENDBRANCH  12  15
ENDBRANCH   8   9
ENDBRANCH   7   8
ENDBRANCH   1   7
BRANCH   4  19
HETATM   19  C   UNL     1      42.575 -14.786   6.290  1.00  0.00     0.029 C 
HETATM   20  C   UNL     1      43.019 -15.949   5.795  1.00  0.00     0.045 A 
HETATM   21  C   UNL     1      43.719 -16.929   6.702  1.00  0.00     0.257 A 
HETATM   22  C   UNL     1      42.974 -16.551   4.460  1.00  0.00     0.006 A 
HETATM   23  O   UNL     1      43.960 -16.800   7.888  1.00  0.00    -0.267 OA
HETATM   24  N   UNL     1      44.027 -18.008   5.894  1.00  0.00    -0.322 N 
HETATM   25  C   UNL     1      43.599 -17.799   4.585  1.00  0.00     0.046 A 
HETATM   26  H   UNL     1      44.505 -18.828   6.235  1.00  0.00     0.169 HD
HETATM   27  C   UNL     1      43.749 -18.668   3.525  1.00  0.00     0.030 A 
HETATM   28  C   UNL     1      43.252 -18.259   2.287  1.00  0.00     0.002 A 
HETATM   29  C   UNL     1      42.623 -17.007   2.143  1.00  0.00     0.001 A 
HETATM   30  C   UNL     1      42.481 -16.141   3.235  1.00  0.00     0.015 A 
ENDBRANCH   4  19
TORSDOF 6
ENDMDL
MODEL 6
REMARK VINA RESULT:      -8.3      2.884      5.344
REMARK  6 active torsions:
REMARK  status: ('A' for Active; 'I' for Inactive)
REMARK    1  A    between atoms: O_2  and  C_3 
REMARK    2  A    between atoms: C_3  and  C_4 
REMARK    3  A    between atoms: C_7  and  C_8 
REMARK    4  A    between atoms: C_8  and  O_9 
REMARK    5  A    between atoms: O_9  and  C_10 
REMARK    6  A    between atoms: C_13  and  C_14 
ROOT
HETATM    1  C   UNL     1      42.780 -10.851   6.741  1.00  0.00     0.069 A 
HETATM    2  C   UNL     1      41.696 -11.654   6.384  1.00  0.00     0.037 A 
HETATM    3  C   UNL     1      41.837 -13.043   6.319  1.00  0.00     0.014 A 
HETATM    4  C   UNL     1      43.072 -13.634   6.596  1.00  0.00    -0.035 A 
HETATM    5  C   UNL     1      44.173 -12.824   6.893  1.00  0.00     0.014 A 
HETATM    6  C   UNL     1      44.030 -11.434   6.956  1.00  0.00     0.037 A 
ENDROOT
BRANCH   1   7
HETATM    7  O   UNL     1      42.509  -9.513   6.844  1.00  0.00    -0.347 OA
BRANCH   7   8
HETATM    8  C   UNL     1      43.125  -8.847   7.950  1.00  0.00     0.214 C 
BRANCH   8   9
HETATM    9  C   UNL     1      42.374  -9.174   9.223  1.00  0.00    -0.034 A 
HETATM   10  C   UNL     1      43.066  -9.659  10.342  1.00  0.00     0.010 A 
HETATM   11  C   UNL     1      42.388  -9.950  11.528  1.00  0.00     0.018 A 
HETATM   12  C   UNL     1      41.006  -9.753  11.620  1.00  0.00     0.039 A 
HETATM   13  C   UNL     1      40.309  -9.261  10.509  1.00  0.00     0.018 A 
HETATM   14  C   UNL     1      40.990  -8.971   9.322  1.00  0.00     0.010 A 
BRANCH  12  15
HETATM   15  C   UNL     1      40.338 -10.080  12.910  1.00  0.00     0.292 C 
HETATM   16  O   UNL     1      39.398 -10.854  13.005  1.00  0.00    -0.259 OA
BRANCH  15  17
HETATM   17  O   UNL     1      40.923  -9.416  13.938  1.00  0.00    -0.323 OA
HETATM   18  C   UNL     1      40.517  -8.051  14.047  1.00  0.00     0.213 C 
ENDBRANCH  15  17
ENDBRANCH  12  15
ENDBRANCH   8   9
ENDBRANCH   7   8
ENDBRANCH   1   7
BRANCH   4  19
HETATM   19  C   UNL     1      43.199 -15.089   6.629  1.00  0.00     0.029 C 
HETATM   20  C   UNL     1      43.251 -15.910   5.571  1.00  0.00     0.045 A 
HETATM   21  C   UNL     1      43.362 -17.398   5.787  1.00  0.00     0.257 A 
HETATM   22  C   UNL     1      43.215 -15.683   4.125  1.00  0.00     0.006 A 
HETATM   23  O   UNL     1      43.425 -17.993   6.847  1.00  0.00    -0.267 OA
HETATM   24  N   UNL     1      43.377 -17.944   4.515  1.00  0.00    -0.322 N 
HETATM   25  C   UNL     1      43.293 -16.954   3.539  1.00  0.00     0.046 A 
HETATM   26  H   UNL     1      43.443 -18.936   4.347  1.00  0.00     0.169 HD
HETATM   27  C   UNL     1      43.286 -17.148   2.173  1.00  0.00     0.030 A 
HETATM   28  C   UNL     1      43.202 -16.013   1.366  1.00  0.00     0.002 A 
HETATM   29  C   UNL     1      43.126 -14.729   1.938  1.00  0.00     0.001 A 
HETATM   30  C   UNL     1      43.133 -14.556   3.328  1.00  0.00     0.015 A 
ENDBRANCH   4  19
TORSDOF 6
ENDMDL
MODEL 7
REMARK VINA RESULT:      -8.3      2.999      6.129
REMARK  6 active torsions:
REMARK  status: ('A' for Active; 'I' for Inactive)
REMARK    1  A    between atoms: O_2  and  C_3 
REMARK    2  A    between atoms: C_3  and  C_4 
REMARK    3  A    between atoms: C_7  and  C_8 
REMARK    4  A    between atoms: C_8  and  O_9 
REMARK    5  A    between atoms: O_9  and  C_10 
REMARK    6  A    between atoms: C_13  and  C_14 
ROOT
HETATM    1  C   UNL     1      44.643 -11.283   7.413  1.00  0.00     0.069 A 
HETATM    2  C   UNL     1      43.256 -11.195   7.286  1.00  0.00     0.037 A 
HETATM    3  C   UNL     1      42.654 -11.285   6.028  1.00  0.00     0.014 A 
HETATM    4  C   UNL     1      43.442 -11.450   4.886  1.00  0.00    -0.035 A 
HETATM    5  C   UNL     1      44.835 -11.477   5.008  1.00  0.00     0.014 A 
HETATM    6  C   UNL     1      45.435 -11.384   6.268  1.00  0.00     0.037 A 
ENDROOT
BRANCH   1   7
HETATM    7  O   UNL     1      45.117 -11.255   8.697  1.00  0.00    -0.347 OA
BRANCH   7   8
HETATM    8  C   UNL     1      45.305  -9.950   9.252  1.00  0.00     0.214 C 
BRANCH   8   9
HETATM    9  C   UNL     1      44.390  -9.768  10.444  1.00  0.00    -0.034 A 
HETATM   10  C   UNL     1      43.940  -8.487  10.795  1.00  0.00     0.010 A 
HETATM   11  C   UNL     1      43.082  -8.307  11.883  1.00  0.00     0.018 A 
HETATM   12  C   UNL     1      42.653  -9.406  12.635  1.00  0.00     0.039 A 
HETATM   13  C   UNL     1      43.092 -10.689  12.287  1.00  0.00     0.018 A 
HETATM   14  C   UNL     1      43.951 -10.868  11.197  1.00  0.00     0.010 A 
BRANCH  12  15
HETATM   15  C   UNL     1      41.738  -9.151  13.783  1.00  0.00     0.292 C 
HETATM   16  O   UNL     1      42.080  -8.566  14.799  1.00  0.00    -0.259 OA
BRANCH  15  17
HETATM   17  O   UNL     1      40.501  -9.645  13.532  1.00  0.00    -0.323 OA
HETATM   18  C   UNL     1      39.613  -8.699  12.933  1.00  0.00     0.213 C 
ENDBRANCH  15  17
ENDBRANCH  12  15
ENDBRANCH   8   9
ENDBRANCH   7   8
ENDBRANCH   1   7
BRANCH   4  19
HETATM   19  C   UNL     1      42.814 -11.648   3.582  1.00  0.00     0.029 C 
HETATM   20  C   UNL     1      42.552 -12.822   2.992  1.00  0.00     0.045 A 
HETATM   21  C   UNL     1      41.915 -12.845   1.626  1.00  0.00     0.257 A 
HETATM   22  C   UNL     1      42.765 -14.214   3.394  1.00  0.00     0.006 A 
HETATM   23  O   UNL     1      41.575 -11.892   0.948  1.00  0.00    -0.267 OA
HETATM   24  N   UNL     1      41.799 -14.186   1.307  1.00  0.00    -0.322 N 
HETATM   25  C   UNL     1      42.290 -14.993   2.331  1.00  0.00     0.046 A 
HETATM   26  H   UNL     1      41.403 -14.509   0.438  1.00  0.00     0.169 HD
HETATM   27  C   UNL     1      42.323 -16.372   2.342  1.00  0.00     0.030 A 
HETATM   28  C   UNL     1      42.854 -16.990   3.476  1.00  0.00     0.002 A 
HETATM   29  C   UNL     1      43.333 -16.222   4.554  1.00  0.00     0.001 A 
HETATM   30  C   UNL     1      43.290 -14.822   4.519  1.00  0.00     0.015 A 
ENDBRANCH   4  19
TORSDOF 6
ENDMDL
MODEL 8
REMARK VINA RESULT:      -8.1      4.552      8.328
REMARK  6 active torsions:
REMARK  status: ('A' for Active; 'I' for Inactive)
REMARK    1  A    between atoms: O_2  and  C_3 
REMARK    2  A    between atoms: C_3  and  C_4 
REMARK    3  A    between atoms: C_7  and  C_8 
REMARK    4  A    between atoms: C_8  and  O_9 
REMARK    5  A    between atoms: O_9  and  C_10 
REMARK    6  A    between atoms: C_13  and  C_14 
ROOT
HETATM    1  C   UNL     1      41.012 -13.888   3.452  1.00  0.00     0.069 A 
HETATM    2  C   UNL     1      41.621 -13.047   2.519  1.00  0.00     0.037 A 
HETATM    3  C   UNL     1      41.316 -13.162   1.160  1.00  0.00     0.014 A 
HETATM    4  C   UNL     1      40.410 -14.132   0.725  1.00  0.00    -0.035 A 
HETATM    5  C   UNL     1      39.847 -15.014   1.654  1.00  0.00     0.014 A 
HETATM    6  C   UNL     1      40.155 -14.899   3.014  1.00  0.00     0.037 A 
ENDROOT
BRANCH   1   7
HETATM    7  O   UNL     1      41.329 -13.638   4.760  1.00  0.00    -0.347 OA
BRANCH   7   8
HETATM    8  C   UNL     1      42.704 -13.832   5.106  1.00  0.00     0.214 C 
BRANCH   8   9
HETATM    9  C   UNL     1      43.001 -15.313   5.201  1.00  0.00    -0.034 A 
HETATM   10  C   UNL     1      42.778 -15.998   6.404  1.00  0.00     0.010 A 
HETATM   11  C   UNL     1      43.033 -17.368   6.501  1.00  0.00     0.018 A 
HETATM   12  C   UNL     1      43.508 -18.080   5.394  1.00  0.00     0.039 A 
HETATM   13  C   UNL     1      43.727 -17.404   4.187  1.00  0.00     0.018 A 
HETATM   14  C   UNL     1      43.470 -16.032   4.092  1.00  0.00     0.010 A 
BRANCH  12  15
HETATM   15  C   UNL     1      43.762 -19.538   5.558  1.00  0.00     0.292 C 
HETATM   16  O   UNL     1      43.327 -20.197   6.490  1.00  0.00    -0.259 OA
BRANCH  15  17
HETATM   17  O   UNL     1      44.519 -20.013   4.538  1.00  0.00    -0.323 OA
HETATM   18  C   UNL     1      43.871 -21.021   3.760  1.00  0.00     0.213 C 
ENDBRANCH  15  17
ENDBRANCH  12  15
ENDBRANCH   8   9
ENDBRANCH   7   8
ENDBRANCH   1   7
BRANCH   4  19
HETATM   19  C   UNL     1      40.011 -14.189  -0.678  1.00  0.00     0.029 C 
HETATM   20  C   UNL     1      39.141 -13.378  -1.295  1.00  0.00     0.045 A 
HETATM   21  C   UNL     1      38.825 -13.593  -2.754  1.00  0.00     0.257 A 
HETATM   22  C   UNL     1      38.346 -12.234  -0.843  1.00  0.00     0.006 A 
HETATM   23  O   UNL     1      39.283 -14.441  -3.496  1.00  0.00    -0.267 OA
HETATM   24  N   UNL     1      37.898 -12.613  -3.067  1.00  0.00    -0.322 N 
HETATM   25  C   UNL     1      37.613 -11.815  -1.961  1.00  0.00     0.046 A 
HETATM   26  H   UNL     1      37.500 -12.513  -3.987  1.00  0.00     0.169 HD
HETATM   27  C   UNL     1      36.739 -10.748  -1.926  1.00  0.00     0.030 A 
HETATM   28  C   UNL     1      36.604 -10.074  -0.711  1.00  0.00     0.002 A 
HETATM   29  C   UNL     1      37.335 -10.479   0.421  1.00  0.00     0.001 A 
HETATM   30  C   UNL     1      38.216 -11.567   0.361  1.00  0.00     0.015 A 
ENDBRANCH   4  19
TORSDOF 6
ENDMDL
MODEL 9
REMARK VINA RESULT:      -8.1      4.027     10.490
REMARK  6 active torsions:
REMARK  status: ('A' for Active; 'I' for Inactive)
REMARK    1  A    between atoms: O_2  and  C_3 
REMARK    2  A    between atoms: C_3  and  C_4 
REMARK    3  A    between atoms: C_7  and  C_8 
REMARK    4  A    between atoms: C_8  and  O_9 
REMARK    5  A    between atoms: O_9  and  C_10 
REMARK    6  A    between atoms: C_13  and  C_14 
ROOT
HETATM    1  C   UNL     1      44.039 -11.669   6.988  1.00  0.00     0.069 A 
HETATM    2  C   UNL     1      42.759 -11.117   6.930  1.00  0.00     0.037 A 
HETATM    3  C   UNL     1      42.494  -9.882   7.529  1.00  0.00     0.014 A 
HETATM    4  C   UNL     1      43.509  -9.200   8.204  1.00  0.00    -0.035 A 
HETATM    5  C   UNL     1      44.776  -9.783   8.314  1.00  0.00     0.014 A 
HETATM    6  C   UNL     1      45.038 -11.019   7.715  1.00  0.00     0.037 A 
ENDROOT
BRANCH   1   7
HETATM    7  O   UNL     1      44.202 -12.844   6.306  1.00  0.00    -0.347 OA
BRANCH   7   8
HETATM    8  C   UNL     1      42.995 -13.459   5.846  1.00  0.00     0.214 C 
BRANCH   8   9
HETATM    9  C   UNL     1      43.296 -14.852   5.336  1.00  0.00    -0.034 A 
HETATM   10  C   UNL     1      43.922 -15.787   6.173  1.00  0.00     0.010 A 
HETATM   11  C   UNL     1      44.191 -17.081   5.720  1.00  0.00     0.018 A 
HETATM   12  C   UNL     1      43.830 -17.466   4.425  1.00  0.00     0.039 A 
HETATM   13  C   UNL     1      43.198 -16.541   3.585  1.00  0.00     0.018 A 
HETATM   14  C   UNL     1      42.929 -15.245   4.041  1.00  0.00     0.010 A 
BRANCH  12  15
HETATM   15  C   UNL     1      44.143 -18.859   3.998  1.00  0.00     0.292 C 
HETATM   16  O   UNL     1      44.541 -19.724   4.762  1.00  0.00    -0.259 OA
BRANCH  15  17
HETATM   17  O   UNL     1      43.914 -19.019   2.671  1.00  0.00    -0.323 OA
HETATM   18  C   UNL     1      43.623 -20.366   2.294  1.00  0.00     0.213 C 
ENDBRANCH  15  17
ENDBRANCH  12  15
ENDBRANCH   8   9
ENDBRANCH   7   8
ENDBRANCH   1   7
BRANCH   4  19
HETATM   19  C   UNL     1      43.264  -7.864   8.742  1.00  0.00     0.029 C 
HETATM   20  C   UNL     1      42.952  -7.559  10.009  1.00  0.00     0.045 A 
HETATM   21  C   UNL     1      42.709  -6.121  10.392  1.00  0.00     0.257 A 
HETATM   22  C   UNL     1      42.765  -8.366  11.216  1.00  0.00     0.006 A 
HETATM   23  O   UNL     1      42.771  -5.140   9.674  1.00  0.00    -0.267 OA
HETATM   24  N   UNL     1      42.400  -6.157  11.741  1.00  0.00    -0.322 N 
HETATM   25  C   UNL     1      42.431  -7.460  12.231  1.00  0.00     0.046 A 
HETATM   26  H   UNL     1      42.186  -5.329  12.274  1.00  0.00     0.169 HD
HETATM   27  C   UNL     1      42.177  -7.852  13.530  1.00  0.00     0.030 A 
HETATM   28  C   UNL     1      42.268  -9.216  13.815  1.00  0.00     0.002 A 
HETATM   29  C   UNL     1      42.606 -10.139  12.808  1.00  0.00     0.001 A 
HETATM   30  C   UNL     1      42.859  -9.718  11.496  1.00  0.00     0.015 A 
ENDBRANCH   4  19
TORSDOF 6
ENDMDL
MODEL 10
REMARK VINA RESULT:      -8.1      2.949      6.362
REMARK  6 active torsions:
REMARK  status: ('A' for Active; 'I' for Inactive)
REMARK    1  A    between atoms: O_2  and  C_3 
REMARK    2  A    between atoms: C_3  and  C_4 
REMARK    3  A    between atoms: C_7  and  C_8 
REMARK    4  A    between atoms: C_8  and  O_9 
REMARK    5  A    between atoms: O_9  and  C_10 
REMARK    6  A    between atoms: C_13  and  C_14 
ROOT
HETATM    1  C   UNL     1      44.783  -9.828   8.024  1.00  0.00     0.069 A 
HETATM    2  C   UNL     1      45.681 -10.650   7.342  1.00  0.00     0.037 A 
HETATM    3  C   UNL     1      45.256 -11.407   6.247  1.00  0.00     0.014 A 
HETATM    4  C   UNL     1      43.921 -11.356   5.838  1.00  0.00    -0.035 A 
HETATM    5  C   UNL     1      43.008 -10.580   6.560  1.00  0.00     0.014 A 
HETATM    6  C   UNL     1      43.436  -9.824   7.656  1.00  0.00     0.037 A 
ENDROOT
BRANCH   1   7
HETATM    7  O   UNL     1      45.324  -9.077   9.032  1.00  0.00    -0.347 OA
BRANCH   7   8
HETATM    8  C   UNL     1      45.386  -9.720  10.309  1.00  0.00     0.214 C 
BRANCH   8   9
HETATM    9  C   UNL     1      44.115  -9.440  11.081  1.00  0.00    -0.034 A 
HETATM   10  C   UNL     1      43.533  -8.165  11.040  1.00  0.00     0.010 A 
HETATM   11  C   UNL     1      42.351  -7.898  11.735  1.00  0.00     0.018 A 
HETATM   12  C   UNL     1      41.725  -8.905  12.478  1.00  0.00     0.039 A 
HETATM   13  C   UNL     1      42.295 -10.183  12.519  1.00  0.00     0.018 A 
HETATM   14  C   UNL     1      43.479 -10.448  11.822  1.00  0.00     0.010 A 
BRANCH  12  15
HETATM   15  C   UNL     1      40.467  -8.560  13.199  1.00  0.00     0.292 C 
HETATM   16  O   UNL     1      39.384  -9.062  12.941  1.00  0.00    -0.259 OA
BRANCH  15  17
HETATM   17  O   UNL     1      40.702  -7.639  14.165  1.00  0.00    -0.323 OA
HETATM   18  C   UNL     1      41.166  -8.199  15.395  1.00  0.00     0.213 C 
ENDBRANCH  15  17
ENDBRANCH  12  15
ENDBRANCH   8   9
ENDBRANCH   7   8
ENDBRANCH   1   7
BRANCH   4  19
HETATM   19  C   UNL     1      43.494 -12.065   4.634  1.00  0.00     0.029 C 
HETATM   20  C   UNL     1      43.126 -13.350   4.552  1.00  0.00     0.045 A 
HETATM   21  C   UNL     1      42.732 -13.931   3.218  1.00  0.00     0.257 A 
HETATM   22  C   UNL     1      43.012 -14.424   5.542  1.00  0.00     0.006 A 
HETATM   23  O   UNL     1      42.690 -13.361   2.144  1.00  0.00    -0.267 OA
HETATM   24  N   UNL     1      42.429 -15.256   3.479  1.00  0.00    -0.322 N 
HETATM   25  C   UNL     1      42.588 -15.554   4.830  1.00  0.00     0.046 A 
HETATM   26  H   UNL     1      42.131 -15.899   2.762  1.00  0.00     0.169 HD
HETATM   27  C   UNL     1      42.367 -16.776   5.431  1.00  0.00     0.030 A 
HETATM   28  C   UNL     1      42.579 -16.859   6.808  1.00  0.00     0.002 A 
HETATM   29  C   UNL     1      43.003 -15.733   7.539  1.00  0.00     0.001 A 
HETATM   30  C   UNL     1      43.222 -14.502   6.907  1.00  0.00     0.015 A 
ENDBRANCH   4  19
TORSDOF 6
ENDMDL
