MODEL 1
REMARK VINA RESULT:      -8.5      0.000      0.000
REMARK  10 active torsions:
REMARK  status: ('A' for Active; 'I' for Inactive)
REMARK    1  A    between atoms: C_3  and  C_4 
REMARK    2  A    between atoms: C_4  and  C_5 
REMARK       I    between atoms: C_5  and  N_6 
REMARK    3  A    between atoms: N_6  and  C_7 
REMARK    4  A    between atoms: C_7  and  C_8 
REMARK    5  A    between atoms: C_8  and  O_9 
REMARK    6  A    between atoms: C_15  and  N_16 
REMARK    7  A    between atoms: N_16  and  C_17 
REMARK    8  A    between atoms: C_26  and  C_27 
REMARK    9  A    between atoms: C_27  and  O_28 
REMARK   10  A    between atoms: C_30  and  O_31 
ROOT
HETATM    1  C   UNL     1      39.735 -12.566   5.198  1.00  0.00     0.016 C 
HETATM    2  C   UNL     1      40.542 -12.118   3.936  1.00  0.00    -0.030 C 
HETATM    3  C   UNL     1      42.004 -12.766   3.967  1.00  0.00     0.056 C 
HETATM    4  C   UNL     1      41.962 -14.193   3.464  1.00  0.00     0.055 C 
HETATM    5  C   UNL     1      40.855 -14.782   2.891  1.00  0.00     0.011 C 
HETATM    6  S   UNL     1      41.184 -16.396   2.479  1.00  0.00    -0.060 SA
HETATM    7  C   UNL     1      42.855 -16.122   2.830  1.00  0.00     0.150 C 
HETATM    8  N   UNL     1      43.109 -14.967   3.412  1.00  0.00    -0.232 NA
HETATM    9  C   UNL     1      39.552 -14.119   2.623  1.00  0.00     0.054 C 
HETATM   10  C   UNL     1      39.722 -12.575   2.654  1.00  0.00     0.012 C 
HETATM   11  C   UNL     1      40.160 -11.907   1.273  1.00  0.00     0.008 C 
HETATM   12  C   UNL     1      38.870 -11.804   0.405  1.00  0.00     0.020 C 
HETATM   13  C   UNL     1      40.681 -10.453   1.495  1.00  0.00     0.128 C 
HETATM   14  C   UNL     1      40.131  -9.830   2.769  1.00  0.00     0.033 C 
HETATM   15  C   UNL     1      40.643 -10.561   4.009  1.00  0.00     0.013 C 
ENDROOT
BRANCH   3  16
HETATM   16  C   UNL     1      42.648 -12.676   5.365  1.00  0.00     0.114 C 
BRANCH  16  17
HETATM   17  C   UNL     1      43.960 -11.920   5.441  1.00  0.00     0.218 C 
HETATM   18  N   UNL     1      44.651 -12.038   6.617  1.00  0.00    -0.359 N 
HETATM   19  H   UNL     1      44.427 -12.817   7.241  1.00  0.00     0.162 HD
HETATM   20  O   UNL     1      44.315 -11.170   4.532  1.00  0.00    -0.274 OA
BRANCH  18  21
HETATM   21  C   UNL     1      45.797 -11.203   6.913  1.00  0.00     0.148 C 
BRANCH  21  22
HETATM   22  C   UNL     1      45.581 -10.239   8.087  1.00  0.00     0.186 C 
BRANCH  22  23
HETATM   23  O   UNL     1      45.530 -10.892   9.359  1.00  0.00    -0.394 OA
HETATM   24  C   UNL     1      44.815 -10.150  10.340  1.00  0.00     0.201 C 
ENDBRANCH  22  23
ENDBRANCH  21  22
ENDBRANCH  18  21
ENDBRANCH  16  17
ENDBRANCH   3  16
BRANCH  11  25
HETATM   25  C   UNL     1      41.213 -12.686   0.439  1.00  0.00     0.176 C 
BRANCH  25  26
HETATM   26  O   UNL     1      41.279 -12.239  -0.911  1.00  0.00    -0.400 OA
HETATM   27  H   UNL     1      40.818 -11.381  -0.938  1.00  0.00     0.209 HD
ENDBRANCH  25  26
ENDBRANCH  11  25
BRANCH   7  28
HETATM   28  N   UNL     1      43.767 -17.066   2.480  1.00  0.00    -0.238 NA
HETATM   29  H   UNL     1      44.709 -16.692   2.417  1.00  0.00     0.136 HD
BRANCH  28  30
HETATM   30  C   UNL     1      43.833 -18.327   3.137  1.00  0.00     0.014 A 
HETATM   31  C   UNL     1      44.149 -18.480   4.493  1.00  0.00     0.024 A 
HETATM   32  C   UNL     1      44.215 -19.749   5.078  1.00  0.00     0.002 A 
HETATM   33  C   UNL     1      43.926 -20.883   4.328  1.00  0.00     0.000 A 
HETATM   34  C   UNL     1      43.557 -20.749   2.992  1.00  0.00     0.002 A 
HETATM   35  C   UNL     1      43.499 -19.480   2.407  1.00  0.00     0.024 A 
ENDBRANCH  28  30
ENDBRANCH   7  28
BRANCH  13  36
HETATM   36  O   UNL     1      42.108 -10.425   1.559  1.00  0.00    -0.395 OA
HETATM   37  H   UNL     1      42.452 -11.004   0.855  1.00  0.00     0.210 HD
ENDBRANCH  13  36
TORSDOF 10
ENDMDL
MODEL 2
REMARK VINA RESULT:      -8.1      3.006      7.476
REMARK  10 active torsions:
REMARK  status: ('A' for Active; 'I' for Inactive)
REMARK    1  A    between atoms: C_3  and  C_4 
REMARK    2  A    between atoms: C_4  and  C_5 
REMARK       I    between atoms: C_5  and  N_6 
REMARK    3  A    between atoms: N_6  and  C_7 
REMARK    4  A    between atoms: C_7  and  C_8 
REMARK    5  A    between atoms: C_8  and  O_9 
REMARK    6  A    between atoms: C_15  and  N_16 
REMARK    7  A    between atoms: N_16  and  C_17 
REMARK    8  A    between atoms: C_26  and  C_27 
REMARK    9  A    between atoms: C_27  and  O_28 
REMARK   10  A    between atoms: C_30  and  O_31 
ROOT
HETATM    1  C   UNL     1      43.831 -15.039   1.665  1.00  0.00     0.016 C 
HETATM    2  C   UNL     1      42.516 -15.165   2.503  1.00  0.00    -0.030 C 
HETATM    3  C   UNL     1      42.875 -15.404   4.042  1.00  0.00     0.056 C 
HETATM    4  C   UNL     1      43.210 -14.092   4.719  1.00  0.00     0.055 C 
HETATM    5  C   UNL     1      43.048 -12.854   4.134  1.00  0.00     0.011 C 
HETATM    6  S   UNL     1      43.556 -11.624   5.189  1.00  0.00    -0.060 SA
HETATM    7  C   UNL     1      43.693 -12.796   6.453  1.00  0.00     0.150 C 
HETATM    8  N   UNL     1      43.568 -14.047   6.056  1.00  0.00    -0.232 NA
HETATM    9  C   UNL     1      42.481 -12.591   2.786  1.00  0.00     0.054 C 
HETATM   10  C   UNL     1      41.683 -13.829   2.291  1.00  0.00     0.012 C 
HETATM   11  C   UNL     1      40.154 -13.884   2.746  1.00  0.00     0.008 C 
HETATM   12  C   UNL     1      39.376 -12.931   1.789  1.00  0.00     0.020 C 
HETATM   13  C   UNL     1      39.563 -15.314   2.549  1.00  0.00     0.128 C 
HETATM   14  C   UNL     1      40.314 -16.110   1.493  1.00  0.00     0.033 C 
HETATM   15  C   UNL     1      41.748 -16.399   1.933  1.00  0.00     0.013 C 
ENDROOT
BRANCH   3  16
HETATM   16  C   UNL     1      44.005 -16.439   4.221  1.00  0.00     0.114 C 
BRANCH  16  17
HETATM   17  C   UNL     1      43.648 -17.675   5.022  1.00  0.00     0.218 C 
HETATM   18  N   UNL     1      44.367 -18.803   4.733  1.00  0.00    -0.359 N 
HETATM   19  H   UNL     1      45.259 -18.704   4.242  1.00  0.00     0.162 HD
HETATM   20  O   UNL     1      42.698 -17.673   5.806  1.00  0.00    -0.274 OA
BRANCH  18  21
HETATM   21  C   UNL     1      43.990 -20.102   5.255  1.00  0.00     0.148 C 
BRANCH  21  22
HETATM   22  C   UNL     1      43.645 -21.133   4.173  1.00  0.00     0.186 C 
BRANCH  22  23
HETATM   23  O   UNL     1      44.113 -20.771   2.870  1.00  0.00    -0.394 OA
HETATM   24  C   UNL     1      43.083 -20.276   2.023  1.00  0.00     0.201 C 
ENDBRANCH  22  23
ENDBRANCH  21  22
ENDBRANCH  18  21
ENDBRANCH  16  17
ENDBRANCH   3  16
BRANCH  11  25
HETATM   25  C   UNL     1      39.854 -13.422   4.198  1.00  0.00     0.176 C 
BRANCH  25  26
HETATM   26  O   UNL     1      39.337 -12.096   4.252  1.00  0.00    -0.400 OA
HETATM   27  H   UNL     1      38.368 -12.178   4.199  1.00  0.00     0.209 HD
ENDBRANCH  25  26
ENDBRANCH  11  25
BRANCH   7  28
HETATM   28  N   UNL     1      43.891 -12.372   7.729  1.00  0.00    -0.238 NA
HETATM   29  H   UNL     1      44.392 -13.053   8.292  1.00  0.00     0.136 HD
BRANCH  28  30
HETATM   30  C   UNL     1      44.419 -11.082   8.018  1.00  0.00     0.014 A 
HETATM   31  C   UNL     1      45.748 -10.714   7.770  1.00  0.00     0.024 A 
HETATM   32  C   UNL     1      46.212  -9.435   8.092  1.00  0.00     0.002 A 
HETATM   33  C   UNL     1      45.346  -8.489   8.630  1.00  0.00     0.000 A 
HETATM   34  C   UNL     1      44.009  -8.818   8.834  1.00  0.00     0.002 A 
HETATM   35  C   UNL     1      43.548 -10.100   8.518  1.00  0.00     0.024 A 
ENDBRANCH  28  30
ENDBRANCH   7  28
BRANCH  13  36
HETATM   36  O   UNL     1      39.590 -16.052   3.772  1.00  0.00    -0.395 OA
HETATM   37  H   UNL     1      39.862 -16.964   3.567  1.00  0.00     0.210 HD
ENDBRANCH  13  36
TORSDOF 10
ENDMDL
MODEL 3
REMARK VINA RESULT:      -7.7      3.388      7.929
REMARK  10 active torsions:
REMARK  status: ('A' for Active; 'I' for Inactive)
REMARK    1  A    between atoms: C_3  and  C_4 
REMARK    2  A    between atoms: C_4  and  C_5 
REMARK       I    between atoms: C_5  and  N_6 
REMARK    3  A    between atoms: N_6  and  C_7 
REMARK    4  A    between atoms: C_7  and  C_8 
REMARK    5  A    between atoms: C_8  and  O_9 
REMARK    6  A    between atoms: C_15  and  N_16 
REMARK    7  A    between atoms: N_16  and  C_17 
REMARK    8  A    between atoms: C_26  and  C_27 
REMARK    9  A    between atoms: C_27  and  O_28 
REMARK   10  A    between atoms: C_30  and  O_31 
ROOT
HETATM    1  C   UNL     1      43.271 -12.869   3.568  1.00  0.00     0.016 C 
HETATM    2  C   UNL     1      42.149 -12.883   4.657  1.00  0.00    -0.030 C 
HETATM    3  C   UNL     1      42.766 -13.317   6.067  1.00  0.00     0.056 C 
HETATM    4  C   UNL     1      43.435 -12.137   6.738  1.00  0.00     0.055 C 
HETATM    5  C   UNL     1      43.361 -10.839   6.280  1.00  0.00     0.011 C 
HETATM    6  S   UNL     1      44.260  -9.801   7.279  1.00  0.00    -0.060 SA
HETATM    7  C   UNL     1      44.458 -11.096   8.408  1.00  0.00     0.150 C 
HETATM    8  N   UNL     1      44.056 -12.272   7.968  1.00  0.00    -0.232 NA
HETATM    9  C   UNL     1      42.584 -10.370   5.103  1.00  0.00     0.054 C 
HETATM   10  C   UNL     1      41.515 -11.428   4.712  1.00  0.00     0.012 C 
HETATM   11  C   UNL     1      40.120 -11.305   5.477  1.00  0.00     0.008 C 
HETATM   12  C   UNL     1      39.329 -10.164   4.770  1.00  0.00     0.020 C 
HETATM   13  C   UNL     1      39.279 -12.610   5.321  1.00  0.00     0.128 C 
HETATM   14  C   UNL     1      39.666 -13.402   4.080  1.00  0.00     0.033 C 
HETATM   15  C   UNL     1      41.094 -13.935   4.186  1.00  0.00     0.013 C 
ENDROOT
BRANCH   3  16
HETATM   16  C   UNL     1      43.727 -14.516   5.935  1.00  0.00     0.114 C 
BRANCH  16  17
HETATM   17  C   UNL     1      43.209 -15.840   6.462  1.00  0.00     0.218 C 
HETATM   18  N   UNL     1      43.953 -16.942   6.141  1.00  0.00    -0.359 N 
HETATM   19  H   UNL     1      44.922 -16.811   5.842  1.00  0.00     0.162 HD
HETATM   20  O   UNL     1      42.130 -15.912   7.051  1.00  0.00    -0.274 OA
BRANCH  18  21
HETATM   21  C   UNL     1      43.466 -18.286   6.383  1.00  0.00     0.148 C 
BRANCH  21  22
HETATM   22  C   UNL     1      43.934 -19.316   5.347  1.00  0.00     0.186 C 
BRANCH  22  23
HETATM   23  O   UNL     1      44.692 -18.744   4.276  1.00  0.00    -0.394 OA
HETATM   24  C   UNL     1      44.048 -18.855   3.013  1.00  0.00     0.201 C 
ENDBRANCH  22  23
ENDBRANCH  21  22
ENDBRANCH  18  21
ENDBRANCH  16  17
ENDBRANCH   3  16
BRANCH  11  25
HETATM   25  C   UNL     1      40.195 -10.945   6.986  1.00  0.00     0.176 C 
BRANCH  25  26
HETATM   26  O   UNL     1      38.941 -11.091   7.644  1.00  0.00    -0.400 OA
HETATM   27  H   UNL     1      38.775 -12.050   7.708  1.00  0.00     0.209 HD
ENDBRANCH  25  26
ENDBRANCH  11  25
BRANCH   7  28
HETATM   28  N   UNL     1      44.973 -10.828   9.637  1.00  0.00    -0.238 NA
HETATM   29  H   UNL     1      45.883 -10.381   9.588  1.00  0.00     0.136 HD
BRANCH  28  30
HETATM   30  C   UNL     1      44.209 -10.174  10.645  1.00  0.00     0.014 A 
HETATM   31  C   UNL     1      44.026  -8.786  10.700  1.00  0.00     0.024 A 
HETATM   32  C   UNL     1      43.278  -8.200  11.727  1.00  0.00     0.002 A 
HETATM   33  C   UNL     1      42.667  -8.995  12.692  1.00  0.00     0.000 A 
HETATM   34  C   UNL     1      42.793 -10.379  12.623  1.00  0.00     0.002 A 
HETATM   35  C   UNL     1      43.547 -10.963  11.600  1.00  0.00     0.024 A 
ENDBRANCH  28  30
ENDBRANCH   7  28
BRANCH  13  36
HETATM   36  O   UNL     1      39.432 -13.457   6.461  1.00  0.00    -0.395 OA
HETATM   37  H   UNL     1      38.893 -13.088   7.183  1.00  0.00     0.210 HD
ENDBRANCH  13  36
TORSDOF 10
ENDMDL
MODEL 4
REMARK VINA RESULT:      -7.4      2.839      6.775
REMARK  10 active torsions:
REMARK  status: ('A' for Active; 'I' for Inactive)
REMARK    1  A    between atoms: C_3  and  C_4 
REMARK    2  A    between atoms: C_4  and  C_5 
REMARK       I    between atoms: C_5  and  N_6 
REMARK    3  A    between atoms: N_6  and  C_7 
REMARK    4  A    between atoms: C_7  and  C_8 
REMARK    5  A    between atoms: C_8  and  O_9 
REMARK    6  A    between atoms: C_15  and  N_16 
REMARK    7  A    between atoms: N_16  and  C_17 
REMARK    8  A    between atoms: C_26  and  C_27 
REMARK    9  A    between atoms: C_27  and  O_28 
REMARK   10  A    between atoms: C_30  and  O_31 
ROOT
HETATM    1  C   UNL     1      40.641 -14.456   6.706  1.00  0.00     0.016 C 
HETATM    2  C   UNL     1      41.741 -13.805   5.805  1.00  0.00    -0.030 C 
HETATM    3  C   UNL     1      41.976 -14.701   4.502  1.00  0.00     0.056 C 
HETATM    4  C   UNL     1      40.916 -14.411   3.461  1.00  0.00     0.055 C 
HETATM    5  C   UNL     1      39.995 -13.391   3.555  1.00  0.00     0.011 C 
HETATM    6  S   UNL     1      38.956 -13.399   2.212  1.00  0.00    -0.060 SA
HETATM    7  C   UNL     1      39.972 -14.578   1.461  1.00  0.00     0.150 C 
HETATM    8  N   UNL     1      40.904 -15.079   2.248  1.00  0.00    -0.232 NA
HETATM    9  C   UNL     1      39.913 -12.384   4.645  1.00  0.00     0.054 C 
HETATM   10  C   UNL     1      41.251 -12.340   5.434  1.00  0.00     0.012 C 
HETATM   11  C   UNL     1      42.365 -11.364   4.838  1.00  0.00     0.008 C 
HETATM   12  C   UNL     1      41.982  -9.926   5.299  1.00  0.00     0.020 C 
HETATM   13  C   UNL     1      43.768 -11.682   5.442  1.00  0.00     0.128 C 
HETATM   14  C   UNL     1      43.672 -12.372   6.794  1.00  0.00     0.033 C 
HETATM   15  C   UNL     1      43.043 -13.758   6.666  1.00  0.00     0.013 C 
ENDROOT
BRANCH   3  16
HETATM   16  C   UNL     1      42.046 -16.205   4.837  1.00  0.00     0.114 C 
BRANCH  16  17
HETATM   17  C   UNL     1      43.205 -16.966   4.225  1.00  0.00     0.218 C 
HETATM   18  N   UNL     1      42.924 -17.665   3.082  1.00  0.00    -0.359 N 
HETATM   19  H   UNL     1      42.084 -17.422   2.552  1.00  0.00     0.162 HD
HETATM   20  O   UNL     1      44.298 -17.023   4.789  1.00  0.00    -0.274 OA
BRANCH  18  21
HETATM   21  C   UNL     1      43.867 -18.609   2.516  1.00  0.00     0.148 C 
BRANCH  21  22
HETATM   22  C   UNL     1      43.246 -19.955   2.125  1.00  0.00     0.186 C 
BRANCH  22  23
HETATM   23  O   UNL     1      43.853 -21.075   2.778  1.00  0.00    -0.394 OA
HETATM   24  C   UNL     1      43.932 -20.923   4.190  1.00  0.00     0.201 C 
ENDBRANCH  22  23
ENDBRANCH  21  22
ENDBRANCH  18  21
ENDBRANCH  16  17
ENDBRANCH   3  16
BRANCH  11  25
HETATM   25  C   UNL     1      42.490 -11.333   3.290  1.00  0.00     0.176 C 
BRANCH  25  26
HETATM   26  O   UNL     1      42.031 -10.106   2.731  1.00  0.00    -0.400 OA
HETATM   27  H   UNL     1      41.433  -9.712   3.391  1.00  0.00     0.209 HD
ENDBRANCH  25  26
ENDBRANCH  11  25
BRANCH   7  28
HETATM   28  N   UNL     1      39.771 -14.888   0.153  1.00  0.00    -0.238 NA
HETATM   29  H   UNL     1      38.896 -15.380  -0.000  1.00  0.00     0.136 HD
BRANCH  28  30
HETATM   30  C   UNL     1      39.923 -13.919  -0.880  1.00  0.00     0.014 A 
HETATM   31  C   UNL     1      39.170 -13.921  -2.061  1.00  0.00     0.024 A 
HETATM   32  C   UNL     1      39.379 -12.951  -3.048  1.00  0.00     0.002 A 
HETATM   33  C   UNL     1      40.314 -11.940  -2.852  1.00  0.00     0.000 A 
HETATM   34  C   UNL     1      41.033 -11.890  -1.662  1.00  0.00     0.002 A 
HETATM   35  C   UNL     1      40.830 -12.864  -0.680  1.00  0.00     0.024 A 
ENDBRANCH  28  30
ENDBRANCH   7  28
BRANCH  13  36
HETATM   36  O   UNL     1      44.526 -12.515   4.564  1.00  0.00    -0.395 OA
HETATM   37  H   UNL     1      44.488 -12.125   3.672  1.00  0.00     0.210 HD
ENDBRANCH  13  36
TORSDOF 10
ENDMDL
MODEL 5
REMARK VINA RESULT:      -7.4      3.611      7.859
REMARK  10 active torsions:
REMARK  status: ('A' for Active; 'I' for Inactive)
REMARK    1  A    between atoms: C_3  and  C_4 
REMARK    2  A    between atoms: C_4  and  C_5 
REMARK       I    between atoms: C_5  and  N_6 
REMARK    3  A    between atoms: N_6  and  C_7 
REMARK    4  A    between atoms: C_7  and  C_8 
REMARK    5  A    between atoms: C_8  and  O_9 
REMARK    6  A    between atoms: C_15  and  N_16 
REMARK    7  A    between atoms: N_16  and  C_17 
REMARK    8  A    between atoms: C_26  and  C_27 
REMARK    9  A    between atoms: C_27  and  O_28 
REMARK   10  A    between atoms: C_30  and  O_31 
ROOT
HETATM    1  C   UNL     1      42.121  -6.874   7.844  1.00  0.00     0.016 C 
HETATM    2  C   UNL     1      41.786  -7.989   8.889  1.00  0.00    -0.030 C 
HETATM    3  C   UNL     1      41.531  -9.378   8.138  1.00  0.00     0.056 C 
HETATM    4  C   UNL     1      42.846 -10.050   7.805  1.00  0.00     0.055 C 
HETATM    5  C   UNL     1      44.075  -9.613   8.250  1.00  0.00     0.011 C 
HETATM    6  S   UNL     1      45.315 -10.605   7.648  1.00  0.00    -0.060 SA
HETATM    7  C   UNL     1      44.119 -11.710   7.068  1.00  0.00     0.150 C 
HETATM    8  N   UNL     1      42.881 -11.263   7.139  1.00  0.00    -0.232 NA
HETATM    9  C   UNL     1      44.318  -8.461   9.158  1.00  0.00     0.054 C 
HETATM   10  C   UNL     1      43.008  -8.081   9.901  1.00  0.00     0.012 C 
HETATM   11  C   UNL     1      42.732  -8.880  11.254  1.00  0.00     0.008 C 
HETATM   12  C   UNL     1      43.613  -8.208  12.349  1.00  0.00     0.020 C 
HETATM   13  C   UNL     1      41.246  -8.725  11.702  1.00  0.00     0.128 C 
HETATM   14  C   UNL     1      40.602  -7.464  11.144  1.00  0.00     0.033 C 
HETATM   15  C   UNL     1      40.487  -7.529   9.622  1.00  0.00     0.013 C 
ENDROOT
BRANCH   3  16
HETATM   16  C   UNL     1      40.648  -9.207   6.886  1.00  0.00     0.114 C 
BRANCH  16  17
HETATM   17  C   UNL     1      39.683 -10.339   6.598  1.00  0.00     0.218 C 
HETATM   18  N   UNL     1      40.221 -11.445   5.997  1.00  0.00    -0.359 N 
HETATM   19  H   UNL     1      41.234 -11.582   6.038  1.00  0.00     0.162 HD
HETATM   20  O   UNL     1      38.476 -10.214   6.804  1.00  0.00    -0.274 OA
BRANCH  18  21
HETATM   21  C   UNL     1      39.387 -12.504   5.464  1.00  0.00     0.148 C 
BRANCH  21  22
HETATM   22  C   UNL     1      39.444 -12.636   3.938  1.00  0.00     0.186 C 
BRANCH  22  23
HETATM   23  O   UNL     1      40.616 -12.053   3.358  1.00  0.00    -0.394 OA
HETATM   24  C   UNL     1      41.085 -12.760   2.216  1.00  0.00     0.201 C 
ENDBRANCH  22  23
ENDBRANCH  21  22
ENDBRANCH  18  21
ENDBRANCH  16  17
ENDBRANCH   3  16
BRANCH  11  25
HETATM   25  C   UNL     1      43.088 -10.392  11.242  1.00  0.00     0.176 C 
BRANCH  25  26
HETATM   26  O   UNL     1      42.842 -11.020  12.496  1.00  0.00    -0.400 OA
HETATM   27  H   UNL     1      43.140 -11.943  12.402  1.00  0.00     0.209 HD
ENDBRANCH  25  26
ENDBRANCH  11  25
BRANCH   7  28
HETATM   28  N   UNL     1      44.510 -12.930   6.615  1.00  0.00    -0.238 NA
HETATM   29  H   UNL     1      45.313 -13.293   7.119  1.00  0.00     0.136 HD
BRANCH  28  30
HETATM   30  C   UNL     1      43.583 -13.995   6.430  1.00  0.00     0.014 A 
HETATM   31  C   UNL     1      43.147 -14.832   7.465  1.00  0.00     0.024 A 
HETATM   32  C   UNL     1      42.247 -15.874   7.217  1.00  0.00     0.002 A 
HETATM   33  C   UNL     1      41.737 -16.070   5.938  1.00  0.00     0.000 A 
HETATM   34  C   UNL     1      42.116 -15.216   4.907  1.00  0.00     0.002 A 
HETATM   35  C   UNL     1      43.022 -14.179   5.155  1.00  0.00     0.024 A 
ENDBRANCH  28  30
ENDBRANCH   7  28
BRANCH  13  36
HETATM   36  O   UNL     1      40.467  -9.849  11.290  1.00  0.00    -0.395 OA
HETATM   37  H   UNL     1      39.929 -10.136  12.049  1.00  0.00     0.210 HD
ENDBRANCH  13  36
TORSDOF 10
ENDMDL
MODEL 6
REMARK VINA RESULT:      -7.2      3.906      6.532
REMARK  10 active torsions:
REMARK  status: ('A' for Active; 'I' for Inactive)
REMARK    1  A    between atoms: C_3  and  C_4 
REMARK    2  A    between atoms: C_4  and  C_5 
REMARK       I    between atoms: C_5  and  N_6 
REMARK    3  A    between atoms: N_6  and  C_7 
REMARK    4  A    between atoms: C_7  and  C_8 
REMARK    5  A    between atoms: C_8  and  O_9 
REMARK    6  A    between atoms: C_15  and  N_16 
REMARK    7  A    between atoms: N_16  and  C_17 
REMARK    8  A    between atoms: C_26  and  C_27 
REMARK    9  A    between atoms: C_27  and  O_28 
REMARK   10  A    between atoms: C_30  and  O_31 
ROOT
HETATM    1  C   UNL     1      38.461  -8.992   0.106  1.00  0.00     0.016 C 
HETATM    2  C   UNL     1      39.324  -9.896  -0.835  1.00  0.00    -0.030 C 
HETATM    3  C   UNL     1      40.808 -10.024  -0.254  1.00  0.00     0.056 C 
HETATM    4  C   UNL     1      40.861 -11.070   0.840  1.00  0.00     0.055 C 
HETATM    5  C   UNL     1      39.818 -11.914   1.157  1.00  0.00     0.011 C 
HETATM    6  S   UNL     1      40.243 -12.926   2.454  1.00  0.00    -0.060 SA
HETATM    7  C   UNL     1      41.875 -12.370   2.323  1.00  0.00     0.150 C 
HETATM    8  N   UNL     1      42.042 -11.349   1.507  1.00  0.00    -0.232 NA
HETATM    9  C   UNL     1      38.506 -11.982   0.464  1.00  0.00     0.054 C 
HETATM   10  C   UNL     1      38.604 -11.309  -0.933  1.00  0.00     0.012 C 
HETATM   11  C   UNL     1      39.096 -12.259  -2.117  1.00  0.00     0.008 C 
HETATM   12  C   UNL     1      37.858 -13.101  -2.549  1.00  0.00     0.020 C 
HETATM   13  C   UNL     1      39.538 -11.423  -3.358  1.00  0.00     0.128 C 
HETATM   14  C   UNL     1      38.884 -10.050  -3.393  1.00  0.00     0.033 C 
HETATM   15  C   UNL     1      39.351  -9.184  -2.224  1.00  0.00     0.013 C 
ENDROOT
BRANCH   3  16
HETATM   16  C   UNL     1      41.361  -8.668   0.230  1.00  0.00     0.114 C 
BRANCH  16  17
HETATM   17  C   UNL     1      42.484  -8.079  -0.599  1.00  0.00     0.218 C 
HETATM   18  N   UNL     1      42.561  -6.713  -0.616  1.00  0.00    -0.359 N 
HETATM   19  H   UNL     1      42.085  -6.185   0.119  1.00  0.00     0.162 HD
HETATM   20  O   UNL     1      43.208  -8.796  -1.290  1.00  0.00    -0.274 OA
BRANCH  18  21
HETATM   21  C   UNL     1      43.436  -6.010  -1.534  1.00  0.00     0.148 C 
BRANCH  21  22
HETATM   22  C   UNL     1      42.798  -5.706  -2.895  1.00  0.00     0.186 C 
BRANCH  22  23
HETATM   23  O   UNL     1      43.107  -6.678  -3.900  1.00  0.00    -0.394 OA
HETATM   24  C   UNL     1      41.973  -7.427  -4.320  1.00  0.00     0.201 C 
ENDBRANCH  22  23
ENDBRANCH  21  22
ENDBRANCH  18  21
ENDBRANCH  16  17
ENDBRANCH   3  16
BRANCH  11  25
HETATM   25  C   UNL     1      40.232 -13.259  -1.767  1.00  0.00     0.176 C 
BRANCH  25  26
HETATM   26  O   UNL     1      40.739 -13.932  -2.914  1.00  0.00    -0.400 OA
HETATM   27  H   UNL     1      40.371 -13.468  -3.688  1.00  0.00     0.209 HD
ENDBRANCH  25  26
ENDBRANCH  11  25
BRANCH   7  28
HETATM   28  N   UNL     1      42.848 -13.007   3.025  1.00  0.00    -0.238 NA
HETATM   29  H   UNL     1      42.885 -12.712   3.996  1.00  0.00     0.136 HD
BRANCH  28  30
HETATM   30  C   UNL     1      42.998 -14.422   2.985  1.00  0.00     0.014 A 
HETATM   31  C   UNL     1      43.234 -15.144   1.808  1.00  0.00     0.024 A 
HETATM   32  C   UNL     1      43.355 -16.538   1.830  1.00  0.00     0.002 A 
HETATM   33  C   UNL     1      43.283 -17.229   3.036  1.00  0.00     0.000 A 
HETATM   34  C   UNL     1      43.104 -16.525   4.222  1.00  0.00     0.002 A 
HETATM   35  C   UNL     1      42.976 -15.133   4.197  1.00  0.00     0.024 A 
ENDBRANCH  28  30
ENDBRANCH   7  28
BRANCH  13  36
HETATM   36  O   UNL     1      40.955 -11.248  -3.379  1.00  0.00    -0.395 OA
HETATM   37  H   UNL     1      41.276 -11.283  -2.460  1.00  0.00     0.210 HD
ENDBRANCH  13  36
TORSDOF 10
ENDMDL
MODEL 7
REMARK VINA RESULT:      -7.2      4.923      9.109
REMARK  10 active torsions:
REMARK  status: ('A' for Active; 'I' for Inactive)
REMARK    1  A    between atoms: C_3  and  C_4 
REMARK    2  A    between atoms: C_4  and  C_5 
REMARK       I    between atoms: C_5  and  N_6 
REMARK    3  A    between atoms: N_6  and  C_7 
REMARK    4  A    between atoms: C_7  and  C_8 
REMARK    5  A    between atoms: C_8  and  O_9 
REMARK    6  A    between atoms: C_15  and  N_16 
REMARK    7  A    between atoms: N_16  and  C_17 
REMARK    8  A    between atoms: C_26  and  C_27 
REMARK    9  A    between atoms: C_27  and  O_28 
REMARK   10  A    between atoms: C_30  and  O_31 
ROOT
HETATM    1  C   UNL     1      42.579  -5.743  10.693  1.00  0.00     0.016 C 
HETATM    2  C   UNL     1      41.606  -6.952  10.882  1.00  0.00    -0.030 C 
HETATM    3  C   UNL     1      41.679  -7.913   9.605  1.00  0.00     0.056 C 
HETATM    4  C   UNL     1      42.879  -8.832   9.702  1.00  0.00     0.055 C 
HETATM    5  C   UNL     1      43.681  -8.945  10.817  1.00  0.00     0.011 C 
HETATM    6  S   UNL     1      44.938 -10.052  10.537  1.00  0.00    -0.060 SA
HETATM    7  C   UNL     1      44.172 -10.515   9.058  1.00  0.00     0.150 C 
HETATM    8  N   UNL     1      43.161  -9.747   8.702  1.00  0.00    -0.232 NA
HETATM    9  C   UNL     1      43.485  -8.241  12.111  1.00  0.00     0.054 C 
HETATM   10  C   UNL     1      42.030  -7.707  12.214  1.00  0.00     0.012 C 
HETATM   11  C   UNL     1      40.962  -8.738  12.800  1.00  0.00     0.008 C 
HETATM   12  C   UNL     1      41.137  -8.721  14.348  1.00  0.00     0.020 C 
HETATM   13  C   UNL     1      39.506  -8.268  12.497  1.00  0.00     0.128 C 
HETATM   14  C   UNL     1      39.418  -6.765  12.275  1.00  0.00     0.033 C 
HETATM   15  C   UNL     1      40.173  -6.346  11.015  1.00  0.00     0.013 C 
ENDROOT
BRANCH   3  16
HETATM   16  C   UNL     1      41.677  -7.120   8.282  1.00  0.00     0.114 C 
BRANCH  16  17
HETATM   17  C   UNL     1      40.866  -7.724   7.153  1.00  0.00     0.218 C 
HETATM   18  N   UNL     1      41.563  -8.494   6.262  1.00  0.00    -0.359 N 
HETATM   19  H   UNL     1      42.477  -8.859   6.539  1.00  0.00     0.162 HD
HETATM   20  O   UNL     1      39.676  -7.443   7.003  1.00  0.00    -0.274 OA
BRANCH  18  21
HETATM   21  C   UNL     1      40.969  -8.947   5.019  1.00  0.00     0.148 C 
BRANCH  21  22
HETATM   22  C   UNL     1      40.464 -10.395   5.060  1.00  0.00     0.186 C 
BRANCH  22  23
HETATM   23  O   UNL     1      39.062 -10.503   5.327  1.00  0.00    -0.394 OA
HETATM   24  C   UNL     1      38.776 -10.888   6.667  1.00  0.00     0.201 C 
ENDBRANCH  22  23
ENDBRANCH  21  22
ENDBRANCH  18  21
ENDBRANCH  16  17
ENDBRANCH   3  16
BRANCH  11  25
HETATM   25  C   UNL     1      41.110 -10.214  12.337  1.00  0.00     0.176 C 
BRANCH  25  26
HETATM   26  O   UNL     1      40.156 -11.075  12.950  1.00  0.00    -0.400 OA
HETATM   27  H   UNL     1      40.440 -11.985  12.748  1.00  0.00     0.209 HD
ENDBRANCH  25  26
ENDBRANCH  11  25
BRANCH   7  28
HETATM   28  N   UNL     1      44.626 -11.609   8.392  1.00  0.00    -0.238 NA
HETATM   29  H   UNL     1      44.592 -12.451   8.958  1.00  0.00     0.136 HD
BRANCH  28  30
HETATM   30  C   UNL     1      44.169 -11.934   7.084  1.00  0.00     0.014 A 
HETATM   31  C   UNL     1      44.496 -11.192   5.941  1.00  0.00     0.024 A 
HETATM   32  C   UNL     1      44.001 -11.553   4.683  1.00  0.00     0.002 A 
HETATM   33  C   UNL     1      43.204 -12.684   4.541  1.00  0.00     0.000 A 
HETATM   34  C   UNL     1      42.912 -13.465   5.655  1.00  0.00     0.002 A 
HETATM   35  C   UNL     1      43.402 -13.099   6.913  1.00  0.00     0.024 A 
ENDBRANCH  28  30
ENDBRANCH   7  28
BRANCH  13  36
HETATM   36  O   UNL     1      38.986  -8.925  11.340  1.00  0.00    -0.395 OA
HETATM   37  H   UNL     1      38.902  -9.873  11.545  1.00  0.00     0.210 HD
ENDBRANCH  13  36
TORSDOF 10
ENDMDL
MODEL 8
REMARK VINA RESULT:      -6.9     16.443     18.283
REMARK  10 active torsions:
REMARK  status: ('A' for Active; 'I' for Inactive)
REMARK    1  A    between atoms: C_3  and  C_4 
REMARK    2  A    between atoms: C_4  and  C_5 
REMARK       I    between atoms: C_5  and  N_6 
REMARK    3  A    between atoms: N_6  and  C_7 
REMARK    4  A    between atoms: C_7  and  C_8 
REMARK    5  A    between atoms: C_8  and  O_9 
REMARK    6  A    between atoms: C_15  and  N_16 
REMARK    7  A    between atoms: N_16  and  C_17 
REMARK    8  A    between atoms: C_26  and  C_27 
REMARK    9  A    between atoms: C_27  and  O_28 
REMARK   10  A    between atoms: C_30  and  O_31 
ROOT
HETATM    1  C   UNL     1      44.412 -32.257  -1.572  1.00  0.00     0.016 C 
HETATM    2  C   UNL     1      44.861 -30.866  -1.015  1.00  0.00    -0.030 C 
HETATM    3  C   UNL     1      44.621 -30.812   0.565  1.00  0.00     0.056 C 
HETATM    4  C   UNL     1      45.753 -31.499   1.298  1.00  0.00     0.055 C 
HETATM    5  C   UNL     1      46.910 -31.944   0.695  1.00  0.00     0.011 C 
HETATM    6  S   UNL     1      47.930 -32.685   1.834  1.00  0.00    -0.060 SA
HETATM    7  C   UNL     1      46.894 -32.118   3.097  1.00  0.00     0.150 C 
HETATM    8  N   UNL     1      45.759 -31.592   2.679  1.00  0.00    -0.232 NA
HETATM    9  C   UNL     1      47.267 -31.784  -0.739  1.00  0.00     0.054 C 
HETATM   10  C   UNL     1      46.394 -30.673  -1.386  1.00  0.00     0.012 C 
HETATM   11  C   UNL     1      46.962 -29.189  -1.247  1.00  0.00     0.008 C 
HETATM   12  C   UNL     1      48.064 -29.035  -2.338  1.00  0.00     0.020 C 
HETATM   13  C   UNL     1      45.855 -28.135  -1.561  1.00  0.00     0.128 C 
HETATM   14  C   UNL     1      44.755 -28.699  -2.448  1.00  0.00     0.033 C 
HETATM   15  C   UNL     1      43.974 -29.799  -1.730  1.00  0.00     0.013 C 
ENDROOT
BRANCH   3  16
HETATM   16  C   UNL     1      43.250 -31.395   0.964  1.00  0.00     0.114 C 
BRANCH  16  17
HETATM   17  C   UNL     1      42.404 -30.529   1.876  1.00  0.00     0.218 C 
HETATM   18  N   UNL     1      42.405 -30.877   3.200  1.00  0.00    -0.359 N 
HETATM   19  H   UNL     1      43.158 -31.473   3.550  1.00  0.00     0.162 HD
HETATM   20  O   UNL     1      41.687 -29.638   1.422  1.00  0.00    -0.274 OA
BRANCH  18  21
HETATM   21  C   UNL     1      41.477 -30.285   4.143  1.00  0.00     0.148 C 
BRANCH  21  22
HETATM   22  C   UNL     1      41.087 -31.211   5.302  1.00  0.00     0.186 C 
BRANCH  22  23
HETATM   23  O   UNL     1      39.689 -31.512   5.347  1.00  0.00    -0.394 OA
HETATM   24  C   UNL     1      39.332 -32.632   4.545  1.00  0.00     0.201 C 
ENDBRANCH  22  23
ENDBRANCH  21  22
ENDBRANCH  18  21
ENDBRANCH  16  17
ENDBRANCH   3  16
BRANCH  11  25
HETATM   25  C   UNL     1      47.612 -28.829   0.117  1.00  0.00     0.176 C 
BRANCH  25  26
HETATM   26  O   UNL     1      48.115 -27.497   0.146  1.00  0.00    -0.400 OA
HETATM   27  H   UNL     1      47.343 -26.911   0.045  1.00  0.00     0.209 HD
ENDBRANCH  25  26
ENDBRANCH  11  25
BRANCH   7  28
HETATM   28  N   UNL     1      47.305 -32.225   4.387  1.00  0.00    -0.238 NA
HETATM   29  H   UNL     1      47.047 -33.114   4.806  1.00  0.00     0.136 HD
BRANCH  28  30
HETATM   30  C   UNL     1      48.641 -31.922   4.777  1.00  0.00     0.014 A 
HETATM   31  C   UNL     1      49.326 -30.772   4.366  1.00  0.00     0.024 A 
HETATM   32  C   UNL     1      50.645 -30.538   4.769  1.00  0.00     0.002 A 
HETATM   33  C   UNL     1      51.287 -31.430   5.622  1.00  0.00     0.000 A 
HETATM   34  C   UNL     1      50.605 -32.551   6.085  1.00  0.00     0.002 A 
HETATM   35  C   UNL     1      49.289 -32.787   5.675  1.00  0.00     0.024 A 
ENDBRANCH  28  30
ENDBRANCH   7  28
BRANCH  13  36
HETATM   36  O   UNL     1      45.259 -27.645  -0.359  1.00  0.00    -0.395 OA
HETATM   37  H   UNL     1      44.683 -28.345  -0.003  1.00  0.00     0.210 HD
ENDBRANCH  13  36
TORSDOF 10
ENDMDL
MODEL 9
REMARK VINA RESULT:      -6.9      1.807      2.558
REMARK  10 active torsions:
REMARK  status: ('A' for Active; 'I' for Inactive)
REMARK    1  A    between atoms: C_3  and  C_4 
REMARK    2  A    between atoms: C_4  and  C_5 
REMARK       I    between atoms: C_5  and  N_6 
REMARK    3  A    between atoms: N_6  and  C_7 
REMARK    4  A    between atoms: C_7  and  C_8 
REMARK    5  A    between atoms: C_8  and  O_9 
REMARK    6  A    between atoms: C_15  and  N_16 
REMARK    7  A    between atoms: N_16  and  C_17 
REMARK    8  A    between atoms: C_26  and  C_27 
REMARK    9  A    between atoms: C_27  and  O_28 
REMARK   10  A    between atoms: C_30  and  O_31 
ROOT
HETATM    1  C   UNL     1      38.827 -10.600   2.633  1.00  0.00     0.016 C 
HETATM    2  C   UNL     1      40.020 -10.324   1.660  1.00  0.00    -0.030 C 
HETATM    3  C   UNL     1      41.298 -11.171   2.114  1.00  0.00     0.056 C 
HETATM    4  C   UNL     1      41.192 -12.598   1.618  1.00  0.00     0.055 C 
HETATM    5  C   UNL     1      40.222 -13.046   0.748  1.00  0.00     0.011 C 
HETATM    6  S   UNL     1      40.412 -14.707   0.446  1.00  0.00    -0.060 SA
HETATM    7  C   UNL     1      41.932 -14.659   1.269  1.00  0.00     0.150 C 
HETATM    8  N   UNL     1      42.177 -13.528   1.901  1.00  0.00    -0.232 NA
HETATM    9  C   UNL     1      39.164 -12.217   0.114  1.00  0.00     0.054 C 
HETATM   10  C   UNL     1      39.544 -10.712   0.195  1.00  0.00     0.012 C 
HETATM   11  C   UNL     1      40.455 -10.172  -0.999  1.00  0.00     0.008 C 
HETATM   12  C   UNL     1      39.499  -9.922  -2.203  1.00  0.00     0.020 C 
HETATM   13  C   UNL     1      41.100  -8.799  -0.632  1.00  0.00     0.128 C 
HETATM   14  C   UNL     1      40.305  -8.052   0.429  1.00  0.00     0.033 C 
HETATM   15  C   UNL     1      40.325  -8.796   1.762  1.00  0.00     0.013 C 
ENDROOT
BRANCH   3  16
HETATM   16  C   UNL     1      41.518 -11.116   3.640  1.00  0.00     0.114 C 
BRANCH  16  17
HETATM   17  C   UNL     1      42.923 -11.429   4.116  1.00  0.00     0.218 C 
HETATM   18  N   UNL     1      43.017 -12.045   5.335  1.00  0.00    -0.359 N 
HETATM   19  H   UNL     1      42.190 -12.512   5.714  1.00  0.00     0.162 HD
HETATM   20  O   UNL     1      43.908 -11.054   3.481  1.00  0.00    -0.274 OA
BRANCH  18  21
HETATM   21  C   UNL     1      44.289 -12.202   6.012  1.00  0.00     0.148 C 
BRANCH  21  22
HETATM   22  C   UNL     1      44.318 -11.619   7.430  1.00  0.00     0.186 C 
BRANCH  22  23
HETATM   23  O   UNL     1      44.545 -10.206   7.461  1.00  0.00    -0.394 OA
HETATM   24  C   UNL     1      43.425  -9.470   7.938  1.00  0.00     0.201 C 
ENDBRANCH  22  23
ENDBRANCH  21  22
ENDBRANCH  18  21
ENDBRANCH  16  17
ENDBRANCH   3  16
BRANCH  11  25
HETATM   25  C   UNL     1      41.576 -11.127  -1.491  1.00  0.00     0.176 C 
BRANCH  25  26
HETATM   26  O   UNL     1      41.237 -11.784  -2.708  1.00  0.00    -0.400 OA
HETATM   27  H   UNL     1      40.267 -11.885  -2.703  1.00  0.00     0.209 HD
ENDBRANCH  25  26
ENDBRANCH  11  25
BRANCH   7  28
HETATM   28  N   UNL     1      42.757 -15.737   1.197  1.00  0.00    -0.238 NA
HETATM   29  H   UNL     1      43.598 -15.548   0.660  1.00  0.00     0.136 HD
BRANCH  28  30
HETATM   30  C   UNL     1      43.126 -16.478   2.355  1.00  0.00     0.014 A 
HETATM   31  C   UNL     1      43.243 -15.913   3.632  1.00  0.00     0.024 A 
HETATM   32  C   UNL     1      43.627 -16.691   4.730  1.00  0.00     0.002 A 
HETATM   33  C   UNL     1      43.860 -18.054   4.577  1.00  0.00     0.000 A 
HETATM   34  C   UNL     1      43.696 -18.644   3.327  1.00  0.00     0.002 A 
HETATM   35  C   UNL     1      43.319 -17.864   2.230  1.00  0.00     0.024 A 
ENDBRANCH  28  30
ENDBRANCH   7  28
BRANCH  13  36
HETATM   36  O   UNL     1      42.435  -8.972  -0.156  1.00  0.00    -0.395 OA
HETATM   37  H   UNL     1      43.020  -8.402  -0.687  1.00  0.00     0.210 HD
ENDBRANCH  13  36
TORSDOF 10
ENDMDL
MODEL 10
REMARK VINA RESULT:      -6.7      3.588      7.390
REMARK  10 active torsions:
REMARK  status: ('A' for Active; 'I' for Inactive)
REMARK    1  A    between atoms: C_3  and  C_4 
REMARK    2  A    between atoms: C_4  and  C_5 
REMARK       I    between atoms: C_5  and  N_6 
REMARK    3  A    between atoms: N_6  and  C_7 
REMARK    4  A    between atoms: C_7  and  C_8 
REMARK    5  A    between atoms: C_8  and  O_9 
REMARK    6  A    between atoms: C_15  and  N_16 
REMARK    7  A    between atoms: N_16  and  C_17 
REMARK    8  A    between atoms: C_26  and  C_27 
REMARK    9  A    between atoms: C_27  and  O_28 
REMARK   10  A    between atoms: C_30  and  O_31 
ROOT
HETATM    1  C   UNL     1      43.482 -12.708   3.138  1.00  0.00     0.016 C 
HETATM    2  C   UNL     1      42.004 -13.202   3.004  1.00  0.00    -0.030 C 
HETATM    3  C   UNL     1      41.328 -13.292   4.450  1.00  0.00     0.056 C 
HETATM    4  C   UNL     1      40.856 -11.925   4.900  1.00  0.00     0.055 C 
HETATM    5  C   UNL     1      40.847 -10.804   4.098  1.00  0.00     0.011 C 
HETATM    6  S   UNL     1      40.276  -9.457   4.960  1.00  0.00    -0.060 SA
HETATM    7  C   UNL     1      39.815 -10.509   6.253  1.00  0.00     0.150 C 
HETATM    8  N   UNL     1      40.249 -11.748   6.132  1.00  0.00    -0.232 NA
HETATM    9  C   UNL     1      41.242 -10.750   2.666  1.00  0.00     0.054 C 
HETATM   10  C   UNL     1      41.241 -12.180   2.057  1.00  0.00     0.012 C 
HETATM   11  C   UNL     1      39.837 -12.678   1.484  1.00  0.00     0.008 C 
HETATM   12  C   UNL     1      39.677 -12.021   0.080  1.00  0.00     0.020 C 
HETATM   13  C   UNL     1      39.837 -14.224   1.269  1.00  0.00     0.128 C 
HETATM   14  C   UNL     1      41.241 -14.781   1.084  1.00  0.00     0.033 C 
HETATM   15  C   UNL     1      42.073 -14.621   2.355  1.00  0.00     0.013 C 
ENDROOT
BRANCH   3  16
HETATM   16  C   UNL     1      42.265 -13.938   5.490  1.00  0.00     0.114 C 
BRANCH  16  17
HETATM   17  C   UNL     1      42.122 -15.437   5.666  1.00  0.00     0.218 C 
HETATM   18  N   UNL     1      43.287 -16.155   5.641  1.00  0.00    -0.359 N 
HETATM   19  H   UNL     1      44.170 -15.665   5.799  1.00  0.00     0.162 HD
HETATM   20  O   UNL     1      41.013 -15.968   5.724  1.00  0.00    -0.274 OA
BRANCH  18  21
HETATM   21  C   UNL     1      43.287 -17.604   5.574  1.00  0.00     0.148 C 
BRANCH  21  22
HETATM   22  C   UNL     1      44.367 -18.186   4.655  1.00  0.00     0.186 C 
BRANCH  22  23
HETATM   23  O   UNL     1      43.842 -18.991   3.594  1.00  0.00    -0.394 OA
HETATM   24  C   UNL     1      43.184 -18.230   2.588  1.00  0.00     0.201 C 
ENDBRANCH  22  23
ENDBRANCH  21  22
ENDBRANCH  18  21
ENDBRANCH  16  17
ENDBRANCH   3  16
BRANCH  11  25
HETATM   25  C   UNL     1      38.583 -12.297   2.316  1.00  0.00     0.176 C 
BRANCH  25  26
HETATM   26  O   UNL     1      37.473 -11.940   1.498  1.00  0.00    -0.400 OA
HETATM   27  H   UNL     1      37.503 -10.971   1.404  1.00  0.00     0.209 HD
ENDBRANCH  25  26
ENDBRANCH  11  25
BRANCH   7  28
HETATM   28  N   UNL     1      39.048 -10.019   7.262  1.00  0.00    -0.238 NA
HETATM   29  H   UNL     1      38.204 -10.564   7.409  1.00  0.00     0.136 HD
BRANCH  28  30
HETATM   30  C   UNL     1      39.598  -9.699   8.535  1.00  0.00     0.014 A 
HETATM   31  C   UNL     1      40.706  -8.859   8.713  1.00  0.00     0.024 A 
HETATM   32  C   UNL     1      41.212  -8.596   9.991  1.00  0.00     0.002 A 
HETATM   33  C   UNL     1      40.594  -9.134  11.114  1.00  0.00     0.000 A 
HETATM   34  C   UNL     1      39.460  -9.927  10.963  1.00  0.00     0.002 A 
HETATM   35  C   UNL     1      38.960 -10.195   9.685  1.00  0.00     0.024 A 
ENDBRANCH  28  30
ENDBRANCH   7  28
BRANCH  13  36
HETATM   36  O   UNL     1      39.229 -14.894   2.374  1.00  0.00    -0.395 OA
HETATM   37  H   UNL     1      39.911 -15.434   2.811  1.00  0.00     0.210 HD
ENDBRANCH  13  36
TORSDOF 10
ENDMDL
