MODEL 1
REMARK VINA RESULT:      -7.7      0.000      0.000
REMARK  6 active torsions:
REMARK  status: ('A' for Active; 'I' for Inactive)
REMARK    1  A    between atoms: C_2  and  C_3 
REMARK    2  A    between atoms: C_4  and  O_5 
REMARK    3  A    between atoms: C_6  and  C_7 
REMARK       I    between atoms: C_7  and  N_8 
REMARK    4  A    between atoms: N_8  and  C_9 
REMARK    5  A    between atoms: C_9  and  C_10 
REMARK    6  A    between atoms: C_10  and  C_11 
ROOT
HETATM    1  C   UNL     1      40.237 -14.523   1.068  1.00  0.00     0.254 C 
HETATM    2  N   UNL     1      40.926 -15.699   1.235  1.00  0.00    -0.356 N 
HETATM    3  O   UNL     1      39.795 -13.883   2.017  1.00  0.00    -0.268 OA
HETATM    4  H   UNL     1      41.288 -16.151   0.398  1.00  0.00     0.162 HD
ENDROOT
BRANCH   1   5
HETATM    5  C   UNL     1      40.048 -14.036  -0.340  1.00  0.00     0.065 A 
HETATM    6  C   UNL     1      40.484 -12.785  -0.824  1.00  0.00     0.087 A 
HETATM    7  C   UNL     1      40.278 -12.419  -2.170  1.00  0.00    -0.024 A 
HETATM    8  C   UNL     1      39.595 -13.311  -3.013  1.00  0.00     0.010 A 
HETATM    9  C   UNL     1      39.145 -14.542  -2.541  1.00  0.00     0.002 A 
HETATM   10  C   UNL     1      39.376 -14.903  -1.216  1.00  0.00     0.020 A 
BRANCH   6  11
HETATM   11  O   UNL     1      41.120 -11.920   0.034  1.00  0.00    -0.359 OA
HETATM   12  H   UNL     1      40.863 -12.123   0.949  1.00  0.00     0.218 HD
ENDBRANCH   6  11
BRANCH   7  13
HETATM   13  C   UNL     1      40.757 -11.112  -2.758  1.00  0.00     0.037 C 
HETATM   14  C   UNL     1      39.612 -10.287  -3.328  1.00  0.00     0.010 C 
ENDBRANCH   7  13
ENDBRANCH   1   5
BRANCH   2  15
HETATM   15  C   UNL     1      41.215 -16.255   2.541  1.00  0.00     0.136 C 
BRANCH  15  16
HETATM   16  C   UNL     1      42.738 -16.397   2.837  1.00  0.00    -0.004 C 
HETATM   17  C   UNL     1      43.510 -15.899   1.597  1.00  0.00     0.021 C 
HETATM   18  C   UNL     1      43.070 -15.451   4.017  1.00  0.00     0.021 C 
BRANCH  16  19
HETATM   19  C   UNL     1      43.175 -17.852   3.105  1.00  0.00    -0.046 A 
HETATM   20  C   UNL     1      43.002 -18.858   2.141  1.00  0.00     0.027 A 
HETATM   21  C   UNL     1      43.413 -20.155   2.419  1.00  0.00     0.116 A 
HETATM   22  N   UNL     1      43.995 -20.527   3.575  1.00  0.00    -0.273 NA
HETATM   23  C   UNL     1      44.184 -19.553   4.486  1.00  0.00     0.116 A 
HETATM   24  C   UNL     1      43.803 -18.230   4.301  1.00  0.00     0.027 A 
ENDBRANCH  16  19
ENDBRANCH  15  16
ENDBRANCH   2  15
TORSDOF 6
ENDMDL
MODEL 2
REMARK VINA RESULT:      -7.7      1.059      1.907
REMARK  6 active torsions:
REMARK  status: ('A' for Active; 'I' for Inactive)
REMARK    1  A    between atoms: C_2  and  C_3 
REMARK    2  A    between atoms: C_4  and  O_5 
REMARK    3  A    between atoms: C_6  and  C_7 
REMARK       I    between atoms: C_7  and  N_8 
REMARK    4  A    between atoms: N_8  and  C_9 
REMARK    5  A    between atoms: C_9  and  C_10 
REMARK    6  A    between atoms: C_10  and  C_11 
ROOT
HETATM    1  C   UNL     1      40.645 -14.329   1.582  1.00  0.00     0.254 C 
HETATM    2  N   UNL     1      41.031 -15.646   1.542  1.00  0.00    -0.356 N 
HETATM    3  O   UNL     1      40.502 -13.721   2.638  1.00  0.00    -0.268 OA
HETATM    4  H   UNL     1      41.159 -16.067   0.625  1.00  0.00     0.162 HD
ENDROOT
BRANCH   1   5
HETATM    5  C   UNL     1      40.409 -13.646   0.265  1.00  0.00     0.065 A 
HETATM    6  C   UNL     1      39.655 -14.185  -0.797  1.00  0.00     0.087 A 
HETATM    7  C   UNL     1      39.471 -13.461  -1.993  1.00  0.00    -0.024 A 
HETATM    8  C   UNL     1      40.087 -12.206  -2.121  1.00  0.00     0.010 A 
HETATM    9  C   UNL     1      40.849 -11.671  -1.084  1.00  0.00     0.002 A 
HETATM   10  C   UNL     1      41.003 -12.384   0.102  1.00  0.00     0.020 A 
BRANCH   6  11
HETATM   11  O   UNL     1      39.092 -15.431  -0.654  1.00  0.00    -0.359 OA
HETATM   12  H   UNL     1      39.399 -15.832   0.176  1.00  0.00     0.218 HD
ENDBRANCH   6  11
BRANCH   7  13
HETATM   13  C   UNL     1      38.641 -13.966  -3.151  1.00  0.00     0.037 C 
HETATM   14  C   UNL     1      37.180 -13.560  -3.029  1.00  0.00     0.010 C 
ENDBRANCH   7  13
ENDBRANCH   1   5
BRANCH   2  15
HETATM   15  C   UNL     1      41.333 -16.407   2.738  1.00  0.00     0.136 C 
BRANCH  15  16
HETATM   16  C   UNL     1      42.859 -16.606   2.983  1.00  0.00    -0.004 C 
HETATM   17  C   UNL     1      43.611 -16.088   1.738  1.00  0.00     0.021 C 
HETATM   18  C   UNL     1      43.255 -15.713   4.185  1.00  0.00     0.021 C 
BRANCH  16  19
HETATM   19  C   UNL     1      43.257 -18.082   3.187  1.00  0.00    -0.046 A 
HETATM   20  C   UNL     1      43.094 -19.032   2.166  1.00  0.00     0.027 A 
HETATM   21  C   UNL     1      43.470 -20.351   2.387  1.00  0.00     0.116 A 
HETATM   22  N   UNL     1      44.006 -20.796   3.540  1.00  0.00    -0.273 NA
HETATM   23  C   UNL     1      44.185 -19.876   4.507  1.00  0.00     0.116 A 
HETATM   24  C   UNL     1      43.838 -18.536   4.380  1.00  0.00     0.027 A 
ENDBRANCH  16  19
ENDBRANCH  15  16
ENDBRANCH   2  15
TORSDOF 6
ENDMDL
MODEL 3
REMARK VINA RESULT:      -7.6      4.901      8.074
REMARK  6 active torsions:
REMARK  status: ('A' for Active; 'I' for Inactive)
REMARK    1  A    between atoms: C_2  and  C_3 
REMARK    2  A    between atoms: C_4  and  O_5 
REMARK    3  A    between atoms: C_6  and  C_7 
REMARK       I    between atoms: C_7  and  N_8 
REMARK    4  A    between atoms: N_8  and  C_9 
REMARK    5  A    between atoms: C_9  and  C_10 
REMARK    6  A    between atoms: C_10  and  C_11 
ROOT
HETATM    1  C   UNL     1      42.943 -14.770   5.125  1.00  0.00     0.254 C 
HETATM    2  N   UNL     1      42.279 -13.783   4.441  1.00  0.00    -0.356 N 
HETATM    3  O   UNL     1      43.288 -14.638   6.295  1.00  0.00    -0.268 OA
HETATM    4  H   UNL     1      41.999 -13.985   3.484  1.00  0.00     0.162 HD
ENDROOT
BRANCH   1   5
HETATM    5  C   UNL     1      43.229 -16.043   4.380  1.00  0.00     0.065 A 
HETATM    6  C   UNL     1      43.655 -17.247   4.979  1.00  0.00     0.087 A 
HETATM    7  C   UNL     1      43.882 -18.400   4.201  1.00  0.00    -0.024 A 
HETATM    8  C   UNL     1      43.712 -18.317   2.809  1.00  0.00     0.010 A 
HETATM    9  C   UNL     1      43.308 -17.129   2.205  1.00  0.00     0.002 A 
HETATM   10  C   UNL     1      43.062 -16.002   2.987  1.00  0.00     0.020 A 
BRANCH   6  11
HETATM   11  O   UNL     1      43.845 -17.287   6.339  1.00  0.00    -0.359 OA
HETATM   12  H   UNL     1      43.606 -16.429   6.726  1.00  0.00     0.218 HD
ENDBRANCH   6  11
BRANCH   7  13
HETATM   13  C   UNL     1      44.301 -19.729   4.786  1.00  0.00     0.037 C 
HETATM   14  C   UNL     1      43.912 -20.897   3.892  1.00  0.00     0.010 C 
ENDBRANCH   7  13
ENDBRANCH   1   5
BRANCH   2  15
HETATM   15  C   UNL     1      41.904 -12.525   5.055  1.00  0.00     0.136 C 
BRANCH  15  16
HETATM   16  C   UNL     1      42.961 -11.396   4.864  1.00  0.00    -0.004 C 
HETATM   17  C   UNL     1      43.846 -11.776   3.658  1.00  0.00     0.021 C 
HETATM   18  C   UNL     1      42.194 -10.100   4.504  1.00  0.00     0.021 C 
BRANCH  16  19
HETATM   19  C   UNL     1      43.888 -11.216   6.084  1.00  0.00    -0.046 A 
HETATM   20  C   UNL     1      45.284 -11.299   5.962  1.00  0.00     0.027 A 
HETATM   21  C   UNL     1      46.084 -11.125   7.085  1.00  0.00     0.116 A 
HETATM   22  N   UNL     1      45.604 -10.862   8.315  1.00  0.00    -0.273 NA
HETATM   23  C   UNL     1      44.265 -10.756   8.422  1.00  0.00     0.116 A 
HETATM   24  C   UNL     1      43.385 -10.917   7.359  1.00  0.00     0.027 A 
ENDBRANCH  16  19
ENDBRANCH  15  16
ENDBRANCH   2  15
TORSDOF 6
ENDMDL
MODEL 4
REMARK VINA RESULT:      -7.6      4.691      7.839
REMARK  6 active torsions:
REMARK  status: ('A' for Active; 'I' for Inactive)
REMARK    1  A    between atoms: C_2  and  C_3 
REMARK    2  A    between atoms: C_4  and  O_5 
REMARK    3  A    between atoms: C_6  and  C_7 
REMARK       I    between atoms: C_7  and  N_8 
REMARK    4  A    between atoms: N_8  and  C_9 
REMARK    5  A    between atoms: C_9  and  C_10 
REMARK    6  A    between atoms: C_10  and  C_11 
ROOT
HETATM    1  C   UNL     1      41.950 -14.783   4.204  1.00  0.00     0.254 C 
HETATM    2  N   UNL     1      42.500 -13.774   4.955  1.00  0.00    -0.356 N 
HETATM    3  O   UNL     1      40.889 -14.646   3.601  1.00  0.00    -0.268 OA
HETATM    4  H   UNL     1      43.398 -13.958   5.396  1.00  0.00     0.162 HD
ENDROOT
BRANCH   1   5
HETATM    5  C   UNL     1      42.708 -16.077   4.136  1.00  0.00     0.065 A 
HETATM    6  C   UNL     1      42.540 -17.057   3.136  1.00  0.00     0.087 A 
HETATM    7  C   UNL     1      43.312 -18.237   3.144  1.00  0.00    -0.024 A 
HETATM    8  C   UNL     1      44.226 -18.436   4.191  1.00  0.00     0.010 A 
HETATM    9  C   UNL     1      44.388 -17.483   5.194  1.00  0.00     0.002 A 
HETATM   10  C   UNL     1      43.638 -16.310   5.162  1.00  0.00     0.020 A 
BRANCH   6  11
HETATM   11  O   UNL     1      41.613 -16.848   2.143  1.00  0.00    -0.359 OA
HETATM   12  H   UNL     1      41.137 -16.018   2.313  1.00  0.00     0.218 HD
ENDBRANCH   6  11
BRANCH   7  13
HETATM   13  C   UNL     1      43.208 -19.305   2.079  1.00  0.00     0.037 C 
HETATM   14  C   UNL     1      43.738 -20.647   2.561  1.00  0.00     0.010 C 
ENDBRANCH   7  13
ENDBRANCH   1   5
BRANCH   2  15
HETATM   15  C   UNL     1      41.892 -12.464   5.067  1.00  0.00     0.136 C 
BRANCH  15  16
HETATM   16  C   UNL     1      42.905 -11.290   4.911  1.00  0.00    -0.004 C 
HETATM   17  C   UNL     1      43.791 -11.589   3.682  1.00  0.00     0.021 C 
HETATM   18  C   UNL     1      42.087 -10.010   4.609  1.00  0.00     0.021 C 
BRANCH  16  19
HETATM   19  C   UNL     1      43.838 -11.123   6.128  1.00  0.00    -0.046 A 
HETATM   20  C   UNL     1      43.330 -10.847   7.407  1.00  0.00     0.027 A 
HETATM   21  C   UNL     1      44.203 -10.709   8.479  1.00  0.00     0.116 A 
HETATM   22  N   UNL     1      45.540 -10.837   8.380  1.00  0.00    -0.273 NA
HETATM   23  C   UNL     1      46.020 -11.129   7.156  1.00  0.00     0.116 A 
HETATM   24  C   UNL     1      45.227 -11.281   6.025  1.00  0.00     0.027 A 
ENDBRANCH  16  19
ENDBRANCH  15  16
ENDBRANCH   2  15
TORSDOF 6
ENDMDL
MODEL 5
REMARK VINA RESULT:      -7.5      5.203      8.057
REMARK  6 active torsions:
REMARK  status: ('A' for Active; 'I' for Inactive)
REMARK    1  A    between atoms: C_2  and  C_3 
REMARK    2  A    between atoms: C_4  and  O_5 
REMARK    3  A    between atoms: C_6  and  C_7 
REMARK       I    between atoms: C_7  and  N_8 
REMARK    4  A    between atoms: N_8  and  C_9 
REMARK    5  A    between atoms: C_9  and  C_10 
REMARK    6  A    between atoms: C_10  and  C_11 
ROOT
HETATM    1  C   UNL     1      43.178 -12.353   6.301  1.00  0.00     0.254 C 
HETATM    2  N   UNL     1      43.686 -13.601   6.037  1.00  0.00    -0.356 N 
HETATM    3  O   UNL     1      42.057 -12.012   5.936  1.00  0.00    -0.268 OA
HETATM    4  H   UNL     1      44.611 -13.815   6.403  1.00  0.00     0.162 HD
ENDROOT
BRANCH   1   5
HETATM    5  C   UNL     1      44.054 -11.408   7.073  1.00  0.00     0.065 A 
HETATM    6  C   UNL     1      43.586 -10.445   7.991  1.00  0.00     0.087 A 
HETATM    7  C   UNL     1      44.486  -9.610   8.684  1.00  0.00    -0.024 A 
HETATM    8  C   UNL     1      45.859  -9.730   8.415  1.00  0.00     0.010 A 
HETATM    9  C   UNL     1      46.332 -10.667   7.498  1.00  0.00     0.002 A 
HETATM   10  C   UNL     1      45.435 -11.503   6.837  1.00  0.00     0.020 A 
BRANCH   6  11
HETATM   11  O   UNL     1      42.234 -10.328   8.207  1.00  0.00    -0.359 OA
HETATM   12  H   UNL     1      42.079  -9.840   9.033  1.00  0.00     0.218 HD
ENDBRANCH   6  11
BRANCH   7  13
HETATM   13  C   UNL     1      44.050  -8.588   9.709  1.00  0.00     0.037 C 
HETATM   14  C   UNL     1      44.063  -9.152  11.122  1.00  0.00     0.010 C 
ENDBRANCH   7  13
ENDBRANCH   1   5
BRANCH   2  15
HETATM   15  C   UNL     1      42.928 -14.620   5.341  1.00  0.00     0.136 C 
BRANCH  15  16
HETATM   16  C   UNL     1      43.244 -16.070   5.819  1.00  0.00    -0.004 C 
HETATM   17  C   UNL     1      44.608 -16.044   6.541  1.00  0.00     0.021 C 
HETATM   18  C   UNL     1      42.163 -16.461   6.856  1.00  0.00     0.021 C 
BRANCH  16  19
HETATM   19  C   UNL     1      43.348 -17.084   4.662  1.00  0.00    -0.046 A 
HETATM   20  C   UNL     1      42.744 -16.842   3.418  1.00  0.00     0.027 A 
HETATM   21  C   UNL     1      42.866 -17.778   2.399  1.00  0.00     0.116 A 
HETATM   22  N   UNL     1      43.552 -18.931   2.518  1.00  0.00    -0.273 NA
HETATM   23  C   UNL     1      44.153 -19.147   3.704  1.00  0.00     0.116 A 
HETATM   24  C   UNL     1      44.085 -18.272   4.781  1.00  0.00     0.027 A 
ENDBRANCH  16  19
ENDBRANCH  15  16
ENDBRANCH   2  15
TORSDOF 6
ENDMDL
MODEL 6
REMARK VINA RESULT:      -7.4      2.228      8.046
REMARK  6 active torsions:
REMARK  status: ('A' for Active; 'I' for Inactive)
REMARK    1  A    between atoms: C_2  and  C_3 
REMARK    2  A    between atoms: C_4  and  O_5 
REMARK    3  A    between atoms: C_6  and  C_7 
REMARK       I    between atoms: C_7  and  N_8 
REMARK    4  A    between atoms: N_8  and  C_9 
REMARK    5  A    between atoms: C_9  and  C_10 
REMARK    6  A    between atoms: C_10  and  C_11 
ROOT
HETATM    1  C   UNL     1      42.765 -14.910   3.567  1.00  0.00     0.254 C 
HETATM    2  N   UNL     1      42.239 -15.187   2.330  1.00  0.00    -0.356 N 
HETATM    3  O   UNL     1      42.973 -13.762   3.947  1.00  0.00    -0.268 OA
HETATM    4  H   UNL     1      42.066 -16.164   2.104  1.00  0.00     0.162 HD
ENDROOT
BRANCH   1   5
HETATM    5  C   UNL     1      43.072 -16.080   4.457  1.00  0.00     0.065 A 
HETATM    6  C   UNL     1      43.545 -17.331   4.007  1.00  0.00     0.087 A 
HETATM    7  C   UNL     1      43.824 -18.368   4.920  1.00  0.00    -0.024 A 
HETATM    8  C   UNL     1      43.587 -18.145   6.286  1.00  0.00     0.010 A 
HETATM    9  C   UNL     1      43.104 -16.919   6.740  1.00  0.00     0.002 A 
HETATM   10  C   UNL     1      42.855 -15.893   5.831  1.00  0.00     0.020 A 
BRANCH   6  11
HETATM   11  O   UNL     1      43.735 -17.530   2.661  1.00  0.00    -0.359 OA
HETATM   12  H   UNL     1      44.202 -18.370   2.520  1.00  0.00     0.218 HD
ENDBRANCH   6  11
BRANCH   7  13
HETATM   13  C   UNL     1      44.370 -19.715   4.505  1.00  0.00     0.037 C 
HETATM   14  C   UNL     1      43.952 -20.822   5.463  1.00  0.00     0.010 C 
ENDBRANCH   7  13
ENDBRANCH   1   5
BRANCH   2  15
HETATM   15  C   UNL     1      41.858 -14.149   1.394  1.00  0.00     0.136 C 
BRANCH  15  16
HETATM   16  C   UNL     1      40.360 -14.211   0.967  1.00  0.00    -0.004 C 
HETATM   17  C   UNL     1      39.850 -15.642   1.237  1.00  0.00     0.021 C 
HETATM   18  C   UNL     1      39.576 -13.244   1.888  1.00  0.00     0.021 C 
BRANCH  16  19
HETATM   19  C   UNL     1      40.139 -13.912  -0.530  1.00  0.00    -0.046 A 
HETATM   20  C   UNL     1      40.708 -12.784  -1.143  1.00  0.00     0.027 A 
HETATM   21  C   UNL     1      40.490 -12.553  -2.495  1.00  0.00     0.116 A 
HETATM   22  N   UNL     1      39.761 -13.362  -3.288  1.00  0.00    -0.273 NA
HETATM   23  C   UNL     1      39.241 -14.458  -2.701  1.00  0.00     0.116 A 
HETATM   24  C   UNL     1      39.401 -14.771  -1.357  1.00  0.00     0.027 A 
ENDBRANCH  16  19
ENDBRANCH  15  16
ENDBRANCH   2  15
TORSDOF 6
ENDMDL
MODEL 7
REMARK VINA RESULT:      -7.2      6.786      9.746
REMARK  6 active torsions:
REMARK  status: ('A' for Active; 'I' for Inactive)
REMARK    1  A    between atoms: C_2  and  C_3 
REMARK    2  A    between atoms: C_4  and  O_5 
REMARK    3  A    between atoms: C_6  and  C_7 
REMARK       I    between atoms: C_7  and  N_8 
REMARK    4  A    between atoms: N_8  and  C_9 
REMARK    5  A    between atoms: C_9  and  C_10 
REMARK    6  A    between atoms: C_10  and  C_11 
ROOT
HETATM    1  C   UNL     1      44.537 -11.232   7.845  1.00  0.00     0.254 C 
HETATM    2  N   UNL     1      43.598 -12.205   7.610  1.00  0.00    -0.356 N 
HETATM    3  O   UNL     1      45.648 -11.256   7.325  1.00  0.00    -0.268 OA
HETATM    4  H   UNL     1      42.689 -12.094   8.054  1.00  0.00     0.162 HD
ENDROOT
BRANCH   1   5
HETATM    5  C   UNL     1      44.146 -10.115   8.770  1.00  0.00     0.065 A 
HETATM    6  C   UNL     1      43.738 -10.284  10.109  1.00  0.00     0.087 A 
HETATM    7  C   UNL     1      43.407  -9.172  10.910  1.00  0.00    -0.024 A 
HETATM    8  C   UNL     1      43.455  -7.891  10.336  1.00  0.00     0.010 A 
HETATM    9  C   UNL     1      43.841  -7.714   9.009  1.00  0.00     0.002 A 
HETATM   10  C   UNL     1      44.190  -8.818   8.235  1.00  0.00     0.020 A 
BRANCH   6  11
HETATM   11  O   UNL     1      43.668 -11.553  10.632  1.00  0.00    -0.359 OA
HETATM   12  H   UNL     1      43.914 -11.530  11.572  1.00  0.00     0.218 HD
ENDBRANCH   6  11
BRANCH   7  13
HETATM   13  C   UNL     1      43.001  -9.284  12.361  1.00  0.00     0.037 C 
HETATM   14  C   UNL     1      43.224  -7.984  13.121  1.00  0.00     0.010 C 
ENDBRANCH   7  13
ENDBRANCH   1   5
BRANCH   2  15
HETATM   15  C   UNL     1      43.832 -13.313   6.705  1.00  0.00     0.136 C 
BRANCH  15  16
HETATM   16  C   UNL     1      42.550 -13.790   5.957  1.00  0.00    -0.004 C 
HETATM   17  C   UNL     1      41.890 -14.896   6.807  1.00  0.00     0.021 C 
HETATM   18  C   UNL     1      41.575 -12.588   5.897  1.00  0.00     0.021 C 
BRANCH  16  19
HETATM   19  C   UNL     1      42.843 -14.385   4.564  1.00  0.00    -0.046 A 
HETATM   20  C   UNL     1      42.967 -13.567   3.430  1.00  0.00     0.027 A 
HETATM   21  C   UNL     1      43.237 -14.141   2.194  1.00  0.00     0.116 A 
HETATM   22  N   UNL     1      43.405 -15.464   2.001  1.00  0.00    -0.273 NA
HETATM   23  C   UNL     1      43.312 -16.241   3.097  1.00  0.00     0.116 A 
HETATM   24  C   UNL     1      43.042 -15.760   4.372  1.00  0.00     0.027 A 
ENDBRANCH  16  19
ENDBRANCH  15  16
ENDBRANCH   2  15
TORSDOF 6
ENDMDL
MODEL 8
REMARK VINA RESULT:      -7.2      1.501      2.402
REMARK  6 active torsions:
REMARK  status: ('A' for Active; 'I' for Inactive)
REMARK    1  A    between atoms: C_2  and  C_3 
REMARK    2  A    between atoms: C_4  and  O_5 
REMARK    3  A    between atoms: C_6  and  C_7 
REMARK       I    between atoms: C_7  and  N_8 
REMARK    4  A    between atoms: N_8  and  C_9 
REMARK    5  A    between atoms: C_9  and  C_10 
REMARK    6  A    between atoms: C_10  and  C_11 
ROOT
HETATM    1  C   UNL     1      40.220 -14.508   0.921  1.00  0.00     0.254 C 
HETATM    2  N   UNL     1      40.830 -15.725   1.096  1.00  0.00    -0.356 N 
HETATM    3  O   UNL     1      39.862 -13.813   1.867  1.00  0.00    -0.268 OA
HETATM    4  H   UNL     1      41.125 -16.223   0.259  1.00  0.00     0.162 HD
ENDROOT
BRANCH   1   5
HETATM    5  C   UNL     1      40.009 -14.045  -0.493  1.00  0.00     0.065 A 
HETATM    6  C   UNL     1      40.444 -12.806  -1.007  1.00  0.00     0.087 A 
HETATM    7  C   UNL     1      40.217 -12.464  -2.356  1.00  0.00    -0.024 A 
HETATM    8  C   UNL     1      39.514 -13.367  -3.170  1.00  0.00     0.010 A 
HETATM    9  C   UNL     1      39.065 -14.587  -2.668  1.00  0.00     0.002 A 
HETATM   10  C   UNL     1      39.317 -14.925  -1.340  1.00  0.00     0.020 A 
BRANCH   6  11
HETATM   11  O   UNL     1      41.099 -11.929  -0.176  1.00  0.00    -0.359 OA
HETATM   12  H   UNL     1      41.996 -12.259   0.001  1.00  0.00     0.218 HD
ENDBRANCH   6  11
BRANCH   7  13
HETATM   13  C   UNL     1      40.693 -11.171  -2.977  1.00  0.00     0.037 C 
HETATM   14  C   UNL     1      39.577 -10.141  -3.079  1.00  0.00     0.010 C 
ENDBRANCH   7  13
ENDBRANCH   1   5
BRANCH   2  15
HETATM   15  C   UNL     1      41.131 -16.266   2.406  1.00  0.00     0.136 C 
BRANCH  15  16
HETATM   16  C   UNL     1      42.644 -16.565   2.626  1.00  0.00    -0.004 C 
HETATM   17  C   UNL     1      42.858 -18.083   2.443  1.00  0.00     0.021 C 
HETATM   18  C   UNL     1      43.428 -15.835   1.508  1.00  0.00     0.021 C 
BRANCH  16  19
HETATM   19  C   UNL     1      43.141 -16.191   4.038  1.00  0.00    -0.046 A 
HETATM   20  C   UNL     1      43.952 -17.061   4.783  1.00  0.00     0.027 A 
HETATM   21  C   UNL     1      44.383 -16.684   6.049  1.00  0.00     0.116 A 
HETATM   22  N   UNL     1      44.081 -15.505   6.625  1.00  0.00    -0.273 NA
HETATM   23  C   UNL     1      43.325 -14.662   5.895  1.00  0.00     0.116 A 
HETATM   24  C   UNL     1      42.845 -14.951   4.624  1.00  0.00     0.027 A 
ENDBRANCH  16  19
ENDBRANCH  15  16
ENDBRANCH   2  15
TORSDOF 6
ENDMDL
MODEL 9
REMARK VINA RESULT:      -7.1      2.248      7.453
REMARK  6 active torsions:
REMARK  status: ('A' for Active; 'I' for Inactive)
REMARK    1  A    between atoms: C_2  and  C_3 
REMARK    2  A    between atoms: C_4  and  O_5 
REMARK    3  A    between atoms: C_6  and  C_7 
REMARK       I    between atoms: C_7  and  N_8 
REMARK    4  A    between atoms: N_8  and  C_9 
REMARK    5  A    between atoms: C_9  and  C_10 
REMARK    6  A    between atoms: C_10  and  C_11 
ROOT
HETATM    1  C   UNL     1      40.799 -15.707   2.239  1.00  0.00     0.254 C 
HETATM    2  N   UNL     1      40.772 -14.347   2.426  1.00  0.00    -0.356 N 
HETATM    3  O   UNL     1      39.950 -16.293   1.574  1.00  0.00    -0.268 OA
HETATM    4  H   UNL     1      41.531 -13.935   2.963  1.00  0.00     0.162 HD
ENDROOT
BRANCH   1   5
HETATM    5  C   UNL     1      41.927 -16.463   2.880  1.00  0.00     0.065 A 
HETATM    6  C   UNL     1      42.540 -16.111   4.101  1.00  0.00     0.087 A 
HETATM    7  C   UNL     1      43.583 -16.893   4.637  1.00  0.00    -0.024 A 
HETATM    8  C   UNL     1      44.028 -18.010   3.912  1.00  0.00     0.010 A 
HETATM    9  C   UNL     1      43.442 -18.358   2.697  1.00  0.00     0.002 A 
HETATM   10  C   UNL     1      42.395 -17.592   2.189  1.00  0.00     0.020 A 
BRANCH   6  11
HETATM   11  O   UNL     1      42.105 -14.993   4.771  1.00  0.00    -0.359 OA
HETATM   12  H   UNL     1      42.020 -14.253   4.146  1.00  0.00     0.218 HD
ENDBRANCH   6  11
BRANCH   7  13
HETATM   13  C   UNL     1      44.252 -16.593   5.959  1.00  0.00     0.037 C 
HETATM   14  C   UNL     1      43.541 -17.261   7.126  1.00  0.00     0.010 C 
ENDBRANCH   7  13
ENDBRANCH   1   5
BRANCH   2  15
HETATM   15  C   UNL     1      39.764 -13.497   1.825  1.00  0.00     0.136 C 
BRANCH  15  16
HETATM   16  C   UNL     1      40.354 -12.343   0.960  1.00  0.00    -0.004 C 
HETATM   17  C   UNL     1      39.418 -11.123   1.096  1.00  0.00     0.021 C 
HETATM   18  C   UNL     1      41.725 -11.962   1.571  1.00  0.00     0.021 C 
BRANCH  16  19
HETATM   19  C   UNL     1      40.451 -12.693  -0.539  1.00  0.00    -0.046 A 
HETATM   20  C   UNL     1      41.112 -11.850  -1.446  1.00  0.00     0.027 A 
HETATM   21  C   UNL     1      41.182 -12.204  -2.788  1.00  0.00     0.116 A 
HETATM   22  N   UNL     1      40.656 -13.335  -3.295  1.00  0.00    -0.273 NA
HETATM   23  C   UNL     1      40.046 -14.154  -2.416  1.00  0.00     0.116 A 
HETATM   24  C   UNL     1      39.924 -13.884  -1.058  1.00  0.00     0.027 A 
ENDBRANCH  16  19
ENDBRANCH  15  16
ENDBRANCH   2  15
TORSDOF 6
ENDMDL
MODEL 10
REMARK VINA RESULT:      -7.0      1.998      3.203
REMARK  6 active torsions:
REMARK  status: ('A' for Active; 'I' for Inactive)
REMARK    1  A    between atoms: C_2  and  C_3 
REMARK    2  A    between atoms: C_4  and  O_5 
REMARK    3  A    between atoms: C_6  and  C_7 
REMARK       I    between atoms: C_7  and  N_8 
REMARK    4  A    between atoms: N_8  and  C_9 
REMARK    5  A    between atoms: C_9  and  C_10 
REMARK    6  A    between atoms: C_10  and  C_11 
ROOT
HETATM    1  C   UNL     1      41.636 -13.432   1.332  1.00  0.00     0.254 C 
HETATM    2  N   UNL     1      42.298 -14.622   1.150  1.00  0.00    -0.356 N 
HETATM    3  O   UNL     1      41.698 -12.803   2.384  1.00  0.00    -0.268 OA
HETATM    4  H   UNL     1      42.221 -15.063   0.237  1.00  0.00     0.162 HD
ENDROOT
BRANCH   1   5
HETATM    5  C   UNL     1      40.828 -12.916   0.176  1.00  0.00     0.065 A 
HETATM    6  C   UNL     1      39.811 -13.638  -0.480  1.00  0.00     0.087 A 
HETATM    7  C   UNL     1      39.091 -13.063  -1.548  1.00  0.00    -0.024 A 
HETATM    8  C   UNL     1      39.433 -11.769  -1.971  1.00  0.00     0.010 A 
HETATM    9  C   UNL     1      40.448 -11.052  -1.340  1.00  0.00     0.002 A 
HETATM   10  C   UNL     1      41.136 -11.621  -0.271  1.00  0.00     0.020 A 
BRANCH   6  11
HETATM   11  O   UNL     1      39.522 -14.916  -0.066  1.00  0.00    -0.359 OA
HETATM   12  H   UNL     1      39.116 -14.886   0.817  1.00  0.00     0.218 HD
ENDBRANCH   6  11
BRANCH   7  13
HETATM   13  C   UNL     1      37.963 -13.769  -2.265  1.00  0.00     0.037 C 
HETATM   14  C   UNL     1      38.469 -14.655  -3.395  1.00  0.00     0.010 C 
ENDBRANCH   7  13
ENDBRANCH   1   5
BRANCH   2  15
HETATM   15  C   UNL     1      43.145 -15.207   2.169  1.00  0.00     0.136 C 
BRANCH  15  16
HETATM   16  C   UNL     1      42.516 -16.450   2.867  1.00  0.00    -0.004 C 
HETATM   17  C   UNL     1      41.015 -16.486   2.509  1.00  0.00     0.021 C 
HETATM   18  C   UNL     1      43.182 -17.709   2.257  1.00  0.00     0.021 C 
BRANCH  16  19
HETATM   19  C   UNL     1      42.628 -16.408   4.405  1.00  0.00    -0.046 A 
HETATM   20  C   UNL     1      41.513 -16.135   5.213  1.00  0.00     0.027 A 
HETATM   21  C   UNL     1      41.654 -16.112   6.595  1.00  0.00     0.116 A 
HETATM   22  N   UNL     1      42.814 -16.352   7.235  1.00  0.00    -0.273 NA
HETATM   23  C   UNL     1      43.875 -16.641   6.457  1.00  0.00     0.116 A 
HETATM   24  C   UNL     1      43.832 -16.684   5.069  1.00  0.00     0.027 A 
ENDBRANCH  16  19
ENDBRANCH  15  16
ENDBRANCH   2  15
TORSDOF 6
ENDMDL
