MODEL 1
REMARK VINA RESULT:      -8.9      0.000      0.000
REMARK  3 active torsions:
REMARK  status: ('A' for Active; 'I' for Inactive)
REMARK    1  A    between atoms: S_2  and  C_3 
REMARK    2  A    between atoms: C_6  and  C_7 
REMARK    3  A    between atoms: C_22  and  N_23 
ROOT
HETATM    1  C   UNL     1      42.078 -13.559   3.347  1.00  0.00     0.078 C 
HETATM    2  C   UNL     1      41.900 -15.004   3.808  1.00  0.00     0.127 C 
HETATM    3  C   UNL     1      41.978 -15.944   2.634  1.00  0.00     0.060 C 
HETATM    4  C   UNL     1      42.718 -17.136   3.023  1.00  0.00     0.003 A 
HETATM    5  C   UNL     1      43.342 -16.895   4.241  1.00  0.00     0.023 A 
HETATM    6  C   UNL     1      44.213 -17.809   4.803  1.00  0.00     0.016 A 
HETATM    7  C   UNL     1      44.443 -18.995   4.099  1.00  0.00     0.001 A 
HETATM    8  C   UNL     1      43.812 -19.237   2.862  1.00  0.00     0.001 A 
HETATM    9  C   UNL     1      42.943 -18.295   2.305  1.00  0.00     0.014 A 
HETATM   10  C   UNL     1      42.965 -15.565   4.735  1.00  0.00     0.171 C 
HETATM   11  O   UNL     1      43.438 -15.056   5.733  1.00  0.00    -0.291 OA
HETATM   12  N   UNL     1      41.557 -15.715   1.438  1.00  0.00    -0.231 NA
HETATM   13  C   UNL     1      41.194 -14.421   1.150  1.00  0.00     0.165 C 
HETATM   14  C   UNL     1      41.507 -13.386   1.953  1.00  0.00     0.067 C 
HETATM   15  N   UNL     1      40.636 -14.292  -0.093  1.00  0.00    -0.200 NA
HETATM   16  C   UNL     1      40.432 -13.103  -0.549  1.00  0.00     0.181 C 
HETATM   17  N   UNL     1      40.754 -11.988   0.150  1.00  0.00    -0.298 N 
HETATM   18  C   UNL     1      41.367 -12.040   1.364  1.00  0.00     0.258 C 
HETATM   19  O   UNL     1      41.815 -11.029   1.892  1.00  0.00    -0.267 OA
HETATM   20  H   UNL     1      40.621 -11.073  -0.248  1.00  0.00     0.171 HD
ENDROOT
BRANCH   1  21
HETATM   21  C   UNL     1      41.446 -12.647   4.404  1.00  0.00    -0.048 A 
HETATM   22  C   UNL     1      42.261 -11.772   5.137  1.00  0.00     0.009 A 
HETATM   23  C   UNL     1      41.721 -10.932   6.120  1.00  0.00     0.019 A 
HETATM   24  C   UNL     1      40.352 -10.942   6.395  1.00  0.00    -0.000 A 
HETATM   25  C   UNL     1      39.538 -11.823   5.672  1.00  0.00     0.019 A 
HETATM   26  C   UNL     1      40.076 -12.674   4.699  1.00  0.00     0.009 A 
BRANCH  24  27
HETATM   27  S   UNL     1      39.542  -9.899   7.602  1.00  0.00    -0.134 SA
HETATM   28  C   UNL     1      40.923  -9.164   8.517  1.00  0.00     0.095 C 
ENDBRANCH  24  27
ENDBRANCH   1  21
BRANCH  16  29
HETATM   29  N   UNL     1      39.892 -12.923  -1.779  1.00  0.00    -0.272 NA
HETATM   30  H   UNL     1      39.448 -13.775  -2.111  1.00  0.00     0.127 HD
HETATM   31  H   UNL     1      40.499 -12.512  -2.476  1.00  0.00     0.127 HD
ENDBRANCH  16  29
TORSDOF 3
ENDMDL
MODEL 2
REMARK VINA RESULT:      -8.6      3.397      5.124
REMARK  3 active torsions:
REMARK  status: ('A' for Active; 'I' for Inactive)
REMARK    1  A    between atoms: S_2  and  C_3 
REMARK    2  A    between atoms: C_6  and  C_7 
REMARK    3  A    between atoms: C_22  and  N_23 
ROOT
HETATM    1  C   UNL     1      41.463 -14.263   3.751  1.00  0.00     0.078 C 
HETATM    2  C   UNL     1      42.453 -15.195   3.055  1.00  0.00     0.127 C 
HETATM    3  C   UNL     1      43.354 -15.856   4.066  1.00  0.00     0.060 C 
HETATM    4  C   UNL     1      43.566 -17.244   3.684  1.00  0.00     0.003 A 
HETATM    5  C   UNL     1      42.657 -17.576   2.687  1.00  0.00     0.023 A 
HETATM    6  C   UNL     1      42.544 -18.867   2.209  1.00  0.00     0.016 A 
HETATM    7  C   UNL     1      43.386 -19.835   2.765  1.00  0.00     0.001 A 
HETATM    8  C   UNL     1      44.306 -19.498   3.779  1.00  0.00     0.001 A 
HETATM    9  C   UNL     1      44.397 -18.188   4.256  1.00  0.00     0.014 A 
HETATM   10  C   UNL     1      41.871 -16.391   2.321  1.00  0.00     0.171 C 
HETATM   11  O   UNL     1      40.938 -16.414   1.541  1.00  0.00    -0.291 OA
HETATM   12  N   UNL     1      43.797 -15.331   5.156  1.00  0.00    -0.231 NA
HETATM   13  C   UNL     1      43.233 -14.139   5.541  1.00  0.00     0.165 C 
HETATM   14  C   UNL     1      42.099 -13.665   4.989  1.00  0.00     0.067 C 
HETATM   15  N   UNL     1      43.850 -13.588   6.631  1.00  0.00    -0.200 NA
HETATM   16  C   UNL     1      43.294 -12.572   7.198  1.00  0.00     0.181 C 
HETATM   17  N   UNL     1      42.126 -12.041   6.761  1.00  0.00    -0.298 N 
HETATM   18  C   UNL     1      41.427 -12.573   5.722  1.00  0.00     0.258 C 
HETATM   19  O   UNL     1      40.290 -12.195   5.462  1.00  0.00    -0.267 OA
HETATM   20  H   UNL     1      41.694 -11.273   7.247  1.00  0.00     0.171 HD
ENDROOT
BRANCH   1  21
HETATM   21  C   UNL     1      40.988 -13.230   2.724  1.00  0.00    -0.048 A 
HETATM   22  C   UNL     1      39.642 -13.212   2.334  1.00  0.00     0.009 A 
HETATM   23  C   UNL     1      39.173 -12.290   1.388  1.00  0.00     0.019 A 
HETATM   24  C   UNL     1      40.038 -11.360   0.809  1.00  0.00    -0.000 A 
HETATM   25  C   UNL     1      41.386 -11.384   1.187  1.00  0.00     0.019 A 
HETATM   26  C   UNL     1      41.861 -12.312   2.122  1.00  0.00     0.009 A 
BRANCH  24  27
HETATM   27  S   UNL     1      39.556 -10.118  -0.385  1.00  0.00    -0.134 SA
HETATM   28  C   UNL     1      39.023 -11.095  -1.816  1.00  0.00     0.095 C 
ENDBRANCH  24  27
ENDBRANCH   1  21
BRANCH  16  29
HETATM   29  N   UNL     1      43.860 -11.998   8.288  1.00  0.00    -0.272 NA
HETATM   30  H   UNL     1      44.210 -11.069   8.070  1.00  0.00     0.127 HD
HETATM   31  H   UNL     1      44.543 -12.558   8.781  1.00  0.00     0.127 HD
ENDBRANCH  16  29
TORSDOF 3
ENDMDL
MODEL 3
REMARK VINA RESULT:      -8.0      3.099      4.529
REMARK  3 active torsions:
REMARK  status: ('A' for Active; 'I' for Inactive)
REMARK    1  A    between atoms: S_2  and  C_3 
REMARK    2  A    between atoms: C_6  and  C_7 
REMARK    3  A    between atoms: C_22  and  N_23 
ROOT
HETATM    1  C   UNL     1      39.941 -12.191   0.181  1.00  0.00     0.078 C 
HETATM    2  C   UNL     1      39.917 -13.123   1.390  1.00  0.00     0.127 C 
HETATM    3  C   UNL     1      40.211 -14.539   0.969  1.00  0.00     0.060 C 
HETATM    4  C   UNL     1      41.068 -15.167   1.965  1.00  0.00     0.003 A 
HETATM    5  C   UNL     1      41.556 -14.183   2.817  1.00  0.00     0.023 A 
HETATM    6  C   UNL     1      42.492 -14.468   3.792  1.00  0.00     0.016 A 
HETATM    7  C   UNL     1      42.931 -15.792   3.896  1.00  0.00     0.001 A 
HETATM    8  C   UNL     1      42.438 -16.788   3.029  1.00  0.00     0.001 A 
HETATM    9  C   UNL     1      41.499 -16.477   2.041  1.00  0.00     0.014 A 
HETATM   10  C   UNL     1      40.970 -12.885   2.460  1.00  0.00     0.171 C 
HETATM   11  O   UNL     1      41.291 -11.834   2.979  1.00  0.00    -0.291 OA
HETATM   12  N   UNL     1      39.860 -15.098  -0.137  1.00  0.00    -0.231 NA
HETATM   13  C   UNL     1      39.355 -14.273  -1.112  1.00  0.00     0.165 C 
HETATM   14  C   UNL     1      39.465 -12.932  -1.053  1.00  0.00     0.067 C 
HETATM   15  N   UNL     1      38.885 -14.962  -2.198  1.00  0.00    -0.200 NA
HETATM   16  C   UNL     1      38.563 -14.292  -3.252  1.00  0.00     0.181 C 
HETATM   17  N   UNL     1      38.680 -12.944  -3.324  1.00  0.00    -0.298 N 
HETATM   18  C   UNL     1      39.196 -12.201  -2.307  1.00  0.00     0.258 C 
HETATM   19  O   UNL     1      39.464 -11.015  -2.460  1.00  0.00    -0.267 OA
HETATM   20  H   UNL     1      38.460 -12.452  -4.174  1.00  0.00     0.171 HD
ENDROOT
BRANCH   1  21
HETATM   21  C   UNL     1      39.113 -10.949   0.528  1.00  0.00    -0.048 A 
HETATM   22  C   UNL     1      37.735 -11.079   0.754  1.00  0.00     0.009 A 
HETATM   23  C   UNL     1      36.943  -9.964   1.062  1.00  0.00     0.019 A 
HETATM   24  C   UNL     1      37.507  -8.691   1.154  1.00  0.00    -0.000 A 
HETATM   25  C   UNL     1      38.881  -8.557   0.917  1.00  0.00     0.019 A 
HETATM   26  C   UNL     1      39.673  -9.665   0.596  1.00  0.00     0.009 A 
BRANCH  24  27
HETATM   27  S   UNL     1      36.609  -7.199   1.566  1.00  0.00    -0.134 SA
HETATM   28  C   UNL     1      36.560  -7.226   3.378  1.00  0.00     0.095 C 
ENDBRANCH  24  27
ENDBRANCH   1  21
BRANCH  16  29
HETATM   29  N   UNL     1      38.105 -14.929  -4.357  1.00  0.00    -0.272 NA
HETATM   30  H   UNL     1      38.046 -15.932  -4.201  1.00  0.00     0.127 HD
HETATM   31  H   UNL     1      38.569 -14.704  -5.227  1.00  0.00     0.127 HD
ENDBRANCH  16  29
TORSDOF 3
ENDMDL
MODEL 4
REMARK VINA RESULT:      -8.0      3.670      7.232
REMARK  3 active torsions:
REMARK  status: ('A' for Active; 'I' for Inactive)
REMARK    1  A    between atoms: S_2  and  C_3 
REMARK    2  A    between atoms: C_6  and  C_7 
REMARK    3  A    between atoms: C_22  and  N_23 
ROOT
HETATM    1  C   UNL     1      40.981 -13.039   2.440  1.00  0.00     0.078 C 
HETATM    2  C   UNL     1      39.676 -13.146   1.654  1.00  0.00     0.127 C 
HETATM    3  C   UNL     1      38.751 -12.013   2.015  1.00  0.00     0.060 C 
HETATM    4  C   UNL     1      38.080 -11.540   0.813  1.00  0.00     0.003 A 
HETATM    5  C   UNL     1      38.714 -12.088  -0.296  1.00  0.00     0.023 A 
HETATM    6  C   UNL     1      38.368 -11.723  -1.583  1.00  0.00     0.016 A 
HETATM    7  C   UNL     1      37.347 -10.779  -1.731  1.00  0.00     0.001 A 
HETATM    8  C   UNL     1      36.707 -10.221  -0.606  1.00  0.00     0.001 A 
HETATM    9  C   UNL     1      37.080 -10.595   0.688  1.00  0.00     0.014 A 
HETATM   10  C   UNL     1      39.771 -13.008   0.144  1.00  0.00     0.171 C 
HETATM   11  O   UNL     1      40.547 -13.555  -0.615  1.00  0.00    -0.291 OA
HETATM   12  N   UNL     1      38.627 -11.464   3.174  1.00  0.00    -0.231 NA
HETATM   13  C   UNL     1      39.571 -11.794   4.117  1.00  0.00     0.165 C 
HETATM   14  C   UNL     1      40.717 -12.428   3.801  1.00  0.00     0.067 C 
HETATM   15  N   UNL     1      39.292 -11.274   5.351  1.00  0.00    -0.200 NA
HETATM   16  C   UNL     1      40.197 -11.355   6.267  1.00  0.00     0.181 C 
HETATM   17  N   UNL     1      41.407 -11.925   6.048  1.00  0.00    -0.298 N 
HETATM   18  C   UNL     1      41.775 -12.408   4.830  1.00  0.00     0.258 C 
HETATM   19  O   UNL     1      42.932 -12.749   4.607  1.00  0.00    -0.267 OA
HETATM   20  H   UNL     1      42.109 -11.939   6.769  1.00  0.00     0.171 HD
ENDROOT
BRANCH   1  21
HETATM   21  C   UNL     1      41.616 -14.433   2.488  1.00  0.00    -0.048 A 
HETATM   22  C   UNL     1      42.809 -14.674   1.791  1.00  0.00     0.009 A 
HETATM   23  C   UNL     1      43.412 -15.939   1.801  1.00  0.00     0.019 A 
HETATM   24  C   UNL     1      42.840 -16.996   2.511  1.00  0.00    -0.000 A 
HETATM   25  C   UNL     1      41.642 -16.762   3.198  1.00  0.00     0.019 A 
HETATM   26  C   UNL     1      41.029 -15.504   3.179  1.00  0.00     0.009 A 
BRANCH  24  27
HETATM   27  S   UNL     1      43.527 -18.645   2.624  1.00  0.00    -0.134 SA
HETATM   28  C   UNL     1      44.391 -18.631   4.217  1.00  0.00     0.095 C 
ENDBRANCH  24  27
ENDBRANCH   1  21
BRANCH  16  29
HETATM   29  N   UNL     1      39.972 -10.844   7.502  1.00  0.00    -0.272 NA
HETATM   30  H   UNL     1      38.999 -10.574   7.613  1.00  0.00     0.127 HD
HETATM   31  H   UNL     1      40.607 -10.118   7.806  1.00  0.00     0.127 HD
ENDBRANCH  16  29
TORSDOF 3
ENDMDL
MODEL 5
REMARK VINA RESULT:      -7.9      2.900      6.475
REMARK  3 active torsions:
REMARK  status: ('A' for Active; 'I' for Inactive)
REMARK    1  A    between atoms: S_2  and  C_3 
REMARK    2  A    between atoms: C_6  and  C_7 
REMARK    3  A    between atoms: C_22  and  N_23 
ROOT
HETATM    1  C   UNL     1      40.750 -13.802   1.945  1.00  0.00     0.078 C 
HETATM    2  C   UNL     1      41.543 -12.586   2.419  1.00  0.00     0.127 C 
HETATM    3  C   UNL     1      41.087 -11.346   1.696  1.00  0.00     0.060 C 
HETATM    4  C   UNL     1      41.050 -10.231   2.633  1.00  0.00     0.003 A 
HETATM    5  C   UNL     1      41.171 -10.731   3.924  1.00  0.00     0.023 A 
HETATM    6  C   UNL     1      41.051  -9.913   5.031  1.00  0.00     0.016 A 
HETATM    7  C   UNL     1      40.804  -8.555   4.805  1.00  0.00     0.001 A 
HETATM    8  C   UNL     1      40.678  -8.051   3.495  1.00  0.00     0.001 A 
HETATM    9  C   UNL     1      40.792  -8.897   2.388  1.00  0.00     0.014 A 
HETATM   10  C   UNL     1      41.377 -12.184   3.875  1.00  0.00     0.171 C 
HETATM   11  O   UNL     1      41.421 -12.892   4.862  1.00  0.00    -0.291 OA
HETATM   12  N   UNL     1      40.689 -11.274   0.473  1.00  0.00    -0.231 NA
HETATM   13  C   UNL     1      40.459 -12.465  -0.172  1.00  0.00     0.165 C 
HETATM   14  C   UNL     1      40.376 -13.638   0.485  1.00  0.00     0.067 C 
HETATM   15  N   UNL     1      40.170 -12.302  -1.500  1.00  0.00    -0.200 NA
HETATM   16  C   UNL     1      39.750 -13.327  -2.162  1.00  0.00     0.181 C 
HETATM   17  N   UNL     1      39.580 -14.545  -1.593  1.00  0.00    -0.298 N 
HETATM   18  C   UNL     1      39.789 -14.765  -0.267  1.00  0.00     0.258 C 
HETATM   19  O   UNL     1      39.454 -15.819   0.261  1.00  0.00    -0.267 OA
HETATM   20  H   UNL     1      39.213 -15.316  -2.125  1.00  0.00     0.171 HD
ENDROOT
BRANCH   1  21
HETATM   21  C   UNL     1      41.583 -15.053   2.245  1.00  0.00    -0.048 A 
HETATM   22  C   UNL     1      41.194 -15.909   3.285  1.00  0.00     0.009 A 
HETATM   23  C   UNL     1      41.938 -17.055   3.597  1.00  0.00     0.019 A 
HETATM   24  C   UNL     1      43.089 -17.377   2.877  1.00  0.00    -0.000 A 
HETATM   25  C   UNL     1      43.487 -16.517   1.845  1.00  0.00     0.019 A 
HETATM   26  C   UNL     1      42.755 -15.364   1.539  1.00  0.00     0.009 A 
BRANCH  24  27
HETATM   27  S   UNL     1      44.104 -18.823   3.160  1.00  0.00    -0.134 SA
HETATM   28  C   UNL     1      43.332 -20.089   2.118  1.00  0.00     0.095 C 
ENDBRANCH  24  27
ENDBRANCH   1  21
BRANCH  16  29
HETATM   29  N   UNL     1      39.440 -13.213  -3.477  1.00  0.00    -0.272 NA
HETATM   30  H   UNL     1      40.210 -13.526  -4.062  1.00  0.00     0.127 HD
HETATM   31  H   UNL     1      39.075 -12.317  -3.773  1.00  0.00     0.127 HD
ENDBRANCH  16  29
TORSDOF 3
ENDMDL
MODEL 6
REMARK VINA RESULT:      -7.9      2.039      5.391
REMARK  3 active torsions:
REMARK  status: ('A' for Active; 'I' for Inactive)
REMARK    1  A    between atoms: S_2  and  C_3 
REMARK    2  A    between atoms: C_6  and  C_7 
REMARK    3  A    between atoms: C_22  and  N_23 
ROOT
HETATM    1  C   UNL     1      41.293 -13.884   3.534  1.00  0.00     0.078 C 
HETATM    2  C   UNL     1      41.221 -13.177   2.182  1.00  0.00     0.127 C 
HETATM    3  C   UNL     1      41.093 -14.182   1.068  1.00  0.00     0.060 C 
HETATM    4  C   UNL     1      40.159 -13.678   0.072  1.00  0.00     0.003 A 
HETATM    5  C   UNL     1      39.487 -12.585   0.605  1.00  0.00     0.023 A 
HETATM    6  C   UNL     1      38.451 -11.970  -0.072  1.00  0.00     0.016 A 
HETATM    7  C   UNL     1      38.102 -12.489  -1.323  1.00  0.00     0.001 A 
HETATM    8  C   UNL     1      38.782 -13.600  -1.861  1.00  0.00     0.001 A 
HETATM    9  C   UNL     1      39.820 -14.215  -1.155  1.00  0.00     0.014 A 
HETATM   10  C   UNL     1      40.018 -12.281   1.940  1.00  0.00     0.171 C 
HETATM   11  O   UNL     1      39.551 -11.433   2.675  1.00  0.00    -0.291 OA
HETATM   12  N   UNL     1      41.633 -15.351   1.025  1.00  0.00    -0.231 NA
HETATM   13  C   UNL     1      42.203 -15.811   2.187  1.00  0.00     0.165 C 
HETATM   14  C   UNL     1      41.986 -15.223   3.380  1.00  0.00     0.067 C 
HETATM   15  N   UNL     1      42.867 -16.996   2.020  1.00  0.00    -0.200 NA
HETATM   16  C   UNL     1      43.278 -17.619   3.073  1.00  0.00     0.181 C 
HETATM   17  N   UNL     1      43.071 -17.148   4.327  1.00  0.00    -0.298 N 
HETATM   18  C   UNL     1      42.368 -16.008   4.571  1.00  0.00     0.258 C 
HETATM   19  O   UNL     1      42.035 -15.701   5.710  1.00  0.00    -0.267 OA
HETATM   20  H   UNL     1      43.368 -17.675   5.131  1.00  0.00     0.171 HD
ENDROOT
BRANCH   1  21
HETATM   21  C   UNL     1      41.971 -12.934   4.527  1.00  0.00    -0.048 A 
HETATM   22  C   UNL     1      41.212 -12.346   5.548  1.00  0.00     0.009 A 
HETATM   23  C   UNL     1      41.794 -11.462   6.467  1.00  0.00     0.019 A 
HETATM   24  C   UNL     1      43.151 -11.145   6.391  1.00  0.00    -0.000 A 
HETATM   25  C   UNL     1      43.909 -11.721   5.364  1.00  0.00     0.019 A 
HETATM   26  C   UNL     1      43.328 -12.594   4.436  1.00  0.00     0.009 A 
BRANCH  24  27
HETATM   27  S   UNL     1      44.013 -10.056   7.518  1.00  0.00    -0.134 SA
HETATM   28  C   UNL     1      45.670 -10.785   7.621  1.00  0.00     0.095 C 
ENDBRANCH  24  27
ENDBRANCH   1  21
BRANCH  16  29
HETATM   29  N   UNL     1      43.929 -18.802   2.959  1.00  0.00    -0.272 NA
HETATM   30  H   UNL     1      44.788 -18.696   2.426  1.00  0.00     0.127 HD
HETATM   31  H   UNL     1      43.376 -19.586   2.641  1.00  0.00     0.127 HD
ENDBRANCH  16  29
TORSDOF 3
ENDMDL
MODEL 7
REMARK VINA RESULT:      -7.8      2.718      5.587
REMARK  3 active torsions:
REMARK  status: ('A' for Active; 'I' for Inactive)
REMARK    1  A    between atoms: S_2  and  C_3 
REMARK    2  A    between atoms: C_6  and  C_7 
REMARK    3  A    between atoms: C_22  and  N_23 
ROOT
HETATM    1  C   UNL     1      42.327 -13.577   5.091  1.00  0.00     0.078 C 
HETATM    2  C   UNL     1      42.412 -13.215   3.609  1.00  0.00     0.127 C 
HETATM    3  C   UNL     1      42.080 -14.412   2.756  1.00  0.00     0.060 C 
HETATM    4  C   UNL     1      41.278 -13.982   1.620  1.00  0.00     0.003 A 
HETATM    5  C   UNL     1      40.850 -12.679   1.844  1.00  0.00     0.023 A 
HETATM    6  C   UNL     1      39.969 -12.047   0.987  1.00  0.00     0.016 A 
HETATM    7  C   UNL     1      39.525 -12.770  -0.125  1.00  0.00     0.001 A 
HETATM    8  C   UNL     1      39.957 -14.092  -0.350  1.00  0.00     0.001 A 
HETATM    9  C   UNL     1      40.839 -14.717   0.536  1.00  0.00     0.014 A 
HETATM   10  C   UNL     1      41.426 -12.178   3.098  1.00  0.00     0.171 C 
HETATM   11  O   UNL     1      41.146 -11.101   3.588  1.00  0.00    -0.291 OA
HETATM   12  N   UNL     1      42.361 -15.641   3.017  1.00  0.00    -0.231 NA
HETATM   13  C   UNL     1      42.817 -15.914   4.285  1.00  0.00     0.165 C 
HETATM   14  C   UNL     1      42.723 -15.026   5.293  1.00  0.00     0.067 C 
HETATM   15  N   UNL     1      43.215 -17.215   4.436  1.00  0.00    -0.200 NA
HETATM   16  C   UNL     1      43.481 -17.636   5.626  1.00  0.00     0.181 C 
HETATM   17  N   UNL     1      43.373 -16.846   6.722  1.00  0.00    -0.298 N 
HETATM   18  C   UNL     1      42.925 -15.563   6.653  1.00  0.00     0.258 C 
HETATM   19  O   UNL     1      42.659 -14.929   7.669  1.00  0.00    -0.267 OA
HETATM   20  H   UNL     1      43.548 -17.213   7.642  1.00  0.00     0.171 HD
ENDROOT
BRANCH   1  21
HETATM   21  C   UNL     1      43.186 -12.575   5.869  1.00  0.00    -0.048 A 
HETATM   22  C   UNL     1      42.563 -11.566   6.617  1.00  0.00     0.009 A 
HETATM   23  C   UNL     1      43.315 -10.624   7.332  1.00  0.00     0.019 A 
HETATM   24  C   UNL     1      44.710 -10.667   7.320  1.00  0.00    -0.000 A 
HETATM   25  C   UNL     1      45.335 -11.666   6.564  1.00  0.00     0.019 A 
HETATM   26  C   UNL     1      44.588 -12.601   5.838  1.00  0.00     0.009 A 
BRANCH  24  27
HETATM   27  S   UNL     1      45.777  -9.541   8.212  1.00  0.00    -0.134 SA
HETATM   28  C   UNL     1      45.292  -9.783   9.941  1.00  0.00     0.095 C 
ENDBRANCH  24  27
ENDBRANCH   1  21
BRANCH  16  29
HETATM   29  N   UNL     1      43.868 -18.919   5.829  1.00  0.00    -0.272 NA
HETATM   30  H   UNL     1      44.638 -19.170   5.214  1.00  0.00     0.127 HD
HETATM   31  H   UNL     1      43.133 -19.613   5.823  1.00  0.00     0.127 HD
ENDBRANCH  16  29
TORSDOF 3
ENDMDL
MODEL 8
REMARK VINA RESULT:      -7.8      3.432      5.265
REMARK  3 active torsions:
REMARK  status: ('A' for Active; 'I' for Inactive)
REMARK    1  A    between atoms: S_2  and  C_3 
REMARK    2  A    between atoms: C_6  and  C_7 
REMARK    3  A    between atoms: C_22  and  N_23 
ROOT
HETATM    1  C   UNL     1      40.780 -13.073   2.738  1.00  0.00     0.078 C 
HETATM    2  C   UNL     1      42.060 -13.890   2.572  1.00  0.00     0.127 C 
HETATM    3  C   UNL     1      42.579 -14.334   3.915  1.00  0.00     0.060 C 
HETATM    4  C   UNL     1      43.078 -15.698   3.809  1.00  0.00     0.003 A 
HETATM    5  C   UNL     1      42.659 -16.232   2.597  1.00  0.00     0.023 A 
HETATM    6  C   UNL     1      42.884 -17.557   2.272  1.00  0.00     0.016 A 
HETATM    7  C   UNL     1      43.557 -18.344   3.212  1.00  0.00     0.001 A 
HETATM    8  C   UNL     1      43.979 -17.801   4.442  1.00  0.00     0.001 A 
HETATM    9  C   UNL     1      43.731 -16.462   4.757  1.00  0.00     0.014 A 
HETATM   10  C   UNL     1      41.940 -15.209   1.827  1.00  0.00     0.171 C 
HETATM   11  O   UNL     1      41.382 -15.428   0.770  1.00  0.00    -0.291 OA
HETATM   12  N   UNL     1      42.513 -13.674   5.019  1.00  0.00    -0.231 NA
HETATM   13  C   UNL     1      41.712 -12.557   5.022  1.00  0.00     0.165 C 
HETATM   14  C   UNL     1      40.826 -12.299   4.041  1.00  0.00     0.067 C 
HETATM   15  N   UNL     1      41.803 -11.843   6.187  1.00  0.00    -0.200 NA
HETATM   16  C   UNL     1      40.961 -10.886   6.382  1.00  0.00     0.181 C 
HETATM   17  N   UNL     1      39.993 -10.570   5.487  1.00  0.00    -0.298 N 
HETATM   18  C   UNL     1      39.806 -11.274   4.338  1.00  0.00     0.258 C 
HETATM   19  O   UNL     1      38.818 -11.092   3.636  1.00  0.00    -0.267 OA
HETATM   20  H   UNL     1      39.325  -9.845   5.684  1.00  0.00     0.171 HD
ENDROOT
BRANCH   1  21
HETATM   21  C   UNL     1      40.616 -12.198   1.491  1.00  0.00    -0.048 A 
HETATM   22  C   UNL     1      39.563 -12.455   0.601  1.00  0.00     0.009 A 
HETATM   23  C   UNL     1      39.388 -11.685  -0.556  1.00  0.00     0.019 A 
HETATM   24  C   UNL     1      40.259 -10.635  -0.854  1.00  0.00    -0.000 A 
HETATM   25  C   UNL     1      41.319 -10.384   0.027  1.00  0.00     0.019 A 
HETATM   26  C   UNL     1      41.505 -11.160   1.177  1.00  0.00     0.009 A 
BRANCH  24  27
HETATM   27  S   UNL     1      40.124  -9.565  -2.281  1.00  0.00    -0.134 SA
HETATM   28  C   UNL     1      41.345  -8.267  -1.949  1.00  0.00     0.095 C 
ENDBRANCH  24  27
ENDBRANCH   1  21
BRANCH  16  29
HETATM   29  N   UNL     1      41.002 -10.158   7.525  1.00  0.00    -0.272 NA
HETATM   30  H   UNL     1      41.536 -10.638   8.244  1.00  0.00     0.127 HD
HETATM   31  H   UNL     1      40.114  -9.820   7.871  1.00  0.00     0.127 HD
ENDBRANCH  16  29
TORSDOF 3
ENDMDL
MODEL 9
REMARK VINA RESULT:      -7.7      2.982      6.330
REMARK  3 active torsions:
REMARK  status: ('A' for Active; 'I' for Inactive)
REMARK    1  A    between atoms: S_2  and  C_3 
REMARK    2  A    between atoms: C_6  and  C_7 
REMARK    3  A    between atoms: C_22  and  N_23 
ROOT
HETATM    1  C   UNL     1      39.976 -13.524   2.441  1.00  0.00     0.078 C 
HETATM    2  C   UNL     1      40.238 -12.171   3.099  1.00  0.00     0.127 C 
HETATM    3  C   UNL     1      39.758 -11.053   2.211  1.00  0.00     0.060 C 
HETATM    4  C   UNL     1      39.137 -10.023   3.032  1.00  0.00     0.003 A 
HETATM    5  C   UNL     1      38.940 -10.531   4.310  1.00  0.00     0.023 A 
HETATM    6  C   UNL     1      38.258  -9.816   5.277  1.00  0.00     0.016 A 
HETATM    7  C   UNL     1      37.774  -8.553   4.922  1.00  0.00     0.001 A 
HETATM    8  C   UNL     1      37.972  -8.041   3.624  1.00  0.00     0.001 A 
HETATM    9  C   UNL     1      38.654  -8.784   2.657  1.00  0.00     0.014 A 
HETATM   10  C   UNL     1      39.502 -11.885   4.396  1.00  0.00     0.171 C 
HETATM   11  O   UNL     1      39.388 -12.602   5.371  1.00  0.00    -0.291 OA
HETATM   12  N   UNL     1      39.787 -11.029   0.923  1.00  0.00    -0.231 NA
HETATM   13  C   UNL     1      40.087 -12.212   0.292  1.00  0.00     0.165 C 
HETATM   14  C   UNL     1      40.082 -13.396   0.934  1.00  0.00     0.067 C 
HETATM   15  N   UNL     1      40.227 -12.069  -1.062  1.00  0.00    -0.200 NA
HETATM   16  C   UNL     1      40.320 -13.136  -1.782  1.00  0.00     0.181 C 
HETATM   17  N   UNL     1      40.276 -14.382  -1.249  1.00  0.00    -0.298 N 
HETATM   18  C   UNL     1      40.078 -14.600   0.080  1.00  0.00     0.258 C 
HETATM   19  O   UNL     1      39.857 -15.726   0.511  1.00  0.00    -0.267 OA
HETATM   20  H   UNL     1      40.310 -15.196  -1.839  1.00  0.00     0.171 HD
ENDROOT
BRANCH   1  21
HETATM   21  C   UNL     1      40.943 -14.542   3.056  1.00  0.00    -0.048 A 
HETATM   22  C   UNL     1      42.325 -14.352   2.917  1.00  0.00     0.009 A 
HETATM   23  C   UNL     1      43.240 -15.268   3.455  1.00  0.00     0.019 A 
HETATM   24  C   UNL     1      42.797 -16.395   4.149  1.00  0.00    -0.000 A 
HETATM   25  C   UNL     1      41.417 -16.593   4.279  1.00  0.00     0.019 A 
HETATM   26  C   UNL     1      40.499 -15.688   3.731  1.00  0.00     0.009 A 
BRANCH  24  27
HETATM   27  S   UNL     1      43.863 -17.617   4.904  1.00  0.00    -0.134 SA
HETATM   28  C   UNL     1      43.308 -17.650   6.629  1.00  0.00     0.095 C 
ENDBRANCH  24  27
ENDBRANCH   1  21
BRANCH  16  29
HETATM   29  N   UNL     1      40.448 -13.047  -3.128  1.00  0.00    -0.272 NA
HETATM   30  H   UNL     1      40.625 -13.959  -3.539  1.00  0.00     0.127 HD
HETATM   31  H   UNL     1      41.090 -12.343  -3.469  1.00  0.00     0.127 HD
ENDBRANCH  16  29
TORSDOF 3
ENDMDL
MODEL 10
REMARK VINA RESULT:      -7.6     16.572     19.442
REMARK  3 active torsions:
REMARK  status: ('A' for Active; 'I' for Inactive)
REMARK    1  A    between atoms: S_2  and  C_3 
REMARK    2  A    between atoms: C_6  and  C_7 
REMARK    3  A    between atoms: C_22  and  N_23 
ROOT
HETATM    1  C   UNL     1      49.388 -31.293   0.786  1.00  0.00     0.078 C 
HETATM    2  C   UNL     1      48.535 -30.026   0.810  1.00  0.00     0.127 C 
HETATM    3  C   UNL     1      48.323 -29.508  -0.589  1.00  0.00     0.060 C 
HETATM    4  C   UNL     1      46.954 -29.029  -0.720  1.00  0.00     0.003 A 
HETATM    5  C   UNL     1      46.224 -29.461   0.382  1.00  0.00     0.023 A 
HETATM    6  C   UNL     1      44.861 -29.255   0.473  1.00  0.00     0.016 A 
HETATM    7  C   UNL     1      44.237 -28.590  -0.588  1.00  0.00     0.001 A 
HETATM    8  C   UNL     1      44.978 -28.156  -1.706  1.00  0.00     0.001 A 
HETATM    9  C   UNL     1      46.355 -28.384  -1.784  1.00  0.00     0.014 A 
HETATM   10  C   UNL     1      47.109 -30.167   1.316  1.00  0.00     0.171 C 
HETATM   11  O   UNL     1      46.719 -30.732   2.319  1.00  0.00    -0.291 OA
HETATM   12  N   UNL     1      49.165 -29.561  -1.562  1.00  0.00    -0.231 NA
HETATM   13  C   UNL     1      50.277 -30.345  -1.373  1.00  0.00     0.165 C 
HETATM   14  C   UNL     1      50.374 -31.231  -0.363  1.00  0.00     0.067 C 
HETATM   15  N   UNL     1      51.180 -30.241  -2.397  1.00  0.00    -0.200 NA
HETATM   16  C   UNL     1      52.169 -31.069  -2.425  1.00  0.00     0.181 C 
HETATM   17  N   UNL     1      52.339 -32.034  -1.490  1.00  0.00    -0.298 N 
HETATM   18  C   UNL     1      51.450 -32.235  -0.479  1.00  0.00     0.258 C 
HETATM   19  O   UNL     1      51.523 -33.224   0.242  1.00  0.00    -0.267 OA
HETATM   20  H   UNL     1      53.098 -32.692  -1.559  1.00  0.00     0.171 HD
ENDROOT
BRANCH   1  21
HETATM   21  C   UNL     1      50.036 -31.449   2.165  1.00  0.00    -0.048 A 
HETATM   22  C   UNL     1      49.795 -32.610   2.915  1.00  0.00     0.009 A 
HETATM   23  C   UNL     1      50.361 -32.783   4.185  1.00  0.00     0.019 A 
HETATM   24  C   UNL     1      51.184 -31.802   4.740  1.00  0.00    -0.000 A 
HETATM   25  C   UNL     1      51.417 -30.636   3.999  1.00  0.00     0.019 A 
HETATM   26  C   UNL     1      50.843 -30.453   2.735  1.00  0.00     0.009 A 
BRANCH  24  27
HETATM   27  S   UNL     1      51.985 -31.918   6.335  1.00  0.00    -0.134 SA
HETATM   28  C   UNL     1      53.182 -33.260   6.108  1.00  0.00     0.095 C 
ENDBRANCH  24  27
ENDBRANCH   1  21
BRANCH  16  29
HETATM   29  N   UNL     1      53.082 -31.012  -3.425  1.00  0.00    -0.272 NA
HETATM   30  H   UNL     1      53.669 -31.842  -3.430  1.00  0.00     0.127 HD
HETATM   31  H   UNL     1      53.624 -30.161  -3.486  1.00  0.00     0.127 HD
ENDBRANCH  16  29
TORSDOF 3
ENDMDL
