MODEL 1
REMARK VINA RESULT:      -9.5      0.000      0.000
REMARK  8 active torsions:
REMARK  status: ('A' for Active; 'I' for Inactive)
REMARK    1  A    between atoms: C_3  and  S_4 
REMARK    2  A    between atoms: S_4  and  C_5 
REMARK    3  A    between atoms: C_5  and  C_6 
REMARK       I    between atoms: C_6  and  N_7 
REMARK    4  A    between atoms: N_7  and  C_8 
REMARK    5  A    between atoms: C_8  and  C_9 
REMARK    6  A    between atoms: C_18  and  C_19 
REMARK    7  A    between atoms: C_19  and  O_20 
REMARK    8  A    between atoms: O_20  and  C_21 
ROOT
HETATM    1  C   UNL     1      41.566 -10.868   6.264  1.00  0.00     0.160 C 
HETATM    2  N   UNL     1      42.769 -11.541   6.680  1.00  0.00    -0.314 N 
HETATM    3  C   UNL     1      43.815 -11.030   7.394  1.00  0.00     0.191 A 
HETATM    4  N   UNL     1      44.718 -11.961   7.591  1.00  0.00    -0.123 NA
HETATM    5  N   UNL     1      44.273 -13.108   6.987  1.00  0.00    -0.132 NA
HETATM    6  C   UNL     1      43.102 -12.855   6.434  1.00  0.00     0.154 A 
ENDROOT
BRANCH   3   7
HETATM    7  S   UNL     1      43.920  -9.392   7.934  1.00  0.00    -0.081 SA
BRANCH   7   8
HETATM    8  C   UNL     1      44.860  -9.589   9.477  1.00  0.00     0.185 C 
BRANCH   8   9
HETATM    9  C   UNL     1      44.012 -10.186  10.587  1.00  0.00     0.227 C 
HETATM   10  N   UNL     1      42.902  -9.455  10.933  1.00  0.00    -0.356 N 
HETATM   11  H   UNL     1      42.714  -8.589  10.432  1.00  0.00     0.162 HD
HETATM   12  O   UNL     1      44.344 -11.220  11.164  1.00  0.00    -0.273 OA
BRANCH  10  13
HETATM   13  C   UNL     1      42.036  -9.807  12.033  1.00  0.00     0.161 C 
BRANCH  13  14
HETATM   14  C   UNL     1      42.194  -8.868  13.202  1.00  0.00    -0.041 A 
HETATM   15  C   UNL     1      43.174  -7.864  13.173  1.00  0.00     0.009 A 
HETATM   16  C   UNL     1      43.303  -6.965  14.234  1.00  0.00     0.001 A 
HETATM   17  C   UNL     1      42.455  -7.059  15.336  1.00  0.00     0.000 A 
HETATM   18  C   UNL     1      41.480  -8.054  15.380  1.00  0.00     0.001 A 
HETATM   19  C   UNL     1      41.347  -8.951  14.318  1.00  0.00     0.009 A 
ENDBRANCH  13  14
ENDBRANCH  10  13
ENDBRANCH   8   9
ENDBRANCH   7   8
ENDBRANCH   3   7
BRANCH   6  20
HETATM   20  C   UNL     1      42.258 -13.835   5.694  1.00  0.00     0.256 C 
BRANCH  20  21
HETATM   21  O   UNL     1      42.995 -14.249   4.544  1.00  0.00    -0.344 OA
BRANCH  21  22
HETATM   22  C   UNL     1      43.237 -15.590   4.422  1.00  0.00     0.070 A 
HETATM   23  C   UNL     1      43.034 -16.360   3.274  1.00  0.00     0.049 A 
HETATM   24  C   UNL     1      43.310 -17.740   3.274  1.00  0.00    -0.023 A 
HETATM   25  C   UNL     1      43.805 -18.351   4.448  1.00  0.00    -0.026 A 
HETATM   26  C   UNL     1      43.099 -18.529   2.130  1.00  0.00     0.012 A 
HETATM   27  C   UNL     1      44.019 -17.566   5.588  1.00  0.00     0.015 A 
HETATM   28  C   UNL     1      44.069 -19.730   4.448  1.00  0.00     0.012 A 
HETATM   29  C   UNL     1      43.741 -16.197   5.571  1.00  0.00     0.037 A 
HETATM   30  C   UNL     1      43.850 -20.499   3.304  1.00  0.00     0.001 A 
HETATM   31  C   UNL     1      43.367 -19.899   2.146  1.00  0.00     0.001 A 
ENDBRANCH  21  22
ENDBRANCH  20  21
ENDBRANCH   6  20
TORSDOF 8
ENDMDL
MODEL 2
REMARK VINA RESULT:      -9.5      1.237      2.003
REMARK  8 active torsions:
REMARK  status: ('A' for Active; 'I' for Inactive)
REMARK    1  A    between atoms: C_3  and  S_4 
REMARK    2  A    between atoms: S_4  and  C_5 
REMARK    3  A    between atoms: C_5  and  C_6 
REMARK       I    between atoms: C_6  and  N_7 
REMARK    4  A    between atoms: N_7  and  C_8 
REMARK    5  A    between atoms: C_8  and  C_9 
REMARK    6  A    between atoms: C_18  and  C_19 
REMARK    7  A    between atoms: C_19  and  O_20 
REMARK    8  A    between atoms: O_20  and  C_21 
ROOT
HETATM    1  C   UNL     1      40.917 -12.267   5.962  1.00  0.00     0.160 C 
HETATM    2  N   UNL     1      42.305 -12.025   6.260  1.00  0.00    -0.314 N 
HETATM    3  C   UNL     1      42.900 -10.840   6.589  1.00  0.00     0.191 A 
HETATM    4  N   UNL     1      44.181 -11.029   6.806  1.00  0.00    -0.123 NA
HETATM    5  N   UNL     1      44.445 -12.358   6.605  1.00  0.00    -0.132 NA
HETATM    6  C   UNL     1      43.318 -12.959   6.272  1.00  0.00     0.154 A 
ENDROOT
BRANCH   3   7
HETATM    7  S   UNL     1      42.074  -9.326   6.683  1.00  0.00    -0.081 SA
BRANCH   7   8
HETATM    8  C   UNL     1      41.419  -9.386   8.377  1.00  0.00     0.185 C 
BRANCH   8   9
HETATM    9  C   UNL     1      42.529  -9.399   9.415  1.00  0.00     0.227 C 
HETATM   10  N   UNL     1      42.290 -10.181  10.518  1.00  0.00    -0.356 N 
HETATM   11  H   UNL     1      41.413 -10.697  10.568  1.00  0.00     0.162 HD
HETATM   12  O   UNL     1      43.537  -8.705   9.287  1.00  0.00    -0.273 OA
BRANCH  10  13
HETATM   13  C   UNL     1      43.178 -10.237  11.654  1.00  0.00     0.161 C 
BRANCH  13  14
HETATM   14  C   UNL     1      42.790  -9.250  12.727  1.00  0.00    -0.041 A 
HETATM   15  C   UNL     1      41.743  -9.545  13.613  1.00  0.00     0.009 A 
HETATM   16  C   UNL     1      41.402  -8.655  14.633  1.00  0.00     0.001 A 
HETATM   17  C   UNL     1      42.103  -7.460  14.780  1.00  0.00     0.000 A 
HETATM   18  C   UNL     1      43.143  -7.152  13.905  1.00  0.00     0.001 A 
HETATM   19  C   UNL     1      43.488  -8.042  12.886  1.00  0.00     0.009 A 
ENDBRANCH  13  14
ENDBRANCH  10  13
ENDBRANCH   8   9
ENDBRANCH   7   8
ENDBRANCH   3   7
BRANCH   6  20
HETATM   20  C   UNL     1      43.155 -14.412   5.989  1.00  0.00     0.256 C 
BRANCH  20  21
HETATM   21  O   UNL     1      43.116 -14.568   4.571  1.00  0.00    -0.344 OA
BRANCH  21  22
HETATM   22  C   UNL     1      43.220 -15.846   4.092  1.00  0.00     0.070 A 
HETATM   23  C   UNL     1      43.568 -16.975   4.837  1.00  0.00     0.049 A 
HETATM   24  C   UNL     1      43.653 -18.242   4.229  1.00  0.00    -0.023 A 
HETATM   25  C   UNL     1      43.375 -18.371   2.850  1.00  0.00    -0.026 A 
HETATM   26  C   UNL     1      44.015 -19.384   4.963  1.00  0.00     0.012 A 
HETATM   27  C   UNL     1      43.011 -17.234   2.117  1.00  0.00     0.015 A 
HETATM   28  C   UNL     1      43.471 -19.634   2.243  1.00  0.00     0.012 A 
HETATM   29  C   UNL     1      42.931 -15.985   2.736  1.00  0.00     0.037 A 
HETATM   30  C   UNL     1      43.835 -20.757   2.987  1.00  0.00     0.001 A 
HETATM   31  C   UNL     1      44.106 -20.633   4.346  1.00  0.00     0.001 A 
ENDBRANCH  21  22
ENDBRANCH  20  21
ENDBRANCH   6  20
TORSDOF 8
ENDMDL
MODEL 3
REMARK VINA RESULT:      -9.3      2.160     10.867
REMARK  8 active torsions:
REMARK  status: ('A' for Active; 'I' for Inactive)
REMARK    1  A    between atoms: C_3  and  S_4 
REMARK    2  A    between atoms: S_4  and  C_5 
REMARK    3  A    between atoms: C_5  and  C_6 
REMARK       I    between atoms: C_6  and  N_7 
REMARK    4  A    between atoms: N_7  and  C_8 
REMARK    5  A    between atoms: C_8  and  C_9 
REMARK    6  A    between atoms: C_18  and  C_19 
REMARK    7  A    between atoms: C_19  and  O_20 
REMARK    8  A    between atoms: O_20  and  C_21 
ROOT
HETATM    1  C   UNL     1      42.576 -10.865   5.270  1.00  0.00     0.160 C 
HETATM    2  N   UNL     1      43.020 -12.019   6.008  1.00  0.00    -0.314 N 
HETATM    3  C   UNL     1      42.330 -13.171   6.262  1.00  0.00     0.191 A 
HETATM    4  N   UNL     1      43.080 -13.997   6.953  1.00  0.00    -0.123 NA
HETATM    5  N   UNL     1      44.283 -13.380   7.175  1.00  0.00    -0.132 NA
HETATM    6  C   UNL     1      44.247 -12.187   6.611  1.00  0.00     0.154 A 
ENDROOT
BRANCH   3   7
HETATM    7  S   UNL     1      40.706 -13.469   5.753  1.00  0.00    -0.081 SA
BRANCH   7   8
HETATM    8  C   UNL     1      40.658 -15.285   5.773  1.00  0.00     0.185 C 
BRANCH   8   9
HETATM    9  C   UNL     1      41.211 -15.883   4.490  1.00  0.00     0.227 C 
HETATM   10  N   UNL     1      42.559 -16.144   4.500  1.00  0.00    -0.356 N 
HETATM   11  H   UNL     1      43.089 -15.937   5.344  1.00  0.00     0.162 HD
HETATM   12  O   UNL     1      40.498 -16.059   3.503  1.00  0.00    -0.273 OA
BRANCH  10  13
HETATM   13  C   UNL     1      43.281 -16.613   3.341  1.00  0.00     0.161 C 
BRANCH  13  14
HETATM   14  C   UNL     1      43.462 -18.110   3.352  1.00  0.00    -0.041 A 
HETATM   15  C   UNL     1      43.173 -18.864   2.204  1.00  0.00     0.009 A 
HETATM   16  C   UNL     1      43.374 -20.246   2.191  1.00  0.00     0.001 A 
HETATM   17  C   UNL     1      43.864 -20.890   3.325  1.00  0.00     0.000 A 
HETATM   18  C   UNL     1      44.151 -20.154   4.474  1.00  0.00     0.001 A 
HETATM   19  C   UNL     1      43.955 -18.772   4.487  1.00  0.00     0.009 A 
ENDBRANCH  13  14
ENDBRANCH  10  13
ENDBRANCH   8   9
ENDBRANCH   7   8
ENDBRANCH   3   7
BRANCH   6  20
HETATM   20  C   UNL     1      45.359 -11.196   6.595  1.00  0.00     0.256 C 
BRANCH  20  21
HETATM   21  O   UNL     1      45.782 -11.009   7.945  1.00  0.00    -0.344 OA
BRANCH  21  22
HETATM   22  C   UNL     1      45.080 -10.097   8.686  1.00  0.00     0.070 A 
HETATM   23  C   UNL     1      44.654 -10.265  10.006  1.00  0.00     0.049 A 
HETATM   24  C   UNL     1      43.926  -9.256  10.662  1.00  0.00    -0.023 A 
HETATM   25  C   UNL     1      43.630  -8.055   9.978  1.00  0.00    -0.026 A 
HETATM   26  C   UNL     1      43.480  -9.415  11.985  1.00  0.00     0.012 A 
HETATM   27  C   UNL     1      44.077  -7.891   8.660  1.00  0.00     0.015 A 
HETATM   28  C   UNL     1      42.894  -7.053  10.631  1.00  0.00     0.012 A 
HETATM   29  C   UNL     1      44.798  -8.903   8.024  1.00  0.00     0.037 A 
HETATM   30  C   UNL     1      42.456  -7.231  11.944  1.00  0.00     0.001 A 
HETATM   31  C   UNL     1      42.750  -8.411  12.621  1.00  0.00     0.001 A 
ENDBRANCH  21  22
ENDBRANCH  20  21
ENDBRANCH   6  20
TORSDOF 8
ENDMDL
MODEL 4
REMARK VINA RESULT:      -9.2      3.097      4.414
REMARK  8 active torsions:
REMARK  status: ('A' for Active; 'I' for Inactive)
REMARK    1  A    between atoms: C_3  and  S_4 
REMARK    2  A    between atoms: S_4  and  C_5 
REMARK    3  A    between atoms: C_5  and  C_6 
REMARK       I    between atoms: C_6  and  N_7 
REMARK    4  A    between atoms: N_7  and  C_8 
REMARK    5  A    between atoms: C_8  and  C_9 
REMARK    6  A    between atoms: C_18  and  C_19 
REMARK    7  A    between atoms: C_19  and  O_20 
REMARK    8  A    between atoms: O_20  and  C_21 
ROOT
HETATM    1  C   UNL     1      42.495 -11.554   5.464  1.00  0.00     0.160 C 
HETATM    2  N   UNL     1      41.422 -12.434   5.849  1.00  0.00    -0.314 N 
HETATM    3  C   UNL     1      40.107 -12.121   6.044  1.00  0.00     0.191 A 
HETATM    4  N   UNL     1      39.435 -13.200   6.371  1.00  0.00    -0.123 NA
HETATM    5  N   UNL     1      40.319 -14.246   6.408  1.00  0.00    -0.132 NA
HETATM    6  C   UNL     1      41.517 -13.786   6.098  1.00  0.00     0.154 A 
ENDROOT
BRANCH   3   7
HETATM    7  S   UNL     1      39.449 -10.531   5.893  1.00  0.00    -0.081 SA
BRANCH   7   8
HETATM    8  C   UNL     1      39.344 -10.026   7.636  1.00  0.00     0.185 C 
BRANCH   8   9
HETATM    9  C   UNL     1      40.497  -9.121   8.036  1.00  0.00     0.227 C 
HETATM   10  N   UNL     1      41.488  -9.725   8.769  1.00  0.00    -0.356 N 
HETATM   11  H   UNL     1      41.399 -10.716   8.986  1.00  0.00     0.162 HD
HETATM   12  O   UNL     1      40.496  -7.921   7.764  1.00  0.00    -0.273 OA
BRANCH  10  13
HETATM   13  C   UNL     1      42.608  -9.005   9.328  1.00  0.00     0.161 C 
BRANCH  13  14
HETATM   14  C   UNL     1      43.926  -9.487   8.775  1.00  0.00    -0.041 A 
HETATM   15  C   UNL     1      44.071 -10.819   8.359  1.00  0.00     0.009 A 
HETATM   16  C   UNL     1      45.275 -11.265   7.810  1.00  0.00     0.001 A 
HETATM   17  C   UNL     1      46.348 -10.386   7.672  1.00  0.00     0.000 A 
HETATM   18  C   UNL     1      46.218  -9.061   8.085  1.00  0.00     0.001 A 
HETATM   19  C   UNL     1      45.014  -8.613   8.630  1.00  0.00     0.009 A 
ENDBRANCH  13  14
ENDBRANCH  10  13
ENDBRANCH   8   9
ENDBRANCH   7   8
ENDBRANCH   3   7
BRANCH   6  20
HETATM   20  C   UNL     1      42.764 -14.596   5.998  1.00  0.00     0.256 C 
BRANCH  20  21
HETATM   21  O   UNL     1      43.071 -14.734   4.612  1.00  0.00    -0.344 OA
BRANCH  21  22
HETATM   22  C   UNL     1      43.202 -16.011   4.138  1.00  0.00     0.070 A 
HETATM   23  C   UNL     1      43.554 -17.134   4.892  1.00  0.00     0.049 A 
HETATM   24  C   UNL     1      43.668 -18.400   4.289  1.00  0.00    -0.023 A 
HETATM   25  C   UNL     1      43.416 -18.537   2.905  1.00  0.00    -0.026 A 
HETATM   26  C   UNL     1      44.034 -19.536   5.032  1.00  0.00     0.012 A 
HETATM   27  C   UNL     1      43.048 -17.407   2.163  1.00  0.00     0.015 A 
HETATM   28  C   UNL     1      43.542 -19.800   2.303  1.00  0.00     0.012 A 
HETATM   29  C   UNL     1      42.939 -16.158   2.777  1.00  0.00     0.037 A 
HETATM   30  C   UNL     1      43.910 -20.915   3.056  1.00  0.00     0.001 A 
HETATM   31  C   UNL     1      44.154 -20.784   4.419  1.00  0.00     0.001 A 
ENDBRANCH  21  22
ENDBRANCH  20  21
ENDBRANCH   6  20
TORSDOF 8
ENDMDL
MODEL 5
REMARK VINA RESULT:      -9.1      2.334     10.490
REMARK  8 active torsions:
REMARK  status: ('A' for Active; 'I' for Inactive)
REMARK    1  A    between atoms: C_3  and  S_4 
REMARK    2  A    between atoms: S_4  and  C_5 
REMARK    3  A    between atoms: C_5  and  C_6 
REMARK       I    between atoms: C_6  and  N_7 
REMARK    4  A    between atoms: N_7  and  C_8 
REMARK    5  A    between atoms: C_8  and  C_9 
REMARK    6  A    between atoms: C_18  and  C_19 
REMARK    7  A    between atoms: C_19  and  O_20 
REMARK    8  A    between atoms: O_20  and  C_21 
ROOT
HETATM    1  C   UNL     1      42.097 -10.967   6.471  1.00  0.00     0.160 C 
HETATM    2  N   UNL     1      43.125 -11.129   5.475  1.00  0.00    -0.314 N 
HETATM    3  C   UNL     1      42.985 -11.139   4.116  1.00  0.00     0.191 A 
HETATM    4  N   UNL     1      44.159 -11.294   3.548  1.00  0.00    -0.123 NA
HETATM    5  N   UNL     1      45.093 -11.402   4.545  1.00  0.00    -0.132 NA
HETATM    6  C   UNL     1      44.472 -11.308   5.706  1.00  0.00     0.154 A 
ENDROOT
BRANCH   3   7
HETATM    7  S   UNL     1      41.477 -10.986   3.289  1.00  0.00    -0.081 SA
BRANCH   7   8
HETATM    8  C   UNL     1      41.206 -12.694   2.730  1.00  0.00     0.185 C 
BRANCH   8   9
HETATM    9  C   UNL     1      41.363 -13.695   3.863  1.00  0.00     0.227 C 
HETATM   10  N   UNL     1      42.565 -14.357   3.898  1.00  0.00    -0.356 N 
HETATM   11  H   UNL     1      43.262 -14.137   3.189  1.00  0.00     0.162 HD
HETATM   12  O   UNL     1      40.444 -13.925   4.649  1.00  0.00    -0.273 OA
BRANCH  10  13
HETATM   13  C   UNL     1      42.857 -15.416   4.834  1.00  0.00     0.161 C 
BRANCH  13  14
HETATM   14  C   UNL     1      43.224 -16.703   4.138  1.00  0.00    -0.041 A 
HETATM   15  C   UNL     1      44.105 -17.609   4.749  1.00  0.00     0.009 A 
HETATM   16  C   UNL     1      44.420 -18.821   4.132  1.00  0.00     0.001 A 
HETATM   17  C   UNL     1      43.861 -19.141   2.896  1.00  0.00     0.000 A 
HETATM   18  C   UNL     1      42.988 -18.249   2.276  1.00  0.00     0.001 A 
HETATM   19  C   UNL     1      42.668 -17.039   2.894  1.00  0.00     0.009 A 
ENDBRANCH  13  14
ENDBRANCH  10  13
ENDBRANCH   8   9
ENDBRANCH   7   8
ENDBRANCH   3   7
BRANCH   6  20
HETATM   20  C   UNL     1      45.119 -11.351   7.047  1.00  0.00     0.256 C 
BRANCH  20  21
HETATM   21  O   UNL     1      45.446 -10.009   7.405  1.00  0.00    -0.344 OA
BRANCH  21  22
HETATM   22  C   UNL     1      44.884  -9.529   8.557  1.00  0.00     0.070 A 
HETATM   23  C   UNL     1      44.117  -8.366   8.674  1.00  0.00     0.049 A 
HETATM   24  C   UNL     1      43.600  -7.967   9.919  1.00  0.00    -0.023 A 
HETATM   25  C   UNL     1      43.854  -8.756  11.064  1.00  0.00    -0.026 A 
HETATM   26  C   UNL     1      42.837  -6.794  10.054  1.00  0.00     0.012 A 
HETATM   27  C   UNL     1      44.610  -9.928  10.931  1.00  0.00     0.015 A 
HETATM   28  C   UNL     1      43.345  -8.350  12.309  1.00  0.00     0.012 A 
HETATM   29  C   UNL     1      45.116 -10.310   9.687  1.00  0.00     0.037 A 
HETATM   30  C   UNL     1      42.593  -7.179  12.424  1.00  0.00     0.001 A 
HETATM   31  C   UNL     1      42.339  -6.403  11.298  1.00  0.00     0.001 A 
ENDBRANCH  21  22
ENDBRANCH  20  21
ENDBRANCH   6  20
TORSDOF 8
ENDMDL
MODEL 6
REMARK VINA RESULT:      -9.1      2.770      4.152
REMARK  8 active torsions:
REMARK  status: ('A' for Active; 'I' for Inactive)
REMARK    1  A    between atoms: C_3  and  S_4 
REMARK    2  A    between atoms: S_4  and  C_5 
REMARK    3  A    between atoms: C_5  and  C_6 
REMARK       I    between atoms: C_6  and  N_7 
REMARK    4  A    between atoms: N_7  and  C_8 
REMARK    5  A    between atoms: C_8  and  C_9 
REMARK    6  A    between atoms: C_18  and  C_19 
REMARK    7  A    between atoms: C_19  and  O_20 
REMARK    8  A    between atoms: O_20  and  C_21 
ROOT
HETATM    1  C   UNL     1      41.912 -10.012   5.499  1.00  0.00     0.160 C 
HETATM    2  N   UNL     1      40.828 -10.810   6.012  1.00  0.00    -0.314 N 
HETATM    3  C   UNL     1      39.864 -10.442   6.907  1.00  0.00     0.191 A 
HETATM    4  N   UNL     1      39.040 -11.444   7.112  1.00  0.00    -0.123 NA
HETATM    5  N   UNL     1      39.471 -12.499   6.352  1.00  0.00    -0.132 NA
HETATM    6  C   UNL     1      40.550 -12.121   5.693  1.00  0.00     0.154 A 
ENDROOT
BRANCH   3   7
HETATM    7  S   UNL     1      39.770  -8.890   7.658  1.00  0.00    -0.081 SA
BRANCH   7   8
HETATM    8  C   UNL     1      39.307  -9.346   9.355  1.00  0.00     0.185 C 
BRANCH   8   9
HETATM    9  C   UNL     1      40.525  -9.573  10.235  1.00  0.00     0.227 C 
HETATM   10  N   UNL     1      41.737  -9.399   9.614  1.00  0.00    -0.356 N 
HETATM   11  H   UNL     1      41.746  -9.127   8.633  1.00  0.00     0.162 HD
HETATM   12  O   UNL     1      40.414  -9.944  11.403  1.00  0.00    -0.273 OA
BRANCH  10  13
HETATM   13  C   UNL     1      43.001  -9.671  10.256  1.00  0.00     0.161 C 
BRANCH  13  14
HETATM   14  C   UNL     1      44.094  -9.961   9.259  1.00  0.00    -0.041 A 
HETATM   15  C   UNL     1      44.007 -11.087   8.424  1.00  0.00     0.009 A 
HETATM   16  C   UNL     1      44.995 -11.343   7.471  1.00  0.00     0.001 A 
HETATM   17  C   UNL     1      46.080 -10.478   7.341  1.00  0.00     0.000 A 
HETATM   18  C   UNL     1      46.181  -9.360   8.165  1.00  0.00     0.001 A 
HETATM   19  C   UNL     1      45.192  -9.100   9.116  1.00  0.00     0.009 A 
ENDBRANCH  13  14
ENDBRANCH  10  13
ENDBRANCH   8   9
ENDBRANCH   7   8
ENDBRANCH   3   7
BRANCH   6  20
HETATM   20  C   UNL     1      41.323 -12.958   4.733  1.00  0.00     0.256 C 
BRANCH  20  21
HETATM   21  O   UNL     1      42.451 -13.480   5.436  1.00  0.00    -0.344 OA
BRANCH  21  22
HETATM   22  C   UNL     1      42.861 -14.737   5.085  1.00  0.00     0.070 A 
HETATM   23  C   UNL     1      42.545 -15.403   3.898  1.00  0.00     0.049 A 
HETATM   24  C   UNL     1      43.019 -16.705   3.655  1.00  0.00    -0.023 A 
HETATM   25  C   UNL     1      43.830 -17.343   4.620  1.00  0.00    -0.026 A 
HETATM   26  C   UNL     1      42.699 -17.392   2.471  1.00  0.00     0.012 A 
HETATM   27  C   UNL     1      44.154 -16.659   5.799  1.00  0.00     0.015 A 
HETATM   28  C   UNL     1      44.293 -18.647   4.379  1.00  0.00     0.012 A 
HETATM   29  C   UNL     1      43.675 -15.367   6.026  1.00  0.00     0.037 A 
HETATM   30  C   UNL     1      43.962 -19.315   3.200  1.00  0.00     0.001 A 
HETATM   31  C   UNL     1      43.167 -18.688   2.246  1.00  0.00     0.001 A 
ENDBRANCH  21  22
ENDBRANCH  20  21
ENDBRANCH   6  20
TORSDOF 8
ENDMDL
MODEL 7
REMARK VINA RESULT:      -9.1      1.585      2.238
REMARK  8 active torsions:
REMARK  status: ('A' for Active; 'I' for Inactive)
REMARK    1  A    between atoms: C_3  and  S_4 
REMARK    2  A    between atoms: S_4  and  C_5 
REMARK    3  A    between atoms: C_5  and  C_6 
REMARK       I    between atoms: C_6  and  N_7 
REMARK    4  A    between atoms: N_7  and  C_8 
REMARK    5  A    between atoms: C_8  and  C_9 
REMARK    6  A    between atoms: C_18  and  C_19 
REMARK    7  A    between atoms: C_19  and  O_20 
REMARK    8  A    between atoms: O_20  and  C_21 
ROOT
HETATM    1  C   UNL     1      41.016 -12.764   5.730  1.00  0.00     0.160 C 
HETATM    2  N   UNL     1      42.104 -12.343   4.885  1.00  0.00    -0.314 N 
HETATM    3  C   UNL     1      43.012 -11.349   5.117  1.00  0.00     0.191 A 
HETATM    4  N   UNL     1      43.861 -11.280   4.118  1.00  0.00    -0.123 NA
HETATM    5  N   UNL     1      43.505 -12.233   3.201  1.00  0.00    -0.132 NA
HETATM    6  C   UNL     1      42.444 -12.871   3.659  1.00  0.00     0.154 A 
ENDROOT
BRANCH   3   7
HETATM    7  S   UNL     1      43.014 -10.335   6.515  1.00  0.00    -0.081 SA
BRANCH   7   8
HETATM    8  C   UNL     1      43.956 -11.353   7.688  1.00  0.00     0.185 C 
BRANCH   8   9
HETATM    9  C   UNL     1      44.486 -10.535   8.854  1.00  0.00     0.227 C 
HETATM   10  N   UNL     1      43.558  -9.740   9.480  1.00  0.00    -0.356 N 
HETATM   11  H   UNL     1      42.598  -9.755   9.143  1.00  0.00     0.162 HD
HETATM   12  O   UNL     1      45.677 -10.550   9.161  1.00  0.00    -0.273 OA
BRANCH  10  13
HETATM   13  C   UNL     1      43.894  -8.815  10.536  1.00  0.00     0.161 C 
BRANCH  13  14
HETATM   14  C   UNL     1      42.959  -8.932  11.713  1.00  0.00    -0.041 A 
HETATM   15  C   UNL     1      41.793  -9.708  11.613  1.00  0.00     0.009 A 
HETATM   16  C   UNL     1      40.940  -9.854  12.709  1.00  0.00     0.001 A 
HETATM   17  C   UNL     1      41.242  -9.227  13.917  1.00  0.00     0.000 A 
HETATM   18  C   UNL     1      42.394  -8.451  14.029  1.00  0.00     0.001 A 
HETATM   19  C   UNL     1      43.250  -8.307  12.935  1.00  0.00     0.009 A 
ENDBRANCH  13  14
ENDBRANCH  10  13
ENDBRANCH   8   9
ENDBRANCH   7   8
ENDBRANCH   3   7
BRANCH   6  20
HETATM   20  C   UNL     1      41.747 -14.001   2.982  1.00  0.00     0.256 C 
BRANCH  20  21
HETATM   21  O   UNL     1      42.737 -14.753   2.282  1.00  0.00    -0.344 OA
BRANCH  21  22
HETATM   22  C   UNL     1      43.075 -15.967   2.817  1.00  0.00     0.070 A 
HETATM   23  C   UNL     1      42.997 -17.201   2.168  1.00  0.00     0.049 A 
HETATM   24  C   UNL     1      43.364 -18.388   2.829  1.00  0.00    -0.023 A 
HETATM   25  C   UNL     1      43.824 -18.327   4.164  1.00  0.00    -0.026 A 
HETATM   26  C   UNL     1      43.279 -19.638   2.192  1.00  0.00     0.012 A 
HETATM   27  C   UNL     1      43.914 -17.082   4.799  1.00  0.00     0.015 A 
HETATM   28  C   UNL     1      44.180 -19.514   4.825  1.00  0.00     0.012 A 
HETATM   29  C   UNL     1      43.546 -15.914   4.128  1.00  0.00     0.037 A 
HETATM   30  C   UNL     1      44.085 -20.747   4.178  1.00  0.00     0.001 A 
HETATM   31  C   UNL     1      43.636 -20.809   2.863  1.00  0.00     0.001 A 
ENDBRANCH  21  22
ENDBRANCH  20  21
ENDBRANCH   6  20
TORSDOF 8
ENDMDL
MODEL 8
REMARK VINA RESULT:      -9.0      4.964      8.516
REMARK  8 active torsions:
REMARK  status: ('A' for Active; 'I' for Inactive)
REMARK    1  A    between atoms: C_3  and  S_4 
REMARK    2  A    between atoms: S_4  and  C_5 
REMARK    3  A    between atoms: C_5  and  C_6 
REMARK       I    between atoms: C_6  and  N_7 
REMARK    4  A    between atoms: N_7  and  C_8 
REMARK    5  A    between atoms: C_8  and  C_9 
REMARK    6  A    between atoms: C_18  and  C_19 
REMARK    7  A    between atoms: C_19  and  O_20 
REMARK    8  A    between atoms: O_20  and  C_21 
ROOT
HETATM    1  C   UNL     1      42.552 -11.425   5.925  1.00  0.00     0.160 C 
HETATM    2  N   UNL     1      41.458 -12.356   6.022  1.00  0.00    -0.314 N 
HETATM    3  C   UNL     1      40.119 -12.087   5.988  1.00  0.00     0.191 A 
HETATM    4  N   UNL     1      39.437 -13.204   6.089  1.00  0.00    -0.123 NA
HETATM    5  N   UNL     1      40.336 -14.232   6.205  1.00  0.00    -0.132 NA
HETATM    6  C   UNL     1      41.553 -13.723   6.170  1.00  0.00     0.154 A 
ENDROOT
BRANCH   3   7
HETATM    7  S   UNL     1      39.445 -10.503   5.851  1.00  0.00    -0.081 SA
BRANCH   7   8
HETATM    8  C   UNL     1      38.955 -10.479   4.101  1.00  0.00     0.185 C 
BRANCH   8   9
HETATM    9  C   UNL     1      40.138 -10.707   3.176  1.00  0.00     0.227 C 
HETATM   10  N   UNL     1      40.158 -11.924   2.540  1.00  0.00    -0.356 N 
HETATM   11  H   UNL     1      39.396 -12.577   2.714  1.00  0.00     0.162 HD
HETATM   12  O   UNL     1      41.036  -9.874   3.062  1.00  0.00    -0.273 OA
BRANCH  10  13
HETATM   13  C   UNL     1      41.252 -12.363   1.707  1.00  0.00     0.161 C 
BRANCH  13  14
HETATM   14  C   UNL     1      40.773 -12.951   0.404  1.00  0.00    -0.041 A 
HETATM   15  C   UNL     1      40.182 -14.223   0.378  1.00  0.00     0.009 A 
HETATM   16  C   UNL     1      39.700 -14.760  -0.818  1.00  0.00     0.001 A 
HETATM   17  C   UNL     1      39.805 -14.032  -2.002  1.00  0.00     0.000 A 
HETATM   18  C   UNL     1      40.394 -12.769  -1.992  1.00  0.00     0.001 A 
HETATM   19  C   UNL     1      40.872 -12.229  -0.796  1.00  0.00     0.009 A 
ENDBRANCH  13  14
ENDBRANCH  10  13
ENDBRANCH   8   9
ENDBRANCH   7   8
ENDBRANCH   3   7
BRANCH   6  20
HETATM   20  C   UNL     1      42.824 -14.496   6.242  1.00  0.00     0.256 C 
BRANCH  20  21
HETATM   21  O   UNL     1      43.354 -14.567   4.918  1.00  0.00    -0.344 OA
BRANCH  21  22
HETATM   22  C   UNL     1      43.359 -15.801   4.327  1.00  0.00     0.070 A 
HETATM   23  C   UNL     1      43.730 -17.003   4.936  1.00  0.00     0.049 A 
HETATM   24  C   UNL     1      43.704 -18.213   4.219  1.00  0.00    -0.023 A 
HETATM   25  C   UNL     1      43.291 -18.212   2.867  1.00  0.00    -0.026 A 
HETATM   26  C   UNL     1      44.087 -19.427   4.815  1.00  0.00     0.012 A 
HETATM   27  C   UNL     1      42.906 -17.004   2.272  1.00  0.00     0.015 A 
HETATM   28  C   UNL     1      43.277 -19.420   2.150  1.00  0.00     0.012 A 
HETATM   29  C   UNL     1      42.937 -15.812   2.998  1.00  0.00     0.037 A 
HETATM   30  C   UNL     1      43.664 -20.615   2.758  1.00  0.00     0.001 A 
HETATM   31  C   UNL     1      44.067 -20.618   4.089  1.00  0.00     0.001 A 
ENDBRANCH  21  22
ENDBRANCH  20  21
ENDBRANCH   6  20
TORSDOF 8
ENDMDL
MODEL 9
REMARK VINA RESULT:      -9.0      1.959      2.460
REMARK  8 active torsions:
REMARK  status: ('A' for Active; 'I' for Inactive)
REMARK    1  A    between atoms: C_3  and  S_4 
REMARK    2  A    between atoms: S_4  and  C_5 
REMARK    3  A    between atoms: C_5  and  C_6 
REMARK       I    between atoms: C_6  and  N_7 
REMARK    4  A    between atoms: N_7  and  C_8 
REMARK    5  A    between atoms: C_8  and  C_9 
REMARK    6  A    between atoms: C_18  and  C_19 
REMARK    7  A    between atoms: C_19  and  O_20 
REMARK    8  A    between atoms: O_20  and  C_21 
ROOT
HETATM    1  C   UNL     1      42.000 -10.367   4.773  1.00  0.00     0.160 C 
HETATM    2  N   UNL     1      41.016 -11.166   5.456  1.00  0.00    -0.314 N 
HETATM    3  C   UNL     1      40.074 -10.753   6.354  1.00  0.00     0.191 A 
HETATM    4  N   UNL     1      39.349 -11.776   6.743  1.00  0.00    -0.123 NA
HETATM    5  N   UNL     1      39.824 -12.890   6.103  1.00  0.00    -0.132 NA
HETATM    6  C   UNL     1      40.831 -12.526   5.331  1.00  0.00     0.154 A 
ENDROOT
BRANCH   3   7
HETATM    7  S   UNL     1      39.892  -9.123   6.898  1.00  0.00    -0.081 SA
BRANCH   7   8
HETATM    8  C   UNL     1      39.884  -9.352   8.701  1.00  0.00     0.185 C 
BRANCH   8   9
HETATM    9  C   UNL     1      41.289  -9.365   9.279  1.00  0.00     0.227 C 
HETATM   10  N   UNL     1      41.376  -9.737  10.597  1.00  0.00    -0.356 N 
HETATM   11  H   UNL     1      40.521  -9.984  11.091  1.00  0.00     0.162 HD
HETATM   12  O   UNL     1      42.260  -9.007   8.614  1.00  0.00    -0.273 OA
BRANCH  10  13
HETATM   13  C   UNL     1      42.610  -9.707  11.346  1.00  0.00     0.161 C 
BRANCH  13  14
HETATM   14  C   UNL     1      42.475  -8.928  12.631  1.00  0.00    -0.041 A 
HETATM   15  C   UNL     1      41.490  -9.276  13.567  1.00  0.00     0.009 A 
HETATM   16  C   UNL     1      41.383  -8.586  14.777  1.00  0.00     0.001 A 
HETATM   17  C   UNL     1      42.258  -7.540  15.064  1.00  0.00     0.000 A 
HETATM   18  C   UNL     1      43.238  -7.182  14.141  1.00  0.00     0.001 A 
HETATM   19  C   UNL     1      43.350  -7.873  12.933  1.00  0.00     0.009 A 
ENDBRANCH  13  14
ENDBRANCH  10  13
ENDBRANCH   8   9
ENDBRANCH   7   8
ENDBRANCH   3   7
BRANCH   6  20
HETATM   20  C   UNL     1      41.619 -13.426   4.443  1.00  0.00     0.256 C 
BRANCH  20  21
HETATM   21  O   UNL     1      42.637 -14.028   5.242  1.00  0.00    -0.344 OA
BRANCH  21  22
HETATM   22  C   UNL     1      42.991 -15.309   4.918  1.00  0.00     0.070 A 
HETATM   23  C   UNL     1      42.678 -15.971   3.728  1.00  0.00     0.049 A 
HETATM   24  C   UNL     1      43.090 -17.299   3.512  1.00  0.00    -0.023 A 
HETATM   25  C   UNL     1      43.836 -17.968   4.510  1.00  0.00    -0.026 A 
HETATM   26  C   UNL     1      42.772 -17.982   2.326  1.00  0.00     0.012 A 
HETATM   27  C   UNL     1      44.157 -17.288   5.692  1.00  0.00     0.015 A 
HETATM   28  C   UNL     1      44.236 -19.297   4.297  1.00  0.00     0.012 A 
HETATM   29  C   UNL     1      43.741 -15.970   5.890  1.00  0.00     0.037 A 
HETATM   30  C   UNL     1      43.907 -19.960   3.114  1.00  0.00     0.001 A 
HETATM   31  C   UNL     1      43.177 -19.303   2.129  1.00  0.00     0.001 A 
ENDBRANCH  21  22
ENDBRANCH  20  21
ENDBRANCH   6  20
TORSDOF 8
ENDMDL
MODEL 10
REMARK VINA RESULT:      -8.9      3.422     10.581
REMARK  8 active torsions:
REMARK  status: ('A' for Active; 'I' for Inactive)
REMARK    1  A    between atoms: C_3  and  S_4 
REMARK    2  A    between atoms: S_4  and  C_5 
REMARK    3  A    between atoms: C_5  and  C_6 
REMARK       I    between atoms: C_6  and  N_7 
REMARK    4  A    between atoms: N_7  and  C_8 
REMARK    5  A    between atoms: C_8  and  C_9 
REMARK    6  A    between atoms: C_18  and  C_19 
REMARK    7  A    between atoms: C_19  and  O_20 
REMARK    8  A    between atoms: O_20  and  C_21 
ROOT
HETATM    1  C   UNL     1      40.804 -12.869   4.997  1.00  0.00     0.160 C 
HETATM    2  N   UNL     1      41.301 -12.376   3.738  1.00  0.00    -0.314 N 
HETATM    3  C   UNL     1      41.064 -12.874   2.488  1.00  0.00     0.191 A 
HETATM    4  N   UNL     1      41.679 -12.138   1.592  1.00  0.00    -0.123 NA
HETATM    5  N   UNL     1      42.347 -11.143   2.256  1.00  0.00    -0.132 NA
HETATM    6  C   UNL     1      42.124 -11.288   3.549  1.00  0.00     0.154 A 
ENDROOT
BRANCH   3   7
HETATM    7  S   UNL     1      40.108 -14.274   2.160  1.00  0.00    -0.081 SA
BRANCH   7   8
HETATM    8  C   UNL     1      41.232 -15.228   1.098  1.00  0.00     0.185 C 
BRANCH   8   9
HETATM    9  C   UNL     1      42.515 -15.604   1.821  1.00  0.00     0.227 C 
HETATM   10  N   UNL     1      42.356 -16.437   2.901  1.00  0.00    -0.356 N 
HETATM   11  H   UNL     1      41.417 -16.751   3.138  1.00  0.00     0.162 HD
HETATM   12  O   UNL     1      43.603 -15.138   1.484  1.00  0.00    -0.273 OA
BRANCH  10  13
HETATM   13  C   UNL     1      43.442 -16.817   3.772  1.00  0.00     0.161 C 
BRANCH  13  14
HETATM   14  C   UNL     1      43.654 -18.310   3.797  1.00  0.00    -0.041 A 
HETATM   15  C   UNL     1      43.982 -18.956   4.999  1.00  0.00     0.009 A 
HETATM   16  C   UNL     1      44.142 -20.343   5.040  1.00  0.00     0.001 A 
HETATM   17  C   UNL     1      43.978 -21.099   3.881  1.00  0.00     0.000 A 
HETATM   18  C   UNL     1      43.657 -20.470   2.680  1.00  0.00     0.001 A 
HETATM   19  C   UNL     1      43.492 -19.084   2.638  1.00  0.00     0.009 A 
ENDBRANCH  13  14
ENDBRANCH  10  13
ENDBRANCH   8   9
ENDBRANCH   7   8
ENDBRANCH   3   7
BRANCH   6  20
HETATM   20  C   UNL     1      42.645 -10.402   4.628  1.00  0.00     0.256 C 
BRANCH  20  21
HETATM   21  O   UNL     1      43.695 -11.108   5.288  1.00  0.00    -0.344 OA
BRANCH  21  22
HETATM   22  C   UNL     1      43.952 -10.752   6.584  1.00  0.00     0.070 A 
HETATM   23  C   UNL     1      43.023 -10.240   7.494  1.00  0.00     0.049 A 
HETATM   24  C   UNL     1      43.409  -9.898   8.803  1.00  0.00    -0.023 A 
HETATM   25  C   UNL     1      44.752 -10.082   9.202  1.00  0.00    -0.026 A 
HETATM   26  C   UNL     1      42.489  -9.370   9.724  1.00  0.00     0.012 A 
HETATM   27  C   UNL     1      45.671 -10.611   8.286  1.00  0.00     0.015 A 
HETATM   28  C   UNL     1      45.138  -9.730  10.506  1.00  0.00     0.012 A 
HETATM   29  C   UNL     1      45.271 -10.946   6.991  1.00  0.00     0.037 A 
HETATM   30  C   UNL     1      44.211  -9.203  11.406  1.00  0.00     0.001 A 
HETATM   31  C   UNL     1      42.888  -9.025  11.016  1.00  0.00     0.001 A 
ENDBRANCH  21  22
ENDBRANCH  20  21
ENDBRANCH   6  20
TORSDOF 8
ENDMDL
