MODEL 1
REMARK VINA RESULT:      -9.4      0.000      0.000
REMARK  9 active torsions:
REMARK  status: ('A' for Active; 'I' for Inactive)
REMARK    1  A    between atoms: C_4  and  O_5 
REMARK    2  A    between atoms: O_5  and  C_6 
REMARK    3  A    between atoms: C_6  and  C_7 
REMARK       I    between atoms: C_7  and  N_8 
REMARK    4  A    between atoms: N_8  and  C_9 
REMARK    5  A    between atoms: C_9  and  N_10 
REMARK    6  A    between atoms: N_10  and  C_11 
REMARK    7  A    between atoms: C_14  and  N_15 
REMARK    8  A    between atoms: N_18  and  C_20 
REMARK    9  A    between atoms: C_20  and  C_21 
ROOT
HETATM    1  C   UNL     1      40.038 -11.887   5.177  1.00  0.00     0.034 A 
HETATM    2  C   UNL     1      41.340 -12.261   5.491  1.00  0.00     0.032 A 
HETATM    3  C   UNL     1      42.175 -11.406   6.227  1.00  0.00     0.031 A 
HETATM    4  C   UNL     1      41.725 -10.171   6.701  1.00  0.00     0.030 A 
HETATM    5  C   UNL     1      40.426  -9.790   6.333  1.00  0.00     0.031 A 
HETATM    6  C   UNL     1      39.601 -10.621   5.565  1.00  0.00     0.032 A 
ENDROOT
BRANCH   1   7
HETATM    7  N   UNL     1      39.155 -12.679   4.421  1.00  0.00    -0.333 N 
HETATM    8  H   UNL     1      38.584 -13.331   4.962  1.00  0.00     0.168 HD
BRANCH   7   9
HETATM    9  C   UNL     1      39.011 -12.825   3.060  1.00  0.00     0.178 C 
HETATM   10  S   UNL     1      38.374 -11.737   1.960  1.00  0.00    -0.040 SA
BRANCH   9  11
HETATM   11  N   UNL     1      39.493 -14.016   2.548  1.00  0.00    -0.302 N 
HETATM   12  C   UNL     1      40.784 -14.337   2.144  1.00  0.00     0.248 C 
HETATM   13  O   UNL     1      41.695 -13.517   2.048  1.00  0.00    -0.271 OA
HETATM   14  H   UNL     1      38.801 -14.754   2.475  1.00  0.00     0.171 HD
BRANCH  12  15
HETATM   15  C   UNL     1      40.964 -15.822   1.850  1.00  0.00     0.278 C 
BRANCH  15  16
HETATM   16  O   UNL     1      42.328 -16.156   1.633  1.00  0.00    -0.342 OA
BRANCH  16  17
HETATM   17  C   UNL     1      42.904 -17.048   2.497  1.00  0.00     0.070 A 
HETATM   18  C   UNL     1      43.051 -18.421   2.285  1.00  0.00     0.043 A 
HETATM   19  C   UNL     1      43.678 -19.228   3.246  1.00  0.00    -0.059 A 
HETATM   20  C   UNL     1      43.817 -20.706   3.023  1.00  0.00     0.048 C 
HETATM   21  C   UNL     1      44.125 -18.651   4.440  1.00  0.00     0.013 A 
HETATM   22  C   UNL     1      43.981 -17.279   4.668  1.00  0.00    -0.059 A 
HETATM   23  C   UNL     1      43.359 -16.488   3.694  1.00  0.00     0.043 A 
HETATM   24  C   UNL     1      44.451 -16.679   5.961  1.00  0.00     0.048 C 
ENDBRANCH  16  17
ENDBRANCH  15  16
ENDBRANCH  12  15
ENDBRANCH   9  11
ENDBRANCH   7   9
ENDBRANCH   1   7
BRANCH   4  25
HETATM   25  N   UNL     1      42.496  -9.312   7.488  1.00  0.00    -0.378 N 
HETATM   26  C   UNL     1      43.809  -9.745   7.995  1.00  0.00     0.150 C 
HETATM   27  C   UNL     1      43.716 -10.403   9.388  1.00  0.00     0.255 C 
HETATM   28  N   UNL     1      42.926  -9.529  10.360  1.00  0.00    -0.064 N 
HETATM   29  H   UNL     1      43.449  -8.650  10.475  1.00  0.00     0.280 HD
HETATM   30  C   UNL     1      41.560  -9.154   9.784  1.00  0.00     0.255 C 
HETATM   31  C   UNL     1      41.729  -8.456   8.418  1.00  0.00     0.150 C 
BRANCH  28  32
HETATM   32  C   UNL     1      42.804 -10.143  11.735  1.00  0.00     0.275 C 
BRANCH  32  33
HETATM   33  C   UNL     1      42.488  -9.146  12.817  1.00  0.00    -0.011 A 
HETATM   34  C   UNL     1      41.302  -9.212  13.568  1.00  0.00     0.042 A 
HETATM   35 CL   UNL     1      40.122 -10.439  13.266  1.00  0.00    -0.084 Cl
HETATM   36  C   UNL     1      41.027  -8.268  14.560  1.00  0.00     0.024 A 
HETATM   37  C   UNL     1      41.937  -7.244  14.816  1.00  0.00     0.002 A 
HETATM   38  C   UNL     1      43.118  -7.164  14.083  1.00  0.00     0.001 A 
HETATM   39  C   UNL     1      43.396  -8.108  13.092  1.00  0.00     0.010 A 
ENDBRANCH  32  33
ENDBRANCH  28  32
ENDBRANCH   4  25
TORSDOF 9
ENDMDL
MODEL 2
REMARK VINA RESULT:      -9.3      0.277      1.651
REMARK  9 active torsions:
REMARK  status: ('A' for Active; 'I' for Inactive)
REMARK    1  A    between atoms: C_4  and  O_5 
REMARK    2  A    between atoms: O_5  and  C_6 
REMARK    3  A    between atoms: C_6  and  C_7 
REMARK       I    between atoms: C_7  and  N_8 
REMARK    4  A    between atoms: N_8  and  C_9 
REMARK    5  A    between atoms: C_9  and  N_10 
REMARK    6  A    between atoms: N_10  and  C_11 
REMARK    7  A    between atoms: C_14  and  N_15 
REMARK    8  A    between atoms: N_18  and  C_20 
REMARK    9  A    between atoms: C_20  and  C_21 
ROOT
HETATM    1  C   UNL     1      39.865 -11.833   5.187  1.00  0.00     0.034 A 
HETATM    2  C   UNL     1      39.281 -10.806   5.921  1.00  0.00     0.032 A 
HETATM    3  C   UNL     1      40.064  -9.962   6.724  1.00  0.00     0.031 A 
HETATM    4  C   UNL     1      41.453 -10.094   6.790  1.00  0.00     0.030 A 
HETATM    5  C   UNL     1      42.019 -11.166   6.082  1.00  0.00     0.031 A 
HETATM    6  C   UNL     1      41.239 -12.036   5.310  1.00  0.00     0.032 A 
ENDROOT
BRANCH   1   7
HETATM    7  N   UNL     1      39.141 -12.732   4.383  1.00  0.00    -0.333 N 
HETATM    8  H   UNL     1      38.707 -13.511   4.883  1.00  0.00     0.168 HD
BRANCH   7   9
HETATM    9  C   UNL     1      39.017 -12.823   3.015  1.00  0.00     0.178 C 
HETATM   10  S   UNL     1      38.366 -11.705   1.954  1.00  0.00    -0.040 SA
BRANCH   9  11
HETATM   11  N   UNL     1      39.536 -13.978   2.459  1.00  0.00    -0.302 N 
HETATM   12  C   UNL     1      40.741 -14.165   1.792  1.00  0.00     0.248 C 
HETATM   13  O   UNL     1      41.490 -13.247   1.461  1.00  0.00    -0.271 OA
HETATM   14  H   UNL     1      38.951 -14.800   2.573  1.00  0.00     0.171 HD
BRANCH  12  15
HETATM   15  C   UNL     1      41.054 -15.633   1.528  1.00  0.00     0.278 C 
BRANCH  15  16
HETATM   16  O   UNL     1      42.454 -15.877   1.497  1.00  0.00    -0.342 OA
BRANCH  16  17
HETATM   17  C   UNL     1      42.977 -16.670   2.482  1.00  0.00     0.070 A 
HETATM   18  C   UNL     1      43.403 -16.244   3.743  1.00  0.00     0.043 A 
HETATM   19  C   UNL     1      43.908 -17.163   4.674  1.00  0.00    -0.059 A 
HETATM   20  C   UNL     1      44.383 -16.698   6.020  1.00  0.00     0.048 C 
HETATM   21  C   UNL     1      44.015 -18.512   4.317  1.00  0.00     0.013 A 
HETATM   22  C   UNL     1      43.596 -18.953   3.057  1.00  0.00    -0.059 A 
HETATM   23  C   UNL     1      43.088 -18.022   2.144  1.00  0.00     0.043 A 
HETATM   24  C   UNL     1      43.733 -20.401   2.686  1.00  0.00     0.048 C 
ENDBRANCH  16  17
ENDBRANCH  15  16
ENDBRANCH  12  15
ENDBRANCH   9  11
ENDBRANCH   7   9
ENDBRANCH   1   7
BRANCH   4  25
HETATM   25  N   UNL     1      42.282  -9.244   7.525  1.00  0.00    -0.378 N 
HETATM   26  C   UNL     1      43.624  -9.690   7.940  1.00  0.00     0.150 C 
HETATM   27  C   UNL     1      43.620 -10.353   9.333  1.00  0.00     0.255 C 
HETATM   28  N   UNL     1      42.906  -9.478  10.361  1.00  0.00    -0.064 N 
HETATM   29  H   UNL     1      43.442  -8.603  10.443  1.00  0.00     0.280 HD
HETATM   30  C   UNL     1      41.507  -9.089   9.880  1.00  0.00     0.255 C 
HETATM   31  C   UNL     1      41.588  -8.387   8.509  1.00  0.00     0.150 C 
BRANCH  28  32
HETATM   32  C   UNL     1      42.873 -10.097  11.738  1.00  0.00     0.275 C 
BRANCH  32  33
HETATM   33  C   UNL     1      42.530  -9.121  12.832  1.00  0.00    -0.011 A 
HETATM   34  C   UNL     1      41.344  -9.226  13.578  1.00  0.00     0.042 A 
HETATM   35 CL   UNL     1      40.195 -10.477  13.257  1.00  0.00    -0.084 Cl
HETATM   36  C   UNL     1      41.044  -8.302  14.581  1.00  0.00     0.024 A 
HETATM   37  C   UNL     1      41.928  -7.260  14.853  1.00  0.00     0.002 A 
HETATM   38  C   UNL     1      43.109  -7.141  14.125  1.00  0.00     0.001 A 
HETATM   39  C   UNL     1      43.412  -8.065  13.123  1.00  0.00     0.010 A 
ENDBRANCH  32  33
ENDBRANCH  28  32
ENDBRANCH   4  25
TORSDOF 9
ENDMDL
MODEL 3
REMARK VINA RESULT:      -9.0      1.742      2.639
REMARK  9 active torsions:
REMARK  status: ('A' for Active; 'I' for Inactive)
REMARK    1  A    between atoms: C_4  and  O_5 
REMARK    2  A    between atoms: O_5  and  C_6 
REMARK    3  A    between atoms: C_6  and  C_7 
REMARK       I    between atoms: C_7  and  N_8 
REMARK    4  A    between atoms: N_8  and  C_9 
REMARK    5  A    between atoms: C_9  and  N_10 
REMARK    6  A    between atoms: N_10  and  C_11 
REMARK    7  A    between atoms: C_14  and  N_15 
REMARK    8  A    between atoms: N_18  and  C_20 
REMARK    9  A    between atoms: C_20  and  C_21 
ROOT
HETATM    1  C   UNL     1      43.770 -11.521   5.150  1.00  0.00     0.034 A 
HETATM    2  C   UNL     1      42.786 -10.759   5.772  1.00  0.00     0.032 A 
HETATM    3  C   UNL     1      43.085  -9.982   6.901  1.00  0.00     0.031 A 
HETATM    4  C   UNL     1      44.381  -9.912   7.421  1.00  0.00     0.030 A 
HETATM    5  C   UNL     1      45.349 -10.725   6.811  1.00  0.00     0.031 A 
HETATM    6  C   UNL     1      45.047 -11.533   5.708  1.00  0.00     0.032 A 
ENDROOT
BRANCH   1   7
HETATM    7  N   UNL     1      43.537 -12.343   4.033  1.00  0.00    -0.333 N 
HETATM    8  H   UNL     1      44.284 -13.005   3.816  1.00  0.00     0.168 HD
BRANCH   7   9
HETATM    9  C   UNL     1      42.529 -12.329   3.095  1.00  0.00     0.178 C 
HETATM   10  S   UNL     1      41.982 -11.041   2.177  1.00  0.00    -0.040 SA
BRANCH   9  11
HETATM   11  N   UNL     1      41.925 -13.552   2.871  1.00  0.00    -0.302 N 
HETATM   12  C   UNL     1      41.027 -14.246   3.673  1.00  0.00     0.248 C 
HETATM   13  O   UNL     1      40.738 -13.915   4.822  1.00  0.00    -0.271 OA
HETATM   14  H   UNL     1      42.169 -13.987   1.987  1.00  0.00     0.171 HD
BRANCH  12  15
HETATM   15  C   UNL     1      40.414 -15.454   2.974  1.00  0.00     0.278 C 
BRANCH  15  16
HETATM   16  O   UNL     1      41.369 -16.147   2.182  1.00  0.00    -0.342 OA
BRANCH  16  17
HETATM   17  C   UNL     1      42.211 -17.014   2.825  1.00  0.00     0.070 A 
HETATM   18  C   UNL     1      42.737 -16.851   4.109  1.00  0.00     0.043 A 
HETATM   19  C   UNL     1      43.579 -17.826   4.664  1.00  0.00    -0.059 A 
HETATM   20  C   UNL     1      44.158 -17.638   6.037  1.00  0.00     0.048 C 
HETATM   21  C   UNL     1      43.919 -18.951   3.905  1.00  0.00     0.013 A 
HETATM   22  C   UNL     1      43.403 -19.126   2.617  1.00  0.00    -0.059 A 
HETATM   23  C   UNL     1      42.558 -18.146   2.082  1.00  0.00     0.043 A 
HETATM   24  C   UNL     1      43.791 -20.332   1.811  1.00  0.00     0.048 C 
ENDBRANCH  16  17
ENDBRANCH  15  16
ENDBRANCH  12  15
ENDBRANCH   9  11
ENDBRANCH   7   9
ENDBRANCH   1   7
BRANCH   4  25
HETATM   25  N   UNL     1      44.743  -9.108   8.504  1.00  0.00    -0.378 N 
HETATM   26  C   UNL     1      45.597  -9.647   9.576  1.00  0.00     0.150 C 
HETATM   27  C   UNL     1      44.777 -10.262  10.730  1.00  0.00     0.255 C 
HETATM   28  N   UNL     1      43.696  -9.298  11.214  1.00  0.00    -0.064 N 
HETATM   29  H   UNL     1      44.172  -8.468  11.591  1.00  0.00     0.280 HD
HETATM   30  C   UNL     1      42.825  -8.814  10.054  1.00  0.00     0.255 C 
HETATM   31  C   UNL     1      43.701  -8.166   8.962  1.00  0.00     0.150 C 
BRANCH  28  32
HETATM   32  C   UNL     1      42.863  -9.867  12.339  1.00  0.00     0.275 C 
BRANCH  32  33
HETATM   33  C   UNL     1      42.407  -8.835  13.336  1.00  0.00    -0.011 A 
HETATM   34  C   UNL     1      41.143  -8.899  13.947  1.00  0.00     0.042 A 
HETATM   35 CL   UNL     1      40.028 -10.163  13.562  1.00  0.00    -0.084 Cl
HETATM   36  C   UNL     1      40.739  -7.923  14.861  1.00  0.00     0.024 A 
HETATM   37  C   UNL     1      41.594  -6.870  15.178  1.00  0.00     0.002 A 
HETATM   38  C   UNL     1      42.851  -6.792  14.583  1.00  0.00     0.001 A 
HETATM   39  C   UNL     1      43.258  -7.767  13.670  1.00  0.00     0.010 A 
ENDBRANCH  32  33
ENDBRANCH  28  32
ENDBRANCH   4  25
TORSDOF 9
ENDMDL
MODEL 4
REMARK VINA RESULT:      -8.9      4.405      9.828
REMARK  9 active torsions:
REMARK  status: ('A' for Active; 'I' for Inactive)
REMARK    1  A    between atoms: C_4  and  O_5 
REMARK    2  A    between atoms: O_5  and  C_6 
REMARK    3  A    between atoms: C_6  and  C_7 
REMARK       I    between atoms: C_7  and  N_8 
REMARK    4  A    between atoms: N_8  and  C_9 
REMARK    5  A    between atoms: C_9  and  N_10 
REMARK    6  A    between atoms: N_10  and  C_11 
REMARK    7  A    between atoms: C_14  and  N_15 
REMARK    8  A    between atoms: N_18  and  C_20 
REMARK    9  A    between atoms: C_20  and  C_21 
ROOT
HETATM    1  C   UNL     1      40.671  -8.688   6.570  1.00  0.00     0.034 A 
HETATM    2  C   UNL     1      40.951  -8.845   5.216  1.00  0.00     0.032 A 
HETATM    3  C   UNL     1      41.924  -9.760   4.786  1.00  0.00     0.031 A 
HETATM    4  C   UNL     1      42.619 -10.570   5.688  1.00  0.00     0.030 A 
HETATM    5  C   UNL     1      42.358 -10.364   7.052  1.00  0.00     0.031 A 
HETATM    6  C   UNL     1      41.417  -9.424   7.489  1.00  0.00     0.032 A 
ENDROOT
BRANCH   1   7
HETATM    7  N   UNL     1      39.729  -7.773   7.075  1.00  0.00    -0.333 N 
HETATM    8  H   UNL     1      38.792  -8.151   7.224  1.00  0.00     0.168 HD
BRANCH   7   9
HETATM    9  C   UNL     1      39.813  -6.415   7.287  1.00  0.00     0.178 C 
HETATM   10  S   UNL     1      38.946  -5.192   6.544  1.00  0.00    -0.040 SA
BRANCH   9  11
HETATM   11  N   UNL     1      40.709  -6.034   8.268  1.00  0.00    -0.302 N 
HETATM   12  C   UNL     1      40.812  -6.478   9.581  1.00  0.00     0.248 C 
HETATM   13  O   UNL     1      39.984  -7.209  10.123  1.00  0.00    -0.271 OA
HETATM   14  H   UNL     1      41.391  -5.343   7.971  1.00  0.00     0.171 HD
BRANCH  12  15
HETATM   15  C   UNL     1      42.073  -5.984  10.280  1.00  0.00     0.278 C 
BRANCH  15  16
HETATM   16  O   UNL     1      43.247  -6.326   9.557  1.00  0.00    -0.342 OA
BRANCH  16  17
HETATM   17  C   UNL     1      43.740  -7.593   9.718  1.00  0.00     0.070 A 
HETATM   18  C   UNL     1      43.366  -8.502  10.711  1.00  0.00     0.043 A 
HETATM   19  C   UNL     1      43.937  -9.782  10.759  1.00  0.00    -0.059 A 
HETATM   20  C   UNL     1      43.546 -10.748  11.839  1.00  0.00     0.048 C 
HETATM   21  C   UNL     1      44.914 -10.132   9.820  1.00  0.00     0.013 A 
HETATM   22  C   UNL     1      45.302  -9.232   8.822  1.00  0.00    -0.059 A 
HETATM   23  C   UNL     1      44.716  -7.960   8.787  1.00  0.00     0.043 A 
HETATM   24  C   UNL     1      46.363  -9.618   7.834  1.00  0.00     0.048 C 
ENDBRANCH  16  17
ENDBRANCH  15  16
ENDBRANCH  12  15
ENDBRANCH   9  11
ENDBRANCH   7   9
ENDBRANCH   1   7
BRANCH   4  25
HETATM   25  N   UNL     1      43.552 -11.538   5.307  1.00  0.00    -0.378 N 
HETATM   26  C   UNL     1      43.489 -12.143   3.966  1.00  0.00     0.150 C 
HETATM   27  C   UNL     1      42.636 -13.430   3.940  1.00  0.00     0.255 C 
HETATM   28  N   UNL     1      43.059 -14.396   5.045  1.00  0.00    -0.064 N 
HETATM   29  H   UNL     1      44.031 -14.673   4.853  1.00  0.00     0.280 HD
HETATM   30  C   UNL     1      43.061 -13.708   6.411  1.00  0.00     0.255 C 
HETATM   31  C   UNL     1      43.971 -12.462   6.381  1.00  0.00     0.150 C 
BRANCH  28  32
HETATM   32  C   UNL     1      42.241 -15.665   5.059  1.00  0.00     0.275 C 
BRANCH  32  33
HETATM   33  C   UNL     1      42.873 -16.801   4.299  1.00  0.00    -0.011 A 
HETATM   34  C   UNL     1      42.463 -17.147   3.000  1.00  0.00     0.042 A 
HETATM   35 CL   UNL     1      41.183 -16.294   2.211  1.00  0.00    -0.084 Cl
HETATM   36  C   UNL     1      43.059 -18.212   2.320  1.00  0.00     0.024 A 
HETATM   37  C   UNL     1      44.074 -18.945   2.930  1.00  0.00     0.002 A 
HETATM   38  C   UNL     1      44.493 -18.616   4.216  1.00  0.00     0.001 A 
HETATM   39  C   UNL     1      43.901 -17.551   4.897  1.00  0.00     0.010 A 
ENDBRANCH  32  33
ENDBRANCH  28  32
ENDBRANCH   4  25
TORSDOF 9
ENDMDL
MODEL 5
REMARK VINA RESULT:      -8.8      4.336      9.902
REMARK  9 active torsions:
REMARK  status: ('A' for Active; 'I' for Inactive)
REMARK    1  A    between atoms: C_4  and  O_5 
REMARK    2  A    between atoms: O_5  and  C_6 
REMARK    3  A    between atoms: C_6  and  C_7 
REMARK       I    between atoms: C_7  and  N_8 
REMARK    4  A    between atoms: N_8  and  C_9 
REMARK    5  A    between atoms: C_9  and  N_10 
REMARK    6  A    between atoms: N_10  and  C_11 
REMARK    7  A    between atoms: C_14  and  N_15 
REMARK    8  A    between atoms: N_18  and  C_20 
REMARK    9  A    between atoms: C_20  and  C_21 
ROOT
HETATM    1  C   UNL     1      40.915  -8.590   6.436  1.00  0.00     0.034 A 
HETATM    2  C   UNL     1      41.557  -9.376   7.387  1.00  0.00     0.032 A 
HETATM    3  C   UNL     1      42.429 -10.404   7.000  1.00  0.00     0.031 A 
HETATM    4  C   UNL     1      42.715 -10.656   5.655  1.00  0.00     0.030 A 
HETATM    5  C   UNL     1      42.021  -9.887   4.708  1.00  0.00     0.031 A 
HETATM    6  C   UNL     1      41.119  -8.885   5.088  1.00  0.00     0.032 A 
ENDROOT
BRANCH   1   7
HETATM    7  N   UNL     1      40.009  -7.561   6.750  1.00  0.00    -0.333 N 
HETATM    8  H   UNL     1      39.024  -7.790   6.605  1.00  0.00     0.168 HD
BRANCH   7   9
HETATM    9  C   UNL     1      40.220  -6.247   7.100  1.00  0.00     0.178 C 
HETATM   10  S   UNL     1      39.852  -4.867   6.228  1.00  0.00    -0.040 SA
BRANCH   9  11
HETATM   11  N   UNL     1      40.779  -6.061   8.351  1.00  0.00    -0.302 N 
HETATM   12  C   UNL     1      40.499  -6.720   9.542  1.00  0.00     0.248 C 
HETATM   13  O   UNL     1      39.564  -7.506   9.686  1.00  0.00    -0.271 OA
HETATM   14  H   UNL     1      41.503  -5.350   8.388  1.00  0.00     0.171 HD
BRANCH  12  15
HETATM   15  C   UNL     1      41.486  -6.386  10.654  1.00  0.00     0.278 C 
BRANCH  15  16
HETATM   16  O   UNL     1      42.818  -6.294  10.168  1.00  0.00    -0.342 OA
BRANCH  16  17
HETATM   17  C   UNL     1      43.515  -7.462  10.013  1.00  0.00     0.070 A 
HETATM   18  C   UNL     1      44.474  -7.725   9.032  1.00  0.00     0.043 A 
HETATM   19  C   UNL     1      45.132  -8.963   8.991  1.00  0.00    -0.059 A 
HETATM   20  C   UNL     1      46.148  -9.248   7.923  1.00  0.00     0.048 C 
HETATM   21  C   UNL     1      44.795  -9.950   9.924  1.00  0.00     0.013 A 
HETATM   22  C   UNL     1      43.834  -9.703  10.910  1.00  0.00    -0.059 A 
HETATM   23  C   UNL     1      43.192  -8.459  10.939  1.00  0.00     0.043 A 
HETATM   24  C   UNL     1      43.473 -10.779  11.892  1.00  0.00     0.048 C 
ENDBRANCH  16  17
ENDBRANCH  15  16
ENDBRANCH  12  15
ENDBRANCH   9  11
ENDBRANCH   7   9
ENDBRANCH   1   7
BRANCH   4  25
HETATM   25  N   UNL     1      43.620 -11.627   5.220  1.00  0.00    -0.378 N 
HETATM   26  C   UNL     1      43.489 -12.216   3.876  1.00  0.00     0.150 C 
HETATM   27  C   UNL     1      42.624 -13.494   3.875  1.00  0.00     0.255 C 
HETATM   28  N   UNL     1      43.088 -14.477   4.947  1.00  0.00    -0.064 N 
HETATM   29  H   UNL     1      44.048 -14.761   4.707  1.00  0.00     0.280 HD
HETATM   30  C   UNL     1      43.161 -13.806   6.320  1.00  0.00     0.255 C 
HETATM   31  C   UNL     1      44.080 -12.568   6.262  1.00  0.00     0.150 C 
BRANCH  28  32
HETATM   32  C   UNL     1      42.260 -15.740   4.984  1.00  0.00     0.275 C 
BRANCH  32  33
HETATM   33  C   UNL     1      42.877 -16.891   4.235  1.00  0.00    -0.011 A 
HETATM   34  C   UNL     1      42.452 -17.253   2.946  1.00  0.00     0.042 A 
HETATM   35 CL   UNL     1      41.170 -16.403   2.157  1.00  0.00    -0.084 Cl
HETATM   36  C   UNL     1      43.033 -18.332   2.276  1.00  0.00     0.024 A 
HETATM   37  C   UNL     1      44.050 -19.063   2.888  1.00  0.00     0.002 A 
HETATM   38  C   UNL     1      44.484 -18.718   4.165  1.00  0.00     0.001 A 
HETATM   39  C   UNL     1      43.906 -17.638   4.835  1.00  0.00     0.010 A 
ENDBRANCH  32  33
ENDBRANCH  28  32
ENDBRANCH   4  25
TORSDOF 9
ENDMDL
MODEL 6
REMARK VINA RESULT:      -8.8      5.432      9.381
REMARK  9 active torsions:
REMARK  status: ('A' for Active; 'I' for Inactive)
REMARK    1  A    between atoms: C_4  and  O_5 
REMARK    2  A    between atoms: O_5  and  C_6 
REMARK    3  A    between atoms: C_6  and  C_7 
REMARK       I    between atoms: C_7  and  N_8 
REMARK    4  A    between atoms: N_8  and  C_9 
REMARK    5  A    between atoms: C_9  and  N_10 
REMARK    6  A    between atoms: N_10  and  C_11 
REMARK    7  A    between atoms: C_14  and  N_15 
REMARK    8  A    between atoms: N_18  and  C_20 
REMARK    9  A    between atoms: C_20  and  C_21 
ROOT
HETATM    1  C   UNL     1      41.429 -12.995   5.059  1.00  0.00     0.034 A 
HETATM    2  C   UNL     1      40.146 -13.425   4.739  1.00  0.00     0.032 A 
HETATM    3  C   UNL     1      39.615 -13.210   3.458  1.00  0.00     0.031 A 
HETATM    4  C   UNL     1      40.360 -12.593   2.450  1.00  0.00     0.030 A 
HETATM    5  C   UNL     1      41.634 -12.122   2.805  1.00  0.00     0.031 A 
HETATM    6  C   UNL     1      42.154 -12.299   4.093  1.00  0.00     0.032 A 
ENDROOT
BRANCH   1   7
HETATM    7  N   UNL     1      42.016 -13.153   6.328  1.00  0.00    -0.333 N 
HETATM    8  H   UNL     1      41.372 -13.072   7.118  1.00  0.00     0.168 HD
BRANCH   7   9
HETATM    9  C   UNL     1      43.334 -13.273   6.706  1.00  0.00     0.178 C 
HETATM   10  S   UNL     1      44.388 -12.069   7.195  1.00  0.00    -0.040 SA
BRANCH   9  11
HETATM   11  N   UNL     1      43.823 -14.566   6.708  1.00  0.00    -0.302 N 
HETATM   12  C   UNL     1      43.215 -15.733   7.155  1.00  0.00     0.248 C 
HETATM   13  O   UNL     1      42.153 -15.756   7.776  1.00  0.00    -0.271 OA
HETATM   14  H   UNL     1      44.753 -14.666   6.311  1.00  0.00     0.171 HD
BRANCH  12  15
HETATM   15  C   UNL     1      43.988 -16.991   6.779  1.00  0.00     0.278 C 
BRANCH  15  16
HETATM   16  O   UNL     1      44.681 -16.837   5.548  1.00  0.00    -0.342 OA
BRANCH  16  17
HETATM   17  C   UNL     1      44.089 -17.346   4.423  1.00  0.00     0.070 A 
HETATM   18  C   UNL     1      44.233 -18.647   3.935  1.00  0.00     0.043 A 
HETATM   19  C   UNL     1      43.555 -19.053   2.775  1.00  0.00    -0.059 A 
HETATM   20  C   UNL     1      43.728 -20.445   2.243  1.00  0.00     0.048 C 
HETATM   21  C   UNL     1      42.758 -18.130   2.088  1.00  0.00     0.013 A 
HETATM   22  C   UNL     1      42.607 -16.823   2.564  1.00  0.00    -0.059 A 
HETATM   23  C   UNL     1      43.286 -16.439   3.727  1.00  0.00     0.043 A 
HETATM   24  C   UNL     1      41.761 -15.842   1.806  1.00  0.00     0.048 C 
ENDBRANCH  16  17
ENDBRANCH  15  16
ENDBRANCH  12  15
ENDBRANCH   9  11
ENDBRANCH   7   9
ENDBRANCH   1   7
BRANCH   4  25
HETATM   25  N   UNL     1      39.900 -12.408   1.143  1.00  0.00    -0.378 N 
HETATM   26  C   UNL     1      40.855 -12.330   0.024  1.00  0.00     0.150 C 
HETATM   27  C   UNL     1      41.293 -10.881  -0.276  1.00  0.00     0.255 C 
HETATM   28  N   UNL     1      40.086  -9.956  -0.416  1.00  0.00    -0.064 N 
HETATM   29  H   UNL     1      39.543 -10.282  -1.227  1.00  0.00     0.280 HD
HETATM   30  C   UNL     1      39.163 -10.061   0.799  1.00  0.00     0.255 C 
HETATM   31  C   UNL     1      38.723 -11.525   1.011  1.00  0.00     0.150 C 
BRANCH  28  32
HETATM   32  C   UNL     1      40.474  -8.524  -0.702  1.00  0.00     0.275 C 
BRANCH  32  33
HETATM   33  C   UNL     1      40.820  -8.267  -2.145  1.00  0.00    -0.011 A 
HETATM   34  C   UNL     1      42.058  -7.725  -2.528  1.00  0.00     0.042 A 
HETATM   35 CL   UNL     1      43.248  -7.297  -1.349  1.00  0.00    -0.084 Cl
HETATM   36  C   UNL     1      42.352  -7.486  -3.872  1.00  0.00     0.024 A 
HETATM   37  C   UNL     1      41.409  -7.788  -4.853  1.00  0.00     0.002 A 
HETATM   38  C   UNL     1      40.177  -8.328  -4.492  1.00  0.00     0.001 A 
HETATM   39  C   UNL     1      39.883  -8.569  -3.149  1.00  0.00     0.010 A 
ENDBRANCH  32  33
ENDBRANCH  28  32
ENDBRANCH   4  25
TORSDOF 9
ENDMDL
MODEL 7
REMARK VINA RESULT:      -8.7      1.478      1.894
REMARK  9 active torsions:
REMARK  status: ('A' for Active; 'I' for Inactive)
REMARK    1  A    between atoms: C_4  and  O_5 
REMARK    2  A    between atoms: O_5  and  C_6 
REMARK    3  A    between atoms: C_6  and  C_7 
REMARK       I    between atoms: C_7  and  N_8 
REMARK    4  A    between atoms: N_8  and  C_9 
REMARK    5  A    between atoms: C_9  and  N_10 
REMARK    6  A    between atoms: N_10  and  C_11 
REMARK    7  A    between atoms: C_14  and  N_15 
REMARK    8  A    between atoms: N_18  and  C_20 
REMARK    9  A    between atoms: C_20  and  C_21 
ROOT
HETATM    1  C   UNL     1      42.900 -11.261   5.131  1.00  0.00     0.034 A 
HETATM    2  C   UNL     1      44.149 -11.735   5.516  1.00  0.00     0.032 A 
HETATM    3  C   UNL     1      44.739 -11.312   6.717  1.00  0.00     0.031 A 
HETATM    4  C   UNL     1      44.087 -10.433   7.585  1.00  0.00     0.030 A 
HETATM    5  C   UNL     1      42.849  -9.927   7.157  1.00  0.00     0.031 A 
HETATM    6  C   UNL     1      42.273 -10.315   5.941  1.00  0.00     0.032 A 
ENDROOT
BRANCH   1   7
HETATM    7  N   UNL     1      42.260 -11.620   3.930  1.00  0.00    -0.333 N 
HETATM    8  H   UNL     1      42.671 -11.224   3.083  1.00  0.00     0.168 HD
BRANCH   7   9
HETATM    9  C   UNL     1      41.093 -12.313   3.701  1.00  0.00     0.178 C 
HETATM   10  S   UNL     1      39.531 -11.886   4.121  1.00  0.00    -0.040 SA
BRANCH   9  11
HETATM   11  N   UNL     1      41.247 -13.496   3.002  1.00  0.00    -0.302 N 
HETATM   12  C   UNL     1      41.323 -13.700   1.630  1.00  0.00     0.248 C 
HETATM   13  O   UNL     1      41.110 -12.821   0.795  1.00  0.00    -0.271 OA
HETATM   14  H   UNL     1      41.329 -14.323   3.586  1.00  0.00     0.171 HD
BRANCH  12  15
HETATM   15  C   UNL     1      41.721 -15.124   1.259  1.00  0.00     0.278 C 
BRANCH  15  16
HETATM   16  O   UNL     1      41.280 -16.064   2.228  1.00  0.00    -0.342 OA
BRANCH  16  17
HETATM   17  C   UNL     1      42.208 -16.940   2.725  1.00  0.00     0.070 A 
HETATM   18  C   UNL     1      42.554 -18.175   2.171  1.00  0.00     0.043 A 
HETATM   19  C   UNL     1      43.538 -18.975   2.769  1.00  0.00    -0.059 A 
HETATM   20  C   UNL     1      43.893 -20.310   2.182  1.00  0.00     0.048 C 
HETATM   21  C   UNL     1      44.149 -18.541   3.952  1.00  0.00     0.013 A 
HETATM   22  C   UNL     1      43.810 -17.309   4.521  1.00  0.00    -0.059 A 
HETATM   23  C   UNL     1      42.830 -16.521   3.904  1.00  0.00     0.043 A 
HETATM   24  C   UNL     1      44.463 -16.867   5.797  1.00  0.00     0.048 C 
ENDBRANCH  16  17
ENDBRANCH  15  16
ENDBRANCH  12  15
ENDBRANCH   9  11
ENDBRANCH   7   9
ENDBRANCH   1   7
BRANCH   4  25
HETATM   25  N   UNL     1      44.603 -10.028   8.818  1.00  0.00    -0.378 N 
HETATM   26  C   UNL     1      44.098 -10.623  10.067  1.00  0.00     0.150 C 
HETATM   27  C   UNL     1      42.923  -9.822  10.668  1.00  0.00     0.255 C 
HETATM   28  N   UNL     1      43.263  -8.338  10.774  1.00  0.00    -0.064 N 
HETATM   29  H   UNL     1      44.054  -8.251  11.427  1.00  0.00     0.280 HD
HETATM   30  C   UNL     1      43.741  -7.781   9.432  1.00  0.00     0.255 C 
HETATM   31  C   UNL     1      44.946  -8.594   8.914  1.00  0.00     0.150 C 
BRANCH  28  32
HETATM   32  C   UNL     1      42.134  -7.516  11.351  1.00  0.00     0.275 C 
BRANCH  32  33
HETATM   33  C   UNL     1      42.012  -7.622  12.848  1.00  0.00    -0.011 A 
HETATM   34  C   UNL     1      40.995  -8.375  13.460  1.00  0.00     0.042 A 
HETATM   35 CL   UNL     1      39.808  -9.206  12.517  1.00  0.00    -0.084 Cl
HETATM   36  C   UNL     1      40.897  -8.449  14.851  1.00  0.00     0.024 A 
HETATM   37  C   UNL     1      41.815  -7.771  15.650  1.00  0.00     0.002 A 
HETATM   38  C   UNL     1      42.830  -7.021  15.060  1.00  0.00     0.001 A 
HETATM   39  C   UNL     1      42.931  -6.947  13.669  1.00  0.00     0.010 A 
ENDBRANCH  32  33
ENDBRANCH  28  32
ENDBRANCH   4  25
TORSDOF 9
ENDMDL
MODEL 8
REMARK VINA RESULT:      -8.7      3.687     10.990
REMARK  9 active torsions:
REMARK  status: ('A' for Active; 'I' for Inactive)
REMARK    1  A    between atoms: C_4  and  O_5 
REMARK    2  A    between atoms: O_5  and  C_6 
REMARK    3  A    between atoms: C_6  and  C_7 
REMARK       I    between atoms: C_7  and  N_8 
REMARK    4  A    between atoms: N_8  and  C_9 
REMARK    5  A    between atoms: C_9  and  N_10 
REMARK    6  A    between atoms: N_10  and  C_11 
REMARK    7  A    between atoms: C_14  and  N_15 
REMARK    8  A    between atoms: N_18  and  C_20 
REMARK    9  A    between atoms: C_20  and  C_21 
ROOT
HETATM    1  C   UNL     1      41.896 -10.065   6.336  1.00  0.00     0.034 A 
HETATM    2  C   UNL     1      42.870 -11.054   6.251  1.00  0.00     0.032 A 
HETATM    3  C   UNL     1      42.518 -12.389   5.999  1.00  0.00     0.031 A 
HETATM    4  C   UNL     1      41.190 -12.770   5.790  1.00  0.00     0.030 A 
HETATM    5  C   UNL     1      40.217 -11.768   5.929  1.00  0.00     0.031 A 
HETATM    6  C   UNL     1      40.559 -10.441   6.219  1.00  0.00     0.032 A 
ENDROOT
BRANCH   1   7
HETATM    7  N   UNL     1      42.173  -8.713   6.611  1.00  0.00    -0.333 N 
HETATM    8  H   UNL     1      42.562  -8.181   5.830  1.00  0.00     0.168 HD
BRANCH   7   9
HETATM    9  C   UNL     1      42.131  -8.005   7.790  1.00  0.00     0.178 C 
HETATM   10  S   UNL     1      41.550  -6.458   8.053  1.00  0.00    -0.040 SA
BRANCH   9  11
HETATM   11  N   UNL     1      42.602  -8.688   8.897  1.00  0.00    -0.302 N 
HETATM   12  C   UNL     1      43.911  -9.008   9.237  1.00  0.00     0.248 C 
HETATM   13  O   UNL     1      44.873  -8.843   8.488  1.00  0.00    -0.271 OA
HETATM   14  H   UNL     1      41.882  -8.977   9.551  1.00  0.00     0.171 HD
BRANCH  12  15
HETATM   15  C   UNL     1      44.040  -9.568  10.648  1.00  0.00     0.278 C 
BRANCH  15  16
HETATM   16  O   UNL     1      44.133  -8.536  11.620  1.00  0.00    -0.342 OA
BRANCH  16  17
HETATM   17  C   UNL     1      43.186  -8.512  12.608  1.00  0.00     0.070 A 
HETATM   18  C   UNL     1      43.196  -7.693  13.739  1.00  0.00     0.043 A 
HETATM   19  C   UNL     1      42.152  -7.753  14.673  1.00  0.00    -0.059 A 
HETATM   20  C   UNL     1      42.177  -6.884  15.898  1.00  0.00     0.048 C 
HETATM   21  C   UNL     1      41.112  -8.670  14.481  1.00  0.00     0.013 A 
HETATM   22  C   UNL     1      41.090  -9.499  13.356  1.00  0.00    -0.059 A 
HETATM   23  C   UNL     1      42.138  -9.420  12.430  1.00  0.00     0.043 A 
HETATM   24  C   UNL     1      39.975 -10.488  13.174  1.00  0.00     0.048 C 
ENDBRANCH  16  17
ENDBRANCH  15  16
ENDBRANCH  12  15
ENDBRANCH   9  11
ENDBRANCH   7   9
ENDBRANCH   1   7
BRANCH   4  25
HETATM   25  N   UNL     1      40.793 -14.073   5.478  1.00  0.00    -0.378 N 
HETATM   26  C   UNL     1      40.795 -15.119   6.515  1.00  0.00     0.150 C 
HETATM   27  C   UNL     1      42.131 -15.891   6.570  1.00  0.00     0.255 C 
HETATM   28  N   UNL     1      42.544 -16.381   5.184  1.00  0.00    -0.064 N 
HETATM   29  H   UNL     1      41.824 -17.045   4.867  1.00  0.00     0.280 HD
HETATM   30  C   UNL     1      42.558 -15.235   4.172  1.00  0.00     0.255 C 
HETATM   31  C   UNL     1      41.180 -14.541   4.131  1.00  0.00     0.150 C 
BRANCH  28  32
HETATM   32  C   UNL     1      43.853 -17.135   5.194  1.00  0.00     0.275 C 
BRANCH  32  33
HETATM   33  C   UNL     1      43.826 -18.406   4.387  1.00  0.00    -0.011 A 
HETATM   34  C   UNL     1      43.752 -19.672   4.994  1.00  0.00     0.042 A 
HETATM   35 CL   UNL     1      43.713 -19.835   6.715  1.00  0.00    -0.084 Cl
HETATM   36  C   UNL     1      43.738 -20.836   4.224  1.00  0.00     0.024 A 
HETATM   37  C   UNL     1      43.798 -20.751   2.834  1.00  0.00     0.002 A 
HETATM   38  C   UNL     1      43.870 -19.506   2.216  1.00  0.00     0.001 A 
HETATM   39  C   UNL     1      43.882 -18.340   2.984  1.00  0.00     0.010 A 
ENDBRANCH  32  33
ENDBRANCH  28  32
ENDBRANCH   4  25
TORSDOF 9
ENDMDL
MODEL 9
REMARK VINA RESULT:      -8.6      5.286     12.981
REMARK  9 active torsions:
REMARK  status: ('A' for Active; 'I' for Inactive)
REMARK    1  A    between atoms: C_4  and  O_5 
REMARK    2  A    between atoms: O_5  and  C_6 
REMARK    3  A    between atoms: C_6  and  C_7 
REMARK       I    between atoms: C_7  and  N_8 
REMARK    4  A    between atoms: N_8  and  C_9 
REMARK    5  A    between atoms: C_9  and  N_10 
REMARK    6  A    between atoms: N_10  and  C_11 
REMARK    7  A    between atoms: C_14  and  N_15 
REMARK    8  A    between atoms: N_18  and  C_20 
REMARK    9  A    between atoms: C_20  and  C_21 
ROOT
HETATM    1  C   UNL     1      43.040  -9.611  11.150  1.00  0.00     0.034 A 
HETATM    2  C   UNL     1      42.189  -9.132  10.159  1.00  0.00     0.032 A 
HETATM    3  C   UNL     1      42.461  -9.369   8.803  1.00  0.00     0.031 A 
HETATM    4  C   UNL     1      43.567 -10.120   8.397  1.00  0.00     0.030 A 
HETATM    5  C   UNL     1      44.440 -10.553   9.407  1.00  0.00     0.031 A 
HETATM    6  C   UNL     1      44.195 -10.286  10.760  1.00  0.00     0.032 A 
ENDROOT
BRANCH   1   7
HETATM    7  N   UNL     1      42.845  -9.389  12.525  1.00  0.00    -0.333 N 
HETATM    8  H   UNL     1      43.701  -9.294  13.076  1.00  0.00     0.168 HD
BRANCH   7   9
HETATM    9  C   UNL     1      41.701  -9.404  13.290  1.00  0.00     0.178 C 
HETATM   10  S   UNL     1      40.267 -10.214  12.997  1.00  0.00    -0.040 SA
BRANCH   9  11
HETATM   11  N   UNL     1      41.776  -8.678  14.464  1.00  0.00    -0.302 N 
HETATM   12  C   UNL     1      42.485  -7.512  14.730  1.00  0.00     0.248 C 
HETATM   13  O   UNL     1      43.302  -7.016  13.955  1.00  0.00    -0.271 OA
HETATM   14  H   UNL     1      41.219  -9.051  15.227  1.00  0.00     0.171 HD
BRANCH  12  15
HETATM   15  C   UNL     1      42.131  -6.893  16.077  1.00  0.00     0.278 C 
BRANCH  15  16
HETATM   16  O   UNL     1      41.207  -7.695  16.800  1.00  0.00    -0.342 OA
BRANCH  16  17
HETATM   17  C   UNL     1      41.271  -7.653  18.167  1.00  0.00     0.070 A 
HETATM   18  C   UNL     1      40.206  -7.858  19.048  1.00  0.00     0.043 A 
HETATM   19  C   UNL     1      40.407  -7.805  20.435  1.00  0.00    -0.059 A 
HETATM   20  C   UNL     1      39.256  -8.006  21.377  1.00  0.00     0.048 C 
HETATM   21  C   UNL     1      41.682  -7.510  20.932  1.00  0.00     0.013 A 
HETATM   22  C   UNL     1      42.757  -7.299  20.063  1.00  0.00    -0.059 A 
HETATM   23  C   UNL     1      42.538  -7.363  18.681  1.00  0.00     0.043 A 
HETATM   24  C   UNL     1      44.113  -6.968  20.613  1.00  0.00     0.048 C 
ENDBRANCH  16  17
ENDBRANCH  15  16
ENDBRANCH  12  15
ENDBRANCH   9  11
ENDBRANCH   7   9
ENDBRANCH   1   7
BRANCH   4  25
HETATM   25  N   UNL     1      43.848 -10.435   7.065  1.00  0.00    -0.378 N 
HETATM   26  C   UNL     1      42.775 -10.423   6.056  1.00  0.00     0.150 C 
HETATM   27  C   UNL     1      42.101 -11.803   5.896  1.00  0.00     0.255 C 
HETATM   28  N   UNL     1      43.139 -12.905   5.694  1.00  0.00    -0.064 N 
HETATM   29  H   UNL     1      43.632 -12.704   4.813  1.00  0.00     0.280 HD
HETATM   30  C   UNL     1      44.196 -12.880   6.800  1.00  0.00     0.255 C 
HETATM   31  C   UNL     1      44.863 -11.491   6.871  1.00  0.00     0.150 C 
BRANCH  28  32
HETATM   32  C   UNL     1      42.520 -14.274   5.542  1.00  0.00     0.275 C 
BRANCH  32  33
HETATM   33  C   UNL     1      42.822 -14.932   4.222  1.00  0.00    -0.011 A 
HETATM   34  C   UNL     1      42.943 -16.326   4.096  1.00  0.00     0.042 A 
HETATM   35 CL   UNL     1      42.774 -17.365   5.468  1.00  0.00    -0.084 Cl
HETATM   36  C   UNL     1      43.235 -16.912   2.862  1.00  0.00     0.024 A 
HETATM   37  C   UNL     1      43.409 -16.110   1.736  1.00  0.00     0.002 A 
HETATM   38  C   UNL     1      43.292 -14.727   1.842  1.00  0.00     0.001 A 
HETATM   39  C   UNL     1      42.998 -14.139   3.074  1.00  0.00     0.010 A 
ENDBRANCH  32  33
ENDBRANCH  28  32
ENDBRANCH   4  25
TORSDOF 9
ENDMDL
MODEL 10
REMARK VINA RESULT:      -8.6      1.681      2.657
REMARK  9 active torsions:
REMARK  status: ('A' for Active; 'I' for Inactive)
REMARK    1  A    between atoms: C_4  and  O_5 
REMARK    2  A    between atoms: O_5  and  C_6 
REMARK    3  A    between atoms: C_6  and  C_7 
REMARK       I    between atoms: C_7  and  N_8 
REMARK    4  A    between atoms: N_8  and  C_9 
REMARK    5  A    between atoms: C_9  and  N_10 
REMARK    6  A    between atoms: N_10  and  C_11 
REMARK    7  A    between atoms: C_14  and  N_15 
REMARK    8  A    between atoms: N_18  and  C_20 
REMARK    9  A    between atoms: C_20  and  C_21 
ROOT
HETATM    1  C   UNL     1      42.710 -11.577   5.801  1.00  0.00     0.034 A 
HETATM    2  C   UNL     1      43.535 -12.210   6.725  1.00  0.00     0.032 A 
HETATM    3  C   UNL     1      44.011 -11.523   7.852  1.00  0.00     0.031 A 
HETATM    4  C   UNL     1      43.650 -10.199   8.111  1.00  0.00     0.030 A 
HETATM    5  C   UNL     1      42.858  -9.561   7.143  1.00  0.00     0.031 A 
HETATM    6  C   UNL     1      42.412 -10.229   5.996  1.00  0.00     0.032 A 
ENDROOT
BRANCH   1   7
HETATM    7  N   UNL     1      42.218 -12.193   4.636  1.00  0.00    -0.333 N 
HETATM    8  H   UNL     1      42.837 -12.147   3.825  1.00  0.00     0.168 HD
BRANCH   7   9
HETATM    9  C   UNL     1      40.987 -12.742   4.356  1.00  0.00     0.178 C 
HETATM   10  S   UNL     1      39.494 -12.319   4.982  1.00  0.00    -0.040 SA
BRANCH   9  11
HETATM   11  N   UNL     1      41.001 -13.747   3.406  1.00  0.00    -0.302 N 
HETATM   12  C   UNL     1      41.438 -13.700   2.088  1.00  0.00     0.248 C 
HETATM   13  O   UNL     1      41.760 -12.663   1.510  1.00  0.00    -0.271 OA
HETATM   14  H   UNL     1      40.653 -14.642   3.735  1.00  0.00     0.171 HD
BRANCH  12  15
HETATM   15  C   UNL     1      41.500 -15.075   1.432  1.00  0.00     0.278 C 
BRANCH  15  16
HETATM   16  O   UNL     1      41.126 -16.108   2.333  1.00  0.00    -0.342 OA
BRANCH  16  17
HETATM   17  C   UNL     1      42.130 -16.861   2.881  1.00  0.00     0.070 A 
HETATM   18  C   UNL     1      42.862 -16.548   4.029  1.00  0.00     0.043 A 
HETATM   19  C   UNL     1      43.858 -17.416   4.499  1.00  0.00    -0.059 A 
HETATM   20  C   UNL     1      44.655 -17.066   5.722  1.00  0.00     0.048 C 
HETATM   21  C   UNL     1      44.140 -18.587   3.786  1.00  0.00     0.013 A 
HETATM   22  C   UNL     1      43.419 -18.911   2.632  1.00  0.00    -0.059 A 
HETATM   23  C   UNL     1      42.423 -18.036   2.183  1.00  0.00     0.043 A 
HETATM   24  C   UNL     1      43.745 -20.163   1.871  1.00  0.00     0.048 C 
ENDBRANCH  16  17
ENDBRANCH  15  16
ENDBRANCH  12  15
ENDBRANCH   9  11
ENDBRANCH   7   9
ENDBRANCH   1   7
BRANCH   4  25
HETATM   25  N   UNL     1      44.047  -9.491   9.247  1.00  0.00    -0.378 N 
HETATM   26  C   UNL     1      44.607 -10.203  10.409  1.00  0.00     0.150 C 
HETATM   27  C   UNL     1      43.524 -10.597  11.436  1.00  0.00     0.255 C 
HETATM   28  N   UNL     1      42.644  -9.403  11.798  1.00  0.00    -0.064 N 
HETATM   29  H   UNL     1      43.249  -8.703  12.249  1.00  0.00     0.280 HD
HETATM   30  C   UNL     1      42.067  -8.740  10.546  1.00  0.00     0.255 C 
HETATM   31  C   UNL     1      43.204  -8.326   9.588  1.00  0.00     0.150 C 
BRANCH  28  32
HETATM   32  C   UNL     1      41.564  -9.750  12.795  1.00  0.00     0.275 C 
BRANCH  32  33
HETATM   33  C   UNL     1      40.677  -8.588  13.155  1.00  0.00    -0.011 A 
HETATM   34  C   UNL     1      41.135  -7.517  13.941  1.00  0.00     0.042 A 
HETATM   35 CL   UNL     1      42.749  -7.491  14.561  1.00  0.00    -0.084 Cl
HETATM   36  C   UNL     1      40.289  -6.456  14.270  1.00  0.00     0.024 A 
HETATM   37  C   UNL     1      38.972  -6.451  13.817  1.00  0.00     0.002 A 
HETATM   38  C   UNL     1      38.501  -7.503  13.036  1.00  0.00     0.001 A 
HETATM   39  C   UNL     1      39.346  -8.565  12.704  1.00  0.00     0.010 A 
ENDBRANCH  32  33
ENDBRANCH  28  32
ENDBRANCH   4  25
TORSDOF 9
ENDMDL
