MODEL 1
REMARK VINA RESULT:      -7.8      0.000      0.000
REMARK  3 active torsions:
REMARK  status: ('A' for Active; 'I' for Inactive)
REMARK    1  A    between atoms: C_9  and  C_10 
REMARK    2  A    between atoms: C_16  and  C_17 
REMARK       I    between atoms: C_17  and  N_18 
REMARK    3  A    between atoms: N_18  and  C_19 
ROOT
HETATM    1  C   UNL     1      39.894 -15.530   0.884  1.00  0.00     0.070 C 
HETATM    2  C   UNL     1      39.952 -14.343   1.814  1.00  0.00     0.037 C 
HETATM    3  N   UNL     1      39.373 -13.174   1.331  1.00  0.00    -0.192 N 
HETATM    4  C   UNL     1      39.105 -12.111   2.115  1.00  0.00     0.725 A 
HETATM    5  N   UNL     1      39.560 -12.096   3.406  1.00  0.00    -0.084 N 
HETATM    6  N   UNL     1      39.134 -10.998   4.064  1.00  0.00    -0.149 NA
HETATM    7  C   UNL     1      38.461 -10.374   3.090  1.00  0.00     0.275 A 
HETATM    8  N   UNL     1      38.423 -11.019   1.880  1.00  0.00    -0.054 NA
HETATM    9  C   UNL     1      40.370 -13.163   4.003  1.00  0.00     0.202 C 
HETATM   10  C   UNL     1      40.454 -14.371   3.075  1.00  0.00     0.062 C 
HETATM   11  H   UNL     1      38.923 -13.214   0.420  1.00  0.00     0.184 HD
ENDROOT
BRANCH  10  12
HETATM   12  C   UNL     1      41.018 -15.585   3.718  1.00  0.00     0.256 C 
HETATM   13  N   UNL     1      42.241 -15.963   3.211  1.00  0.00    -0.322 N 
HETATM   14  H   UNL     1      42.657 -15.371   2.504  1.00  0.00     0.169 HD
HETATM   15  O   UNL     1      40.411 -16.102   4.645  1.00  0.00    -0.267 OA
BRANCH  13  16
HETATM   16  C   UNL     1      42.977 -17.113   3.570  1.00  0.00     0.052 A 
HETATM   17  C   UNL     1      43.536 -17.350   4.822  1.00  0.00     0.145 A 
HETATM   18  N   UNL     1      44.219 -18.478   5.151  1.00  0.00    -0.271 NA
HETATM   19  C   UNL     1      44.353 -19.413   4.190  1.00  0.00     0.116 A 
HETATM   20  C   UNL     1      43.838 -19.275   2.913  1.00  0.00     0.021 A 
HETATM   21  C   UNL     1      43.143 -18.107   2.602  1.00  0.00     0.032 A 
ENDBRANCH  13  16
ENDBRANCH  10  12
BRANCH   9  22
HETATM   22  C   UNL     1      41.754 -12.641   4.375  1.00  0.00    -0.025 A 
HETATM   23  C   UNL     1      42.615 -12.173   3.374  1.00  0.00     0.029 A 
HETATM   24  C   UNL     1      43.858 -11.679   3.737  1.00  0.00     0.117 A 
HETATM   25  N   UNL     1      44.296 -11.614   5.012  1.00  0.00    -0.273 NA
HETATM   26  C   UNL     1      43.460 -12.071   5.966  1.00  0.00     0.117 A 
HETATM   27  C   UNL     1      42.195 -12.576   5.705  1.00  0.00     0.029 A 
ENDBRANCH   9  22
TORSDOF 3
ENDMDL
MODEL 2
REMARK VINA RESULT:      -7.8      1.719      4.350
REMARK  3 active torsions:
REMARK  status: ('A' for Active; 'I' for Inactive)
REMARK    1  A    between atoms: C_9  and  C_10 
REMARK    2  A    between atoms: C_16  and  C_17 
REMARK       I    between atoms: C_17  and  N_18 
REMARK    3  A    between atoms: N_18  and  C_19 
ROOT
HETATM    1  C   UNL     1      42.965 -15.897   8.095  1.00  0.00     0.070 C 
HETATM    2  C   UNL     1      43.008 -14.787   7.074  1.00  0.00     0.037 C 
HETATM    3  N   UNL     1      43.352 -13.532   7.567  1.00  0.00    -0.192 N 
HETATM    4  C   UNL     1      43.690 -12.499   6.771  1.00  0.00     0.725 A 
HETATM    5  N   UNL     1      43.540 -12.618   5.415  1.00  0.00    -0.084 N 
HETATM    6  N   UNL     1      44.000 -11.525   4.773  1.00  0.00    -0.149 NA
HETATM    7  C   UNL     1      44.374 -10.768   5.812  1.00  0.00     0.275 A 
HETATM    8  N   UNL     1      44.196 -11.326   7.052  1.00  0.00    -0.054 NA
HETATM    9  C   UNL     1      42.989 -13.805   4.752  1.00  0.00     0.202 C 
HETATM   10  C   UNL     1      42.810 -14.951   5.742  1.00  0.00     0.062 C 
HETATM   11  H   UNL     1      43.586 -13.463   8.555  1.00  0.00     0.184 HD
ENDROOT
BRANCH  10  12
HETATM   12  C   UNL     1      42.522 -16.260   5.100  1.00  0.00     0.256 C 
HETATM   13  N   UNL     1      43.650 -16.977   4.772  1.00  0.00    -0.322 N 
HETATM   14  H   UNL     1      44.545 -16.586   5.036  1.00  0.00     0.169 HD
HETATM   15  O   UNL     1      41.358 -16.612   4.967  1.00  0.00    -0.267 OA
BRANCH  13  16
HETATM   16  C   UNL     1      43.690 -18.211   4.087  1.00  0.00     0.052 A 
HETATM   17  C   UNL     1      44.090 -19.424   4.640  1.00  0.00     0.145 A 
HETATM   18  N   UNL     1      44.094 -20.604   3.966  1.00  0.00    -0.271 NA
HETATM   19  C   UNL     1      43.682 -20.576   2.684  1.00  0.00     0.116 A 
HETATM   20  C   UNL     1      43.266 -19.424   2.039  1.00  0.00     0.021 A 
HETATM   21  C   UNL     1      43.274 -18.227   2.753  1.00  0.00     0.032 A 
ENDBRANCH  13  16
ENDBRANCH  10  12
BRANCH   9  22
HETATM   22  C   UNL     1      41.683 -13.464   4.042  1.00  0.00    -0.025 A 
HETATM   23  C   UNL     1      41.564 -13.673   2.662  1.00  0.00     0.029 A 
HETATM   24  C   UNL     1      40.360 -13.381   2.041  1.00  0.00     0.117 A 
HETATM   25  N   UNL     1      39.277 -12.906   2.692  1.00  0.00    -0.273 NA
HETATM   26  C   UNL     1      39.405 -12.706   4.019  1.00  0.00     0.117 A 
HETATM   27  C   UNL     1      40.564 -12.974   4.732  1.00  0.00     0.029 A 
ENDBRANCH   9  22
TORSDOF 3
ENDMDL
MODEL 3
REMARK VINA RESULT:      -7.5      1.725      4.124
REMARK  3 active torsions:
REMARK  status: ('A' for Active; 'I' for Inactive)
REMARK    1  A    between atoms: C_9  and  C_10 
REMARK    2  A    between atoms: C_16  and  C_17 
REMARK       I    between atoms: C_17  and  N_18 
REMARK    3  A    between atoms: N_18  and  C_19 
ROOT
HETATM    1  C   UNL     1      41.903 -15.873   7.321  1.00  0.00     0.070 C 
HETATM    2  C   UNL     1      42.211 -14.826   6.279  1.00  0.00     0.037 C 
HETATM    3  N   UNL     1      42.419 -13.539   6.766  1.00  0.00    -0.192 N 
HETATM    4  C   UNL     1      42.952 -12.551   6.020  1.00  0.00     0.725 A 
HETATM    5  N   UNL     1      43.156 -12.754   4.682  1.00  0.00    -0.084 N 
HETATM    6  N   UNL     1      43.767 -11.695   4.113  1.00  0.00    -0.149 NA
HETATM    7  C   UNL     1      43.863 -10.872   5.164  1.00  0.00     0.275 A 
HETATM    8  N   UNL     1      43.371 -11.357   6.349  1.00  0.00    -0.054 NA
HETATM    9  C   UNL     1      42.791 -13.986   3.973  1.00  0.00     0.202 C 
HETATM   10  C   UNL     1      42.361 -15.073   4.953  1.00  0.00     0.062 C 
HETATM   11  H   UNL     1      42.390 -13.407   7.774  1.00  0.00     0.184 HD
ENDROOT
BRANCH  10  12
HETATM   12  C   UNL     1      42.245 -16.422   4.341  1.00  0.00     0.256 C 
HETATM   13  N   UNL     1      43.386 -17.183   4.457  1.00  0.00    -0.322 N 
HETATM   14  H   UNL     1      44.160 -16.790   4.977  1.00  0.00     0.169 HD
HETATM   15  O   UNL     1      41.177 -16.761   3.851  1.00  0.00    -0.267 OA
BRANCH  13  16
HETATM   16  C   UNL     1      43.596 -18.467   3.908  1.00  0.00     0.052 A 
HETATM   17  C   UNL     1      44.004 -19.589   4.623  1.00  0.00     0.145 A 
HETATM   18  N   UNL     1      44.175 -20.821   4.076  1.00  0.00    -0.271 NA
HETATM   19  C   UNL     1      43.928 -20.943   2.757  1.00  0.00     0.116 A 
HETATM   20  C   UNL     1      43.521 -19.891   1.955  1.00  0.00     0.021 A 
HETATM   21  C   UNL     1      43.356 -18.637   2.542  1.00  0.00     0.032 A 
ENDBRANCH  13  16
ENDBRANCH  10  12
BRANCH   9  22
HETATM   22  C   UNL     1      41.712 -13.706   2.932  1.00  0.00    -0.025 A 
HETATM   23  C   UNL     1      40.426 -13.336   3.344  1.00  0.00     0.029 A 
HETATM   24  C   UNL     1      39.467 -13.062   2.381  1.00  0.00     0.117 A 
HETATM   25  N   UNL     1      39.700 -13.124   1.053  1.00  0.00    -0.273 NA
HETATM   26  C   UNL     1      40.941 -13.484   0.669  1.00  0.00     0.117 A 
HETATM   27  C   UNL     1      41.969 -13.771   1.555  1.00  0.00     0.029 A 
ENDBRANCH   9  22
TORSDOF 3
ENDMDL
MODEL 4
REMARK VINA RESULT:      -7.5      2.491      5.997
REMARK  3 active torsions:
REMARK  status: ('A' for Active; 'I' for Inactive)
REMARK    1  A    between atoms: C_9  and  C_10 
REMARK    2  A    between atoms: C_16  and  C_17 
REMARK       I    between atoms: C_17  and  N_18 
REMARK    3  A    between atoms: N_18  and  C_19 
ROOT
HETATM    1  C   UNL     1      41.559 -10.093   1.270  1.00  0.00     0.070 C 
HETATM    2  C   UNL     1      41.894 -11.170   2.271  1.00  0.00     0.037 C 
HETATM    3  N   UNL     1      42.925 -10.868   3.156  1.00  0.00    -0.192 N 
HETATM    4  C   UNL     1      43.177 -11.592   4.263  1.00  0.00     0.725 A 
HETATM    5  N   UNL     1      42.508 -12.770   4.463  1.00  0.00    -0.084 N 
HETATM    6  N   UNL     1      42.824 -13.318   5.654  1.00  0.00    -0.149 NA
HETATM    7  C   UNL     1      43.724 -12.435   6.100  1.00  0.00     0.275 A 
HETATM    8  N   UNL     1      43.972 -11.366   5.277  1.00  0.00    -0.054 NA
HETATM    9  C   UNL     1      41.540 -13.335   3.516  1.00  0.00     0.202 C 
HETATM   10  C   UNL     1      41.224 -12.343   2.401  1.00  0.00     0.062 C 
HETATM   11  H   UNL     1      43.343  -9.943   3.091  1.00  0.00     0.184 HD
ENDROOT
BRANCH  10  12
HETATM   12  C   UNL     1      40.056 -12.729   1.567  1.00  0.00     0.256 C 
HETATM   13  N   UNL     1      40.375 -12.982   0.251  1.00  0.00    -0.322 N 
HETATM   14  H   UNL     1      41.351 -12.935  -0.010  1.00  0.00     0.169 HD
HETATM   15  O   UNL     1      38.961 -12.844   2.097  1.00  0.00    -0.267 OA
BRANCH  13  16
HETATM   16  C   UNL     1      39.468 -13.293  -0.786  1.00  0.00     0.052 A 
HETATM   17  C   UNL     1      38.442 -12.463  -1.229  1.00  0.00     0.145 A 
HETATM   18  N   UNL     1      37.598 -12.774  -2.248  1.00  0.00    -0.271 NA
HETATM   19  C   UNL     1      37.783 -13.963  -2.853  1.00  0.00     0.116 A 
HETATM   20  C   UNL     1      38.772 -14.861  -2.489  1.00  0.00     0.021 A 
HETATM   21  C   UNL     1      39.622 -14.518  -1.439  1.00  0.00     0.032 A 
ENDBRANCH  13  16
ENDBRANCH  10  12
BRANCH   9  22
HETATM   22  C   UNL     1      42.045 -14.663   2.962  1.00  0.00    -0.025 A 
HETATM   23  C   UNL     1      43.118 -14.681   2.062  1.00  0.00     0.029 A 
HETATM   24  C   UNL     1      43.577 -15.901   1.591  1.00  0.00     0.117 A 
HETATM   25  N   UNL     1      43.052 -17.091   1.954  1.00  0.00    -0.273 NA
HETATM   26  C   UNL     1      42.018 -17.060   2.818  1.00  0.00     0.117 A 
HETATM   27  C   UNL     1      41.492 -15.893   3.351  1.00  0.00     0.029 A 
ENDBRANCH   9  22
TORSDOF 3
ENDMDL
MODEL 5
REMARK VINA RESULT:      -6.9      2.432      5.953
REMARK  3 active torsions:
REMARK  status: ('A' for Active; 'I' for Inactive)
REMARK    1  A    between atoms: C_9  and  C_10 
REMARK    2  A    between atoms: C_16  and  C_17 
REMARK       I    between atoms: C_17  and  N_18 
REMARK    3  A    between atoms: N_18  and  C_19 
ROOT
HETATM    1  C   UNL     1      42.509 -17.801   2.285  1.00  0.00     0.070 C 
HETATM    2  C   UNL     1      42.689 -16.991   3.545  1.00  0.00     0.037 C 
HETATM    3  N   UNL     1      42.880 -17.728   4.710  1.00  0.00    -0.192 N 
HETATM    4  C   UNL     1      43.310 -17.179   5.863  1.00  0.00     0.725 A 
HETATM    5  N   UNL     1      43.417 -15.818   5.960  1.00  0.00    -0.084 N 
HETATM    6  N   UNL     1      43.937 -15.451   7.149  1.00  0.00    -0.149 NA
HETATM    7  C   UNL     1      44.079 -16.646   7.735  1.00  0.00     0.275 A 
HETATM    8  N   UNL     1      43.703 -17.729   6.983  1.00  0.00    -0.054 NA
HETATM    9  C   UNL     1      43.052 -14.887   4.887  1.00  0.00     0.202 C 
HETATM   10  C   UNL     1      42.746 -15.636   3.594  1.00  0.00     0.062 C 
HETATM   11  H   UNL     1      42.924 -18.741   4.623  1.00  0.00     0.184 HD
ENDROOT
BRANCH  10  12
HETATM   12  C   UNL     1      42.640 -14.757   2.401  1.00  0.00     0.256 C 
HETATM   13  N   UNL     1      41.343 -14.498   2.018  1.00  0.00    -0.322 N 
HETATM   14  H   UNL     1      40.601 -14.875   2.593  1.00  0.00     0.169 HD
HETATM   15  O   UNL     1      43.661 -14.303   1.905  1.00  0.00    -0.267 OA
BRANCH  13  16
HETATM   16  C   UNL     1      40.935 -13.763   0.883  1.00  0.00     0.052 A 
HETATM   17  C   UNL     1      41.097 -12.391   0.715  1.00  0.00     0.145 A 
HETATM   18  N   UNL     1      40.719 -11.710  -0.399  1.00  0.00    -0.271 NA
HETATM   19  C   UNL     1      40.156 -12.426  -1.391  1.00  0.00     0.116 A 
HETATM   20  C   UNL     1      39.948 -13.794  -1.324  1.00  0.00     0.021 A 
HETATM   21  C   UNL     1      40.343 -14.466  -0.169  1.00  0.00     0.032 A 
ENDBRANCH  13  16
ENDBRANCH  10  12
BRANCH   9  22
HETATM   22  C   UNL     1      41.883 -14.006   5.317  1.00  0.00    -0.025 A 
HETATM   23  C   UNL     1      40.709 -14.593   5.805  1.00  0.00     0.029 A 
HETATM   24  C   UNL     1      39.670 -13.773   6.215  1.00  0.00     0.117 A 
HETATM   25  N   UNL     1      39.720 -12.425   6.178  1.00  0.00    -0.273 NA
HETATM   26  C   UNL     1      40.854 -11.871   5.704  1.00  0.00     0.117 A 
HETATM   27  C   UNL     1      41.950 -12.605   5.277  1.00  0.00     0.029 A 
ENDBRANCH   9  22
TORSDOF 3
ENDMDL
MODEL 6
REMARK VINA RESULT:      -6.8      3.101      5.200
REMARK  3 active torsions:
REMARK  status: ('A' for Active; 'I' for Inactive)
REMARK    1  A    between atoms: C_9  and  C_10 
REMARK    2  A    between atoms: C_16  and  C_17 
REMARK       I    between atoms: C_17  and  N_18 
REMARK    3  A    between atoms: N_18  and  C_19 
ROOT
HETATM    1  C   UNL     1      40.102 -10.978   3.454  1.00  0.00     0.070 C 
HETATM    2  C   UNL     1      40.325 -10.997   1.962  1.00  0.00     0.037 C 
HETATM    3  N   UNL     1      40.314  -9.753   1.338  1.00  0.00    -0.192 N 
HETATM    4  C   UNL     1      40.750  -9.562   0.078  1.00  0.00     0.725 A 
HETATM    5  N   UNL     1      41.069 -10.646  -0.695  1.00  0.00    -0.084 N 
HETATM    6  N   UNL     1      41.560 -10.267  -1.893  1.00  0.00    -0.149 NA
HETATM    7  C   UNL     1      41.467  -8.936  -1.787  1.00  0.00     0.275 A 
HETATM    8  N   UNL     1      40.971  -8.464  -0.598  1.00  0.00    -0.054 NA
HETATM    9  C   UNL     1      40.933 -12.038  -0.253  1.00  0.00     0.202 C 
HETATM   10  C   UNL     1      40.598 -12.109   1.234  1.00  0.00     0.062 C 
HETATM   11  H   UNL     1      40.200  -8.932   1.928  1.00  0.00     0.184 HD
ENDROOT
BRANCH  10  12
HETATM   12  C   UNL     1      40.717 -13.473   1.812  1.00  0.00     0.256 C 
HETATM   13  N   UNL     1      42.005 -13.821   2.149  1.00  0.00    -0.322 N 
HETATM   14  H   UNL     1      42.726 -13.122   2.026  1.00  0.00     0.169 HD
HETATM   15  O   UNL     1      39.702 -14.132   1.989  1.00  0.00    -0.267 OA
BRANCH  13  16
HETATM   16  C   UNL     1      42.433 -15.073   2.643  1.00  0.00     0.052 A 
HETATM   17  C   UNL     1      42.453 -15.441   3.985  1.00  0.00     0.145 A 
HETATM   18  N   UNL     1      42.845 -16.663   4.434  1.00  0.00    -0.271 NA
HETATM   19  C   UNL     1      43.234 -17.559   3.506  1.00  0.00     0.116 A 
HETATM   20  C   UNL     1      43.253 -17.293   2.147  1.00  0.00     0.021 A 
HETATM   21  C   UNL     1      42.848 -16.031   1.715  1.00  0.00     0.032 A 
ENDBRANCH  13  16
ENDBRANCH  10  12
BRANCH   9  22
HETATM   22  C   UNL     1      39.897 -12.771  -1.099  1.00  0.00    -0.025 A 
HETATM   23  C   UNL     1      38.575 -12.307  -1.139  1.00  0.00     0.029 A 
HETATM   24  C   UNL     1      37.656 -12.972  -1.935  1.00  0.00     0.117 A 
HETATM   25  N   UNL     1      37.959 -14.050  -2.690  1.00  0.00    -0.273 NA
HETATM   26  C   UNL     1      39.233 -14.488  -2.641  1.00  0.00     0.117 A 
HETATM   27  C   UNL     1      40.226 -13.887  -1.882  1.00  0.00     0.029 A 
ENDBRANCH   9  22
TORSDOF 3
ENDMDL
MODEL 7
REMARK VINA RESULT:      -6.8      2.648      5.891
REMARK  3 active torsions:
REMARK  status: ('A' for Active; 'I' for Inactive)
REMARK    1  A    between atoms: C_9  and  C_10 
REMARK    2  A    between atoms: C_16  and  C_17 
REMARK       I    between atoms: C_17  and  N_18 
REMARK    3  A    between atoms: N_18  and  C_19 
ROOT
HETATM    1  C   UNL     1      41.214  -9.792   3.390  1.00  0.00     0.070 C 
HETATM    2  C   UNL     1      41.345 -11.285   3.216  1.00  0.00     0.037 C 
HETATM    3  N   UNL     1      40.446 -11.866   2.327  1.00  0.00    -0.192 N 
HETATM    4  C   UNL     1      40.586 -13.122   1.859  1.00  0.00     0.725 A 
HETATM    5  N   UNL     1      41.553 -13.933   2.389  1.00  0.00    -0.084 N 
HETATM    6  N   UNL     1      41.603 -15.120   1.750  1.00  0.00    -0.149 NA
HETATM    7  C   UNL     1      40.604 -14.968   0.872  1.00  0.00     0.275 A 
HETATM    8  N   UNL     1      39.953 -13.762   0.909  1.00  0.00    -0.054 NA
HETATM    9  C   UNL     1      42.447 -13.537   3.483  1.00  0.00     0.202 C 
HETATM   10  C   UNL     1      42.300 -12.052   3.799  1.00  0.00     0.062 C 
HETATM   11  H   UNL     1      39.804 -11.248   1.836  1.00  0.00     0.184 HD
ENDROOT
BRANCH  10  12
HETATM   12  C   UNL     1      43.358 -11.521   4.697  1.00  0.00     0.256 C 
HETATM   13  N   UNL     1      42.958 -11.388   6.007  1.00  0.00    -0.322 N 
HETATM   14  H   UNL     1      42.026 -11.701   6.245  1.00  0.00     0.169 HD
HETATM   15  O   UNL     1      44.471 -11.306   4.238  1.00  0.00    -0.267 OA
BRANCH  13  16
HETATM   16  C   UNL     1      43.718 -10.841   7.064  1.00  0.00     0.052 A 
HETATM   17  C   UNL     1      44.823 -11.447   7.655  1.00  0.00     0.145 A 
HETATM   18  N   UNL     1      45.554 -10.887   8.655  1.00  0.00    -0.271 NA
HETATM   19  C   UNL     1      45.169  -9.670   9.085  1.00  0.00     0.116 A 
HETATM   20  C   UNL     1      44.085  -8.983   8.567  1.00  0.00     0.021 A 
HETATM   21  C   UNL     1      43.351  -9.581   7.544  1.00  0.00     0.032 A 
ENDBRANCH  13  16
ENDBRANCH  10  12
BRANCH   9  22
HETATM   22  C   UNL     1      42.202 -14.403   4.715  1.00  0.00    -0.025 A 
HETATM   23  C   UNL     1      40.952 -14.378   5.347  1.00  0.00     0.029 A 
HETATM   24  C   UNL     1      40.742 -15.192   6.449  1.00  0.00     0.117 A 
HETATM   25  N   UNL     1      41.678 -16.023   6.956  1.00  0.00    -0.273 NA
HETATM   26  C   UNL     1      42.877 -16.035   6.341  1.00  0.00     0.117 A 
HETATM   27  C   UNL     1      43.182 -15.265   5.229  1.00  0.00     0.029 A 
ENDBRANCH   9  22
TORSDOF 3
ENDMDL
MODEL 8
REMARK VINA RESULT:      -6.8      2.357      5.322
REMARK  3 active torsions:
REMARK  status: ('A' for Active; 'I' for Inactive)
REMARK    1  A    between atoms: C_9  and  C_10 
REMARK    2  A    between atoms: C_16  and  C_17 
REMARK       I    between atoms: C_17  and  N_18 
REMARK    3  A    between atoms: N_18  and  C_19 
ROOT
HETATM    1  C   UNL     1      39.161 -10.298   2.860  1.00  0.00     0.070 C 
HETATM    2  C   UNL     1      39.606 -11.418   1.953  1.00  0.00     0.037 C 
HETATM    3  N   UNL     1      38.694 -11.790   0.969  1.00  0.00    -0.192 N 
HETATM    4  C   UNL     1      39.022 -12.578  -0.074  1.00  0.00     0.725 A 
HETATM    5  N   UNL     1      40.252 -13.179  -0.102  1.00  0.00    -0.084 N 
HETATM    6  N   UNL     1      40.438 -13.861  -1.250  1.00  0.00    -0.149 NA
HETATM    7  C   UNL     1      39.259 -13.661  -1.850  1.00  0.00     0.275 A 
HETATM    8  N   UNL     1      38.362 -12.884  -1.161  1.00  0.00    -0.054 NA
HETATM    9  C   UNL     1      41.250 -13.056   0.966  1.00  0.00     0.202 C 
HETATM   10  C   UNL     1      40.825 -12.011   1.994  1.00  0.00     0.062 C 
HETATM   11  H   UNL     1      37.827 -11.261   0.907  1.00  0.00     0.184 HD
ENDROOT
BRANCH  10  12
HETATM   12  C   UNL     1      41.901 -11.634   2.946  1.00  0.00     0.256 C 
HETATM   13  N   UNL     1      41.700 -12.105   4.224  1.00  0.00    -0.322 N 
HETATM   14  H   UNL     1      40.890 -12.690   4.384  1.00  0.00     0.169 HD
HETATM   15  O   UNL     1      42.868 -11.010   2.533  1.00  0.00    -0.267 OA
BRANCH  13  16
HETATM   16  C   UNL     1      42.508 -11.842   5.352  1.00  0.00     0.052 A 
HETATM   17  C   UNL     1      42.396 -10.727   6.177  1.00  0.00     0.145 A 
HETATM   18  N   UNL     1      43.170 -10.509   7.272  1.00  0.00    -0.271 NA
HETATM   19  C   UNL     1      44.098 -11.442   7.560  1.00  0.00     0.116 A 
HETATM   20  C   UNL     1      44.292 -12.585   6.804  1.00  0.00     0.021 A 
HETATM   21  C   UNL     1      43.486 -12.783   5.684  1.00  0.00     0.032 A 
ENDBRANCH  13  16
ENDBRANCH  10  12
BRANCH   9  22
HETATM   22  C   UNL     1      41.510 -14.411   1.615  1.00  0.00    -0.025 A 
HETATM   23  C   UNL     1      40.470 -15.080   2.274  1.00  0.00     0.029 A 
HETATM   24  C   UNL     1      40.722 -16.323   2.834  1.00  0.00     0.117 A 
HETATM   25  N   UNL     1      41.921 -16.941   2.780  1.00  0.00    -0.273 NA
HETATM   26  C   UNL     1      42.914 -16.286   2.146  1.00  0.00     0.117 A 
HETATM   27  C   UNL     1      42.760 -15.044   1.548  1.00  0.00     0.029 A 
ENDBRANCH   9  22
TORSDOF 3
ENDMDL
MODEL 9
REMARK VINA RESULT:      -6.8     15.721     18.507
REMARK  3 active torsions:
REMARK  status: ('A' for Active; 'I' for Inactive)
REMARK    1  A    between atoms: C_9  and  C_10 
REMARK    2  A    between atoms: C_16  and  C_17 
REMARK       I    between atoms: C_17  and  N_18 
REMARK    3  A    between atoms: N_18  and  C_19 
ROOT
HETATM    1  C   UNL     1      59.558  -8.493  -0.568  1.00  0.00     0.070 C 
HETATM    2  C   UNL     1      59.710  -9.558   0.489  1.00  0.00     0.037 C 
HETATM    3  N   UNL     1      60.860  -9.471   1.268  1.00  0.00    -0.192 N 
HETATM    4  C   UNL     1      61.028 -10.168   2.409  1.00  0.00     0.725 A 
HETATM    5  N   UNL     1      60.113 -11.127   2.751  1.00  0.00    -0.084 N 
HETATM    6  N   UNL     1      60.393 -11.665   3.956  1.00  0.00    -0.149 NA
HETATM    7  C   UNL     1      61.519 -11.009   4.262  1.00  0.00     0.275 A 
HETATM    8  N   UNL     1      61.944 -10.087   3.339  1.00  0.00    -0.054 NA
HETATM    9  C   UNL     1      58.954 -11.487   1.927  1.00  0.00     0.202 C 
HETATM   10  C   UNL     1      58.788 -10.516   0.762  1.00  0.00     0.062 C 
HETATM   11  H   UNL     1      61.484  -8.685   1.098  1.00  0.00     0.184 HD
ENDROOT
BRANCH  10  12
HETATM   12  C   UNL     1      57.491 -10.648   0.050  1.00  0.00     0.256 C 
HETATM   13  N   UNL     1      57.621 -10.846  -1.306  1.00  0.00    -0.322 N 
HETATM   14  H   UNL     1      58.558 -10.933  -1.678  1.00  0.00     0.169 HD
HETATM   15  O   UNL     1      56.454 -10.628   0.698  1.00  0.00    -0.267 OA
BRANCH  13  16
HETATM   16  C   UNL     1      56.570 -10.928  -2.246  1.00  0.00     0.052 A 
HETATM   17  C   UNL     1      56.266  -9.958  -3.196  1.00  0.00     0.145 A 
HETATM   18  N   UNL     1      55.264 -10.072  -4.107  1.00  0.00    -0.271 NA
HETATM   19  C   UNL     1      54.532 -11.202  -4.072  1.00  0.00     0.116 A 
HETATM   20  C   UNL     1      54.750 -12.226  -3.166  1.00  0.00     0.021 A 
HETATM   21  C   UNL     1      55.783 -12.082  -2.241  1.00  0.00     0.032 A 
ENDBRANCH  13  16
ENDBRANCH  10  12
BRANCH   9  22
HETATM   22  C   UNL     1      59.066 -12.930   1.446  1.00  0.00    -0.025 A 
HETATM   23  C   UNL     1      60.142 -13.314   0.636  1.00  0.00     0.029 A 
HETATM   24  C   UNL     1      60.239 -14.636   0.232  1.00  0.00     0.117 A 
HETATM   25  N   UNL     1      59.352 -15.593   0.579  1.00  0.00    -0.273 NA
HETATM   26  C   UNL     1      58.319 -15.211   1.356  1.00  0.00     0.117 A 
HETATM   27  C   UNL     1      58.139 -13.915   1.818  1.00  0.00     0.029 A 
ENDBRANCH   9  22
TORSDOF 3
ENDMDL
MODEL 10
REMARK VINA RESULT:      -6.8      2.508      5.636
REMARK  3 active torsions:
REMARK  status: ('A' for Active; 'I' for Inactive)
REMARK    1  A    between atoms: C_9  and  C_10 
REMARK    2  A    between atoms: C_16  and  C_17 
REMARK       I    between atoms: C_17  and  N_18 
REMARK    3  A    between atoms: N_18  and  C_19 
ROOT
HETATM    1  C   UNL     1      41.082 -16.118   3.858  1.00  0.00     0.070 C 
HETATM    2  C   UNL     1      41.415 -14.747   4.393  1.00  0.00     0.037 C 
HETATM    3  N   UNL     1      42.229 -14.726   5.522  1.00  0.00    -0.192 N 
HETATM    4  C   UNL     1      42.830 -13.607   5.971  1.00  0.00     0.725 A 
HETATM    5  N   UNL     1      42.515 -12.401   5.405  1.00  0.00    -0.084 N 
HETATM    6  N   UNL     1      43.267 -11.406   5.919  1.00  0.00    -0.149 NA
HETATM    7  C   UNL     1      43.985 -12.083   6.823  1.00  0.00     0.275 A 
HETATM    8  N   UNL     1      43.745 -13.432   6.890  1.00  0.00    -0.054 NA
HETATM    9  C   UNL     1      41.517 -12.228   4.344  1.00  0.00     0.202 C 
HETATM   10  C   UNL     1      41.041 -13.578   3.815  1.00  0.00     0.062 C 
HETATM   11  H   UNL     1      42.567 -15.618   5.875  1.00  0.00     0.184 HD
ENDROOT
BRANCH  10  12
HETATM   12  C   UNL     1      40.246 -13.487   2.564  1.00  0.00     0.256 C 
HETATM   13  N   UNL     1      41.005 -13.570   1.418  1.00  0.00    -0.322 N 
HETATM   14  H   UNL     1      41.998 -13.732   1.526  1.00  0.00     0.169 HD
HETATM   15  O   UNL     1      39.028 -13.405   2.640  1.00  0.00    -0.267 OA
BRANCH  13  16
HETATM   16  C   UNL     1      40.538 -13.437   0.092  1.00  0.00     0.052 A 
HETATM   17  C   UNL     1      40.738 -12.326  -0.722  1.00  0.00     0.145 A 
HETATM   18  N   UNL     1      40.300 -12.232  -2.005  1.00  0.00    -0.271 NA
HETATM   19  C   UNL     1      39.633 -13.293  -2.501  1.00  0.00     0.116 A 
HETATM   20  C   UNL     1      39.380 -14.444  -1.776  1.00  0.00     0.021 A 
HETATM   21  C   UNL     1      39.838 -14.512  -0.461  1.00  0.00     0.032 A 
ENDBRANCH  13  16
ENDBRANCH  10  12
BRANCH   9  22
HETATM   22  C   UNL     1      40.353 -11.375   4.837  1.00  0.00    -0.025 A 
HETATM   23  C   UNL     1      39.641 -11.760   5.981  1.00  0.00     0.029 A 
HETATM   24  C   UNL     1      38.604 -10.956   6.427  1.00  0.00     0.117 A 
HETATM   25  N   UNL     1      38.234  -9.806   5.823  1.00  0.00    -0.273 NA
HETATM   26  C   UNL     1      38.924  -9.448   4.722  1.00  0.00     0.117 A 
HETATM   27  C   UNL     1      39.981 -10.180   4.203  1.00  0.00     0.029 A 
ENDBRANCH   9  22
TORSDOF 3
ENDMDL
