MODEL 1
REMARK VINA RESULT:      -8.5      0.000      0.000
REMARK  5 active torsions:
REMARK  status: ('A' for Active; 'I' for Inactive)
REMARK    1  A    between atoms: C_4  and  C_5 
REMARK       I    between atoms: C_5  and  N_6 
REMARK    2  A    between atoms: N_6  and  C_7 
REMARK    3  A    between atoms: C_10  and  C_11 
REMARK    4  A    between atoms: C_11  and  N_12 
REMARK       I    between atoms: N_12  and  C_13 
REMARK       I    between atoms: C_13  and  N_14 
REMARK    5  A    between atoms: N_14  and  C_15 
ROOT
HETATM    1  C   UNL     1      43.196 -10.664   7.632  1.00  0.00     0.035 A 
HETATM    2  C   UNL     1      42.438 -10.014   6.659  1.00  0.00     0.030 A 
HETATM    3  C   UNL     1      42.498 -10.421   5.322  1.00  0.00     0.011 A 
HETATM    4  C   UNL     1      43.312 -11.493   4.937  1.00  0.00    -0.040 A 
HETATM    5  C   UNL     1      44.123 -12.101   5.901  1.00  0.00     0.011 A 
HETATM    6  C   UNL     1      44.064 -11.688   7.236  1.00  0.00     0.030 A 
ENDROOT
BRANCH   4   7
HETATM    7  C   UNL     1      43.275 -12.002   3.524  1.00  0.00     0.162 C 
BRANCH   7   8
HETATM    8  N   UNL     1      42.128 -12.833   3.250  1.00  0.00    -0.339 N 
HETATM    9  C   UNL     1      42.043 -14.199   3.280  1.00  0.00     0.321 C 
HETATM   10  N   UNL     1      43.210 -14.843   3.598  1.00  0.00    -0.306 N 
HETATM   11  O   UNL     1      40.963 -14.709   3.012  1.00  0.00    -0.247 OA
HETATM   12  H   UNL     1      44.038 -14.274   3.559  1.00  0.00     0.171 HD
HETATM   13  H   UNL     1      41.246 -12.387   3.030  1.00  0.00     0.164 HD
BRANCH  10  14
HETATM   14  C   UNL     1      43.439 -16.217   3.834  1.00  0.00     0.075 A 
HETATM   15  C   UNL     1      43.467 -17.234   2.871  1.00  0.00     0.144 A 
HETATM   16  F   UNL     1      43.230 -17.001   1.576  1.00  0.00    -0.204 F 
HETATM   17  C   UNL     1      43.700 -18.564   3.231  1.00  0.00     0.063 A 
HETATM   18  C   UNL     1      43.893 -18.896   4.568  1.00  0.00     0.014 A 
HETATM   19 BR   UNL     1      44.198 -20.694   5.059  1.00  0.00    -0.051 Br
HETATM   20  C   UNL     1      43.850 -17.909   5.547  1.00  0.00     0.021 A 
HETATM   21  C   UNL     1      43.624 -16.579   5.180  1.00  0.00     0.034 A 
ENDBRANCH  10  14
ENDBRANCH   7   8
ENDBRANCH   4   7
BRANCH   1  22
HETATM   22  N   UNL     1      43.112 -10.385   9.009  1.00  0.00    -0.321 N 
HETATM   23  C   UNL     1      43.648  -9.309   9.697  1.00  0.00     0.279 C 
HETATM   24  O   UNL     1      44.392  -8.458   9.223  1.00  0.00    -0.265 OA
HETATM   25  H   UNL     1      42.513 -10.984   9.567  1.00  0.00     0.169 HD
BRANCH  23  26
HETATM   26  C   UNL     1      43.204  -9.254  11.080  1.00  0.00     0.142 A 
HETATM   27  O   UNL     1      42.262 -10.148  11.525  1.00  0.00    -0.317 OA
HETATM   28  C   UNL     1      42.019  -9.854  12.829  1.00  0.00     0.143 A 
HETATM   29  C   UNL     1      42.782  -8.787  13.235  1.00  0.00     0.027 A 
HETATM   30  C   UNL     1      43.550  -8.402  12.110  1.00  0.00     0.045 A 
ENDBRANCH  23  26
ENDBRANCH   1  22
TORSDOF 5
ENDMDL
MODEL 2
REMARK VINA RESULT:      -8.4      4.500     10.155
REMARK  5 active torsions:
REMARK  status: ('A' for Active; 'I' for Inactive)
REMARK    1  A    between atoms: C_4  and  C_5 
REMARK       I    between atoms: C_5  and  N_6 
REMARK    2  A    between atoms: N_6  and  C_7 
REMARK    3  A    between atoms: C_10  and  C_11 
REMARK    4  A    between atoms: C_11  and  N_12 
REMARK       I    between atoms: N_12  and  C_13 
REMARK       I    between atoms: C_13  and  N_14 
REMARK    5  A    between atoms: N_14  and  C_15 
ROOT
HETATM    1  C   UNL     1      43.030 -15.145   4.643  1.00  0.00     0.035 A 
HETATM    2  C   UNL     1      42.795 -13.944   3.974  1.00  0.00     0.030 A 
HETATM    3  C   UNL     1      42.776 -12.734   4.674  1.00  0.00     0.011 A 
HETATM    4  C   UNL     1      43.004 -12.702   6.055  1.00  0.00    -0.040 A 
HETATM    5  C   UNL     1      43.173 -13.912   6.736  1.00  0.00     0.011 A 
HETATM    6  C   UNL     1      43.185 -15.122   6.033  1.00  0.00     0.030 A 
ENDROOT
BRANCH   4   7
HETATM    7  C   UNL     1      43.107 -11.388   6.776  1.00  0.00     0.162 C 
BRANCH   7   8
HETATM    8  N   UNL     1      44.275 -11.291   7.617  1.00  0.00    -0.339 N 
HETATM    9  C   UNL     1      44.398 -10.664   8.827  1.00  0.00     0.321 C 
HETATM   10  N   UNL     1      43.263 -10.043   9.274  1.00  0.00    -0.306 N 
HETATM   11  O   UNL     1      45.490 -10.704   9.380  1.00  0.00    -0.247 OA
HETATM   12  H   UNL     1      42.540  -9.922   8.585  1.00  0.00     0.171 HD
HETATM   13  H   UNL     1      45.125 -11.756   7.323  1.00  0.00     0.164 HD
BRANCH  10  14
HETATM   14  C   UNL     1      43.012  -9.420  10.518  1.00  0.00     0.075 A 
HETATM   15  C   UNL     1      43.036  -8.043  10.779  1.00  0.00     0.144 A 
HETATM   16  F   UNL     1      43.351  -7.141   9.843  1.00  0.00    -0.204 F 
HETATM   17  C   UNL     1      42.775  -7.547  12.059  1.00  0.00     0.063 A 
HETATM   18  C   UNL     1      42.502  -8.426  13.101  1.00  0.00     0.014 A 
HETATM   19 BR   UNL     1      42.159  -7.759  14.834  1.00  0.00    -0.051 Br
HETATM   20  C   UNL     1      42.492  -9.798  12.874  1.00  0.00     0.021 A 
HETATM   21  C   UNL     1      42.746 -10.289  11.590  1.00  0.00     0.034 A 
ENDBRANCH  10  14
ENDBRANCH   7   8
ENDBRANCH   4   7
BRANCH   1  22
HETATM   22  N   UNL     1      43.169 -16.389   3.999  1.00  0.00    -0.321 N 
HETATM   23  C   UNL     1      43.975 -17.455   4.364  1.00  0.00     0.279 C 
HETATM   24  O   UNL     1      44.800 -17.447   5.271  1.00  0.00    -0.265 OA
HETATM   25  H   UNL     1      42.542 -16.582   3.225  1.00  0.00     0.169 HD
BRANCH  23  26
HETATM   26  C   UNL     1      43.722 -18.644   3.568  1.00  0.00     0.142 A 
HETATM   27  O   UNL     1      44.112 -19.872   4.041  1.00  0.00    -0.317 OA
HETATM   28  C   UNL     1      43.780 -20.788   3.094  1.00  0.00     0.143 A 
HETATM   29  C   UNL     1      43.185 -20.176   2.017  1.00  0.00     0.027 A 
HETATM   30  C   UNL     1      43.142 -18.795   2.323  1.00  0.00     0.045 A 
ENDBRANCH  23  26
ENDBRANCH   1  22
TORSDOF 5
ENDMDL
MODEL 3
REMARK VINA RESULT:      -8.4      4.182      8.284
REMARK  5 active torsions:
REMARK  status: ('A' for Active; 'I' for Inactive)
REMARK    1  A    between atoms: C_4  and  C_5 
REMARK       I    between atoms: C_5  and  N_6 
REMARK    2  A    between atoms: N_6  and  C_7 
REMARK    3  A    between atoms: C_10  and  C_11 
REMARK    4  A    between atoms: C_11  and  N_12 
REMARK       I    between atoms: N_12  and  C_13 
REMARK       I    between atoms: C_13  and  N_14 
REMARK    5  A    between atoms: N_14  and  C_15 
ROOT
HETATM    1  C   UNL     1      40.676 -12.703   1.827  1.00  0.00     0.035 A 
HETATM    2  C   UNL     1      42.040 -12.491   2.028  1.00  0.00     0.030 A 
HETATM    3  C   UNL     1      42.557 -12.370   3.321  1.00  0.00     0.011 A 
HETATM    4  C   UNL     1      41.719 -12.470   4.439  1.00  0.00    -0.040 A 
HETATM    5  C   UNL     1      40.343 -12.615   4.236  1.00  0.00     0.011 A 
HETATM    6  C   UNL     1      39.828 -12.730   2.940  1.00  0.00     0.030 A 
ENDROOT
BRANCH   4   7
HETATM    7  C   UNL     1      42.301 -12.465   5.824  1.00  0.00     0.162 C 
BRANCH   7   8
HETATM    8  N   UNL     1      41.949 -13.634   6.592  1.00  0.00    -0.339 N 
HETATM    9  C   UNL     1      42.073 -14.950   6.238  1.00  0.00     0.321 C 
HETATM   10  N   UNL     1      42.585 -15.165   4.986  1.00  0.00    -0.306 N 
HETATM   11  O   UNL     1      41.712 -15.794   7.047  1.00  0.00    -0.247 OA
HETATM   12  H   UNL     1      42.607 -14.358   4.387  1.00  0.00     0.171 HD
HETATM   13  H   UNL     1      41.585 -13.509   7.529  1.00  0.00     0.164 HD
BRANCH  10  14
HETATM   14  C   UNL     1      42.954 -16.381   4.365  1.00  0.00     0.075 A 
HETATM   15  C   UNL     1      43.939 -17.275   4.805  1.00  0.00     0.144 A 
HETATM   16  F   UNL     1      44.690 -17.038   5.886  1.00  0.00    -0.204 F 
HETATM   17  C   UNL     1      44.217 -18.447   4.098  1.00  0.00     0.063 A 
HETATM   18  C   UNL     1      43.521 -18.733   2.929  1.00  0.00     0.014 A 
HETATM   19 BR   UNL     1      43.902 -20.312   1.965  1.00  0.00    -0.051 Br
HETATM   20  C   UNL     1      42.553 -17.853   2.458  1.00  0.00     0.021 A 
HETATM   21  C   UNL     1      42.273 -16.684   3.174  1.00  0.00     0.034 A 
ENDBRANCH  10  14
ENDBRANCH   7   8
ENDBRANCH   4   7
BRANCH   1  22
HETATM   22  N   UNL     1      40.095 -12.940   0.567  1.00  0.00    -0.321 N 
HETATM   23  C   UNL     1      39.936 -14.151  -0.087  1.00  0.00     0.279 C 
HETATM   24  O   UNL     1      40.385 -15.228   0.289  1.00  0.00    -0.265 OA
HETATM   25  H   UNL     1      39.648 -12.153   0.109  1.00  0.00     0.169 HD
BRANCH  23  26
HETATM   26  C   UNL     1      39.128 -14.034  -1.288  1.00  0.00     0.142 A 
HETATM   27  O   UNL     1      38.233 -12.999  -1.405  1.00  0.00    -0.317 OA
HETATM   28  C   UNL     1      37.604 -13.149  -2.600  1.00  0.00     0.143 A 
HETATM   29  C   UNL     1      38.071 -14.262  -3.256  1.00  0.00     0.027 A 
HETATM   30  C   UNL     1      39.057 -14.830  -2.415  1.00  0.00     0.045 A 
ENDBRANCH  23  26
ENDBRANCH   1  22
TORSDOF 5
ENDMDL
MODEL 4
REMARK VINA RESULT:      -8.0      1.272      1.597
REMARK  5 active torsions:
REMARK  status: ('A' for Active; 'I' for Inactive)
REMARK    1  A    between atoms: C_4  and  C_5 
REMARK       I    between atoms: C_5  and  N_6 
REMARK    2  A    between atoms: N_6  and  C_7 
REMARK    3  A    between atoms: C_10  and  C_11 
REMARK    4  A    between atoms: C_11  and  N_12 
REMARK       I    between atoms: N_12  and  C_13 
REMARK       I    between atoms: C_13  and  N_14 
REMARK    5  A    between atoms: N_14  and  C_15 
ROOT
HETATM    1  C   UNL     1      43.189 -10.969   6.973  1.00  0.00     0.035 A 
HETATM    2  C   UNL     1      42.732 -10.165   5.929  1.00  0.00     0.030 A 
HETATM    3  C   UNL     1      42.717 -10.647   4.616  1.00  0.00     0.011 A 
HETATM    4  C   UNL     1      43.150 -11.947   4.326  1.00  0.00    -0.040 A 
HETATM    5  C   UNL     1      43.670 -12.729   5.363  1.00  0.00     0.011 A 
HETATM    6  C   UNL     1      43.689 -12.241   6.674  1.00  0.00     0.030 A 
ENDROOT
BRANCH   4   7
HETATM    7  C   UNL     1      43.012 -12.498   2.935  1.00  0.00     0.162 C 
BRANCH   7   8
HETATM    8  N   UNL     1      41.907 -13.416   2.795  1.00  0.00    -0.339 N 
HETATM    9  C   UNL     1      41.884 -14.760   3.052  1.00  0.00     0.321 C 
HETATM   10  N   UNL     1      43.073 -15.286   3.483  1.00  0.00    -0.306 N 
HETATM   11  O   UNL     1      40.832 -15.357   2.865  1.00  0.00    -0.247 OA
HETATM   12  H   UNL     1      43.875 -14.694   3.355  1.00  0.00     0.171 HD
HETATM   13  H   UNL     1      41.010 -13.054   2.496  1.00  0.00     0.164 HD
BRANCH  10  14
HETATM   14  C   UNL     1      43.360 -16.590   3.947  1.00  0.00     0.075 A 
HETATM   15  C   UNL     1      43.512 -16.983   5.284  1.00  0.00     0.144 A 
HETATM   16  F   UNL     1      43.437 -16.115   6.299  1.00  0.00    -0.204 F 
HETATM   17  C   UNL     1      43.802 -18.308   5.618  1.00  0.00     0.063 A 
HETATM   18  C   UNL     1      43.958 -19.257   4.614  1.00  0.00     0.014 A 
HETATM   19 BR   UNL     1      44.360 -21.048   5.062  1.00  0.00    -0.051 Br
HETATM   20  C   UNL     1      43.832 -18.891   3.279  1.00  0.00     0.021 A 
HETATM   21  C   UNL     1      43.535 -17.565   2.950  1.00  0.00     0.034 A 
ENDBRANCH  10  14
ENDBRANCH   7   8
ENDBRANCH   4   7
BRANCH   1  22
HETATM   22  N   UNL     1      43.139 -10.598   8.330  1.00  0.00    -0.321 N 
HETATM   23  C   UNL     1      44.188 -10.512   9.231  1.00  0.00     0.279 C 
HETATM   24  O   UNL     1      45.344 -10.857   9.015  1.00  0.00    -0.265 OA
HETATM   25  H   UNL     1      42.251 -10.260   8.684  1.00  0.00     0.169 HD
BRANCH  23  26
HETATM   26  C   UNL     1      43.787  -9.920  10.496  1.00  0.00     0.142 A 
HETATM   27  O   UNL     1      43.206 -10.706  11.460  1.00  0.00    -0.317 OA
HETATM   28  C   UNL     1      42.914  -9.898  12.511  1.00  0.00     0.143 A 
HETATM   29  C   UNL     1      43.291  -8.604  12.247  1.00  0.00     0.027 A 
HETATM   30  C   UNL     1      43.859  -8.617  10.950  1.00  0.00     0.045 A 
ENDBRANCH  23  26
ENDBRANCH   1  22
TORSDOF 5
ENDMDL
MODEL 5
REMARK VINA RESULT:      -7.7      4.686      9.913
REMARK  5 active torsions:
REMARK  status: ('A' for Active; 'I' for Inactive)
REMARK    1  A    between atoms: C_4  and  C_5 
REMARK       I    between atoms: C_5  and  N_6 
REMARK    2  A    between atoms: N_6  and  C_7 
REMARK    3  A    between atoms: C_10  and  C_11 
REMARK    4  A    between atoms: C_11  and  N_12 
REMARK       I    between atoms: N_12  and  C_13 
REMARK       I    between atoms: C_13  and  N_14 
REMARK    5  A    between atoms: N_14  and  C_15 
ROOT
HETATM    1  C   UNL     1      41.595 -12.860   2.845  1.00  0.00     0.035 A 
HETATM    2  C   UNL     1      42.830 -12.237   3.020  1.00  0.00     0.030 A 
HETATM    3  C   UNL     1      43.501 -12.319   4.244  1.00  0.00     0.011 A 
HETATM    4  C   UNL     1      42.951 -13.036   5.314  1.00  0.00    -0.040 A 
HETATM    5  C   UNL     1      41.683 -13.605   5.160  1.00  0.00     0.011 A 
HETATM    6  C   UNL     1      41.012 -13.516   3.935  1.00  0.00     0.030 A 
ENDROOT
BRANCH   4   7
HETATM    7  C   UNL     1      43.736 -13.224   6.581  1.00  0.00     0.162 C 
BRANCH   7   8
HETATM    8  N   UNL     1      44.815 -12.278   6.728  1.00  0.00    -0.339 N 
HETATM    9  C   UNL     1      44.909 -11.230   7.602  1.00  0.00     0.321 C 
HETATM   10  N   UNL     1      43.827 -11.064   8.426  1.00  0.00    -0.306 N 
HETATM   11  O   UNL     1      45.922 -10.544   7.561  1.00  0.00    -0.247 OA
HETATM   12  H   UNL     1      43.003 -11.575   8.159  1.00  0.00     0.171 HD
HETATM   13  H   UNL     1      45.637 -12.385   6.147  1.00  0.00     0.164 HD
BRANCH  10  14
HETATM   14  C   UNL     1      43.653 -10.174   9.509  1.00  0.00     0.075 A 
HETATM   15  C   UNL     1      43.560  -8.778   9.433  1.00  0.00     0.144 A 
HETATM   16  F   UNL     1      43.670  -8.115   8.277  1.00  0.00    -0.204 F 
HETATM   17  C   UNL     1      43.393  -8.002  10.583  1.00  0.00     0.063 A 
HETATM   18  C   UNL     1      43.333  -8.614  11.830  1.00  0.00     0.014 A 
HETATM   19 BR   UNL     1      43.117  -7.567  13.386  1.00  0.00    -0.051 Br
HETATM   20  C   UNL     1      43.443  -9.996  11.936  1.00  0.00     0.021 A 
HETATM   21  C   UNL     1      43.603 -10.769  10.782  1.00  0.00     0.034 A 
ENDBRANCH  10  14
ENDBRANCH   7   8
ENDBRANCH   4   7
BRANCH   1  22
HETATM   22  N   UNL     1      40.907 -12.914   1.618  1.00  0.00    -0.321 N 
HETATM   23  C   UNL     1      40.674 -14.020   0.817  1.00  0.00     0.279 C 
HETATM   24  O   UNL     1      41.133 -15.142   0.999  1.00  0.00    -0.265 OA
HETATM   25  H   UNL     1      40.439 -12.068   1.313  1.00  0.00     0.169 HD
BRANCH  23  26
HETATM   26  C   UNL     1      39.772 -13.730  -0.284  1.00  0.00     0.142 A 
HETATM   27  O   UNL     1      39.000 -12.595  -0.248  1.00  0.00    -0.317 OA
HETATM   28  C   UNL     1      38.244 -12.591  -1.376  1.00  0.00     0.143 A 
HETATM   29  C   UNL     1      38.508 -13.702  -2.140  1.00  0.00     0.027 A 
HETATM   30  C   UNL     1      39.496 -14.435  -1.440  1.00  0.00     0.045 A 
ENDBRANCH  23  26
ENDBRANCH   1  22
TORSDOF 5
ENDMDL
MODEL 6
REMARK VINA RESULT:      -7.6      4.853     10.148
REMARK  5 active torsions:
REMARK  status: ('A' for Active; 'I' for Inactive)
REMARK    1  A    between atoms: C_4  and  C_5 
REMARK       I    between atoms: C_5  and  N_6 
REMARK    2  A    between atoms: N_6  and  C_7 
REMARK    3  A    between atoms: C_10  and  C_11 
REMARK    4  A    between atoms: C_11  and  N_12 
REMARK       I    between atoms: N_12  and  C_13 
REMARK       I    between atoms: C_13  and  N_14 
REMARK    5  A    between atoms: N_14  and  C_15 
ROOT
HETATM    1  C   UNL     1      42.542 -12.706   5.039  1.00  0.00     0.035 A 
HETATM    2  C   UNL     1      42.651 -11.327   5.215  1.00  0.00     0.030 A 
HETATM    3  C   UNL     1      43.433 -10.803   6.249  1.00  0.00     0.011 A 
HETATM    4  C   UNL     1      44.129 -11.650   7.120  1.00  0.00    -0.040 A 
HETATM    5  C   UNL     1      43.966 -13.033   6.985  1.00  0.00     0.011 A 
HETATM    6  C   UNL     1      43.178 -13.554   5.953  1.00  0.00     0.030 A 
ENDROOT
BRANCH   4   7
HETATM    7  C   UNL     1      45.064 -11.078   8.147  1.00  0.00     0.162 C 
BRANCH   7   8
HETATM    8  N   UNL     1      45.290  -9.662   7.984  1.00  0.00    -0.339 N 
HETATM    9  C   UNL     1      44.775  -8.631   8.722  1.00  0.00     0.321 C 
HETATM   10  N   UNL     1      43.928  -9.009   9.730  1.00  0.00    -0.306 N 
HETATM   11  O   UNL     1      45.099  -7.492   8.413  1.00  0.00    -0.247 OA
HETATM   12  H   UNL     1      43.604  -9.960   9.684  1.00  0.00     0.171 HD
HETATM   13  H   UNL     1      45.926  -9.352   7.260  1.00  0.00     0.164 HD
BRANCH  10  14
HETATM   14  C   UNL     1      43.330  -8.222  10.740  1.00  0.00     0.075 A 
HETATM   15  C   UNL     1      42.477  -7.128  10.548  1.00  0.00     0.144 A 
HETATM   16  F   UNL     1      42.159  -6.672   9.332  1.00  0.00    -0.204 F 
HETATM   17  C   UNL     1      41.951  -6.423  11.634  1.00  0.00     0.063 A 
HETATM   18  C   UNL     1      42.286  -6.797  12.930  1.00  0.00     0.014 A 
HETATM   19 BR   UNL     1      41.584  -5.840  14.400  1.00  0.00    -0.051 Br
HETATM   20  C   UNL     1      43.146  -7.867  13.150  1.00  0.00     0.021 A 
HETATM   21  C   UNL     1      43.664  -8.573  12.060  1.00  0.00     0.034 A 
ENDBRANCH  10  14
ENDBRANCH   7   8
ENDBRANCH   4   7
BRANCH   1  22
HETATM   22  N   UNL     1      41.863 -13.310   3.964  1.00  0.00    -0.321 N 
HETATM   23  C   UNL     1      42.397 -13.795   2.781  1.00  0.00     0.279 C 
HETATM   24  O   UNL     1      43.564 -13.678   2.424  1.00  0.00    -0.265 OA
HETATM   25  H   UNL     1      40.876 -13.507   4.091  1.00  0.00     0.169 HD
BRANCH  23  26
HETATM   26  C   UNL     1      41.420 -14.517   1.984  1.00  0.00     0.142 A 
HETATM   27  O   UNL     1      41.068 -14.038   0.746  1.00  0.00    -0.317 OA
HETATM   28  C   UNL     1      40.131 -14.883   0.243  1.00  0.00     0.143 A 
HETATM   29  C   UNL     1      39.868 -15.897   1.132  1.00  0.00     0.027 A 
HETATM   30  C   UNL     1      40.701 -15.666   2.252  1.00  0.00     0.045 A 
ENDBRANCH  23  26
ENDBRANCH   1  22
TORSDOF 5
ENDMDL
MODEL 7
REMARK VINA RESULT:      -7.6      5.643      8.521
REMARK  5 active torsions:
REMARK  status: ('A' for Active; 'I' for Inactive)
REMARK    1  A    between atoms: C_4  and  C_5 
REMARK       I    between atoms: C_5  and  N_6 
REMARK    2  A    between atoms: N_6  and  C_7 
REMARK    3  A    between atoms: C_10  and  C_11 
REMARK    4  A    between atoms: C_11  and  N_12 
REMARK       I    between atoms: N_12  and  C_13 
REMARK       I    between atoms: C_13  and  N_14 
REMARK    5  A    between atoms: N_14  and  C_15 
ROOT
HETATM    1  C   UNL     1      43.003 -15.252   3.872  1.00  0.00     0.035 A 
HETATM    2  C   UNL     1      42.383 -14.633   4.956  1.00  0.00     0.030 A 
HETATM    3  C   UNL     1      42.030 -13.281   4.897  1.00  0.00     0.011 A 
HETATM    4  C   UNL     1      42.284 -12.526   3.745  1.00  0.00    -0.040 A 
HETATM    5  C   UNL     1      42.965 -13.129   2.683  1.00  0.00     0.011 A 
HETATM    6  C   UNL     1      43.322 -14.480   2.748  1.00  0.00     0.030 A 
ENDROOT
BRANCH   4   7
HETATM    7  C   UNL     1      41.789 -11.111   3.644  1.00  0.00     0.162 C 
BRANCH   7   8
HETATM    8  N   UNL     1      40.353 -11.017   3.544  1.00  0.00    -0.339 N 
HETATM    9  C   UNL     1      39.551 -11.378   2.495  1.00  0.00     0.321 C 
HETATM   10  N   UNL     1      40.214 -11.877   1.405  1.00  0.00    -0.306 N 
HETATM   11  O   UNL     1      38.344 -11.214   2.618  1.00  0.00    -0.247 OA
HETATM   12  H   UNL     1      41.208 -11.722   1.400  1.00  0.00     0.171 HD
HETATM   13  H   UNL     1      39.832 -10.670   4.339  1.00  0.00     0.164 HD
BRANCH  10  14
HETATM   14  C   UNL     1      39.693 -12.449   0.223  1.00  0.00     0.075 A 
HETATM   15  C   UNL     1      38.896 -11.804  -0.733  1.00  0.00     0.144 A 
HETATM   16  F   UNL     1      38.500 -10.535  -0.596  1.00  0.00    -0.204 F 
HETATM   17  C   UNL     1      38.435 -12.482  -1.864  1.00  0.00     0.063 A 
HETATM   18  C   UNL     1      38.753 -13.823  -2.046  1.00  0.00     0.014 A 
HETATM   19 BR   UNL     1      38.123 -14.745  -3.569  1.00  0.00    -0.051 Br
HETATM   20  C   UNL     1      39.525 -14.493  -1.103  1.00  0.00     0.021 A 
HETATM   21  C   UNL     1      39.990 -13.808   0.024  1.00  0.00     0.034 A 
ENDBRANCH  10  14
ENDBRANCH   7   8
ENDBRANCH   4   7
BRANCH   1  22
HETATM   22  N   UNL     1      43.293 -16.628   3.812  1.00  0.00    -0.321 N 
HETATM   23  C   UNL     1      44.085 -17.372   4.672  1.00  0.00     0.279 C 
HETATM   24  O   UNL     1      44.764 -16.921   5.587  1.00  0.00    -0.265 OA
HETATM   25  H   UNL     1      42.798 -17.175   3.116  1.00  0.00     0.169 HD
BRANCH  23  26
HETATM   26  C   UNL     1      44.007 -18.799   4.405  1.00  0.00     0.142 A 
HETATM   27  O   UNL     1      43.808 -19.239   3.120  1.00  0.00    -0.317 OA
HETATM   28  C   UNL     1      43.751 -20.595   3.168  1.00  0.00     0.143 A 
HETATM   29  C   UNL     1      43.906 -21.041   4.458  1.00  0.00     0.027 A 
HETATM   30  C   UNL     1      44.077 -19.885   5.256  1.00  0.00     0.045 A 
ENDBRANCH  23  26
ENDBRANCH   1  22
TORSDOF 5
ENDMDL
MODEL 8
REMARK VINA RESULT:      -7.6      3.914      5.236
REMARK  5 active torsions:
REMARK  status: ('A' for Active; 'I' for Inactive)
REMARK    1  A    between atoms: C_4  and  C_5 
REMARK       I    between atoms: C_5  and  N_6 
REMARK    2  A    between atoms: N_6  and  C_7 
REMARK    3  A    between atoms: C_10  and  C_11 
REMARK    4  A    between atoms: C_11  and  N_12 
REMARK       I    between atoms: N_12  and  C_13 
REMARK       I    between atoms: C_13  and  N_14 
REMARK    5  A    between atoms: N_14  and  C_15 
ROOT
HETATM    1  C   UNL     1      43.445 -12.795   6.611  1.00  0.00     0.035 A 
HETATM    2  C   UNL     1      43.278 -12.329   5.308  1.00  0.00     0.030 A 
HETATM    3  C   UNL     1      43.120 -13.227   4.247  1.00  0.00     0.011 A 
HETATM    4  C   UNL     1      43.116 -14.608   4.474  1.00  0.00    -0.040 A 
HETATM    5  C   UNL     1      43.350 -15.077   5.771  1.00  0.00     0.011 A 
HETATM    6  C   UNL     1      43.514 -14.176   6.829  1.00  0.00     0.030 A 
ENDROOT
BRANCH   4   7
HETATM    7  C   UNL     1      42.819 -15.560   3.350  1.00  0.00     0.162 C 
BRANCH   7   8
HETATM    8  N   UNL     1      41.412 -15.837   3.196  1.00  0.00    -0.339 N 
HETATM    9  C   UNL     1      40.525 -15.266   2.324  1.00  0.00     0.321 C 
HETATM   10  N   UNL     1      41.056 -14.299   1.512  1.00  0.00    -0.306 N 
HETATM   11  O   UNL     1      39.364 -15.652   2.358  1.00  0.00    -0.247 OA
HETATM   12  H   UNL     1      41.962 -13.959   1.785  1.00  0.00     0.171 HD
HETATM   13  H   UNL     1      40.994 -16.560   3.769  1.00  0.00     0.164 HD
BRANCH  10  14
HETATM   14  C   UNL     1      40.459 -13.608   0.433  1.00  0.00     0.075 A 
HETATM   15  C   UNL     1      39.678 -14.170  -0.585  1.00  0.00     0.144 A 
HETATM   16  F   UNL     1      39.441 -15.484  -0.664  1.00  0.00    -0.204 F 
HETATM   17  C   UNL     1      39.145 -13.379  -1.606  1.00  0.00     0.063 A 
HETATM   18  C   UNL     1      39.400 -12.012  -1.628  1.00  0.00     0.014 A 
HETATM   19 BR   UNL     1      38.688 -10.941  -3.012  1.00  0.00    -0.051 Br
HETATM   20  C   UNL     1      40.188 -11.431  -0.641  1.00  0.00     0.021 A 
HETATM   21  C   UNL     1      40.713 -12.226   0.382  1.00  0.00     0.034 A 
ENDBRANCH  10  14
ENDBRANCH   7   8
ENDBRANCH   4   7
BRANCH   1  22
HETATM   22  N   UNL     1      43.505 -11.960   7.743  1.00  0.00    -0.321 N 
HETATM   23  C   UNL     1      44.552 -11.150   8.152  1.00  0.00     0.279 C 
HETATM   24  O   UNL     1      45.665 -11.110   7.640  1.00  0.00    -0.265 OA
HETATM   25  H   UNL     1      42.655 -11.854   8.285  1.00  0.00     0.169 HD
BRANCH  23  26
HETATM   26  C   UNL     1      44.189 -10.291   9.266  1.00  0.00     0.142 A 
HETATM   27  O   UNL     1      43.049  -9.530   9.192  1.00  0.00    -0.317 OA
HETATM   28  C   UNL     1      42.971  -8.814  10.344  1.00  0.00     0.143 A 
HETATM   29  C   UNL     1      44.040  -9.096  11.161  1.00  0.00     0.027 A 
HETATM   30  C   UNL     1      44.823 -10.051  10.471  1.00  0.00     0.045 A 
ENDBRANCH  23  26
ENDBRANCH   1  22
TORSDOF 5
ENDMDL
MODEL 9
REMARK VINA RESULT:      -7.5     17.478     21.361
REMARK  5 active torsions:
REMARK  status: ('A' for Active; 'I' for Inactive)
REMARK    1  A    between atoms: C_4  and  C_5 
REMARK       I    between atoms: C_5  and  N_6 
REMARK    2  A    between atoms: N_6  and  C_7 
REMARK    3  A    between atoms: C_10  and  C_11 
REMARK    4  A    between atoms: C_11  and  N_12 
REMARK       I    between atoms: N_12  and  C_13 
REMARK       I    between atoms: C_13  and  N_14 
REMARK    5  A    between atoms: N_14  and  C_15 
ROOT
HETATM    1  C   UNL     1      45.444 -29.932  -4.352  1.00  0.00     0.035 A 
HETATM    2  C   UNL     1      44.918 -28.686  -4.015  1.00  0.00     0.030 A 
HETATM    3  C   UNL     1      45.378 -28.001  -2.887  1.00  0.00     0.011 A 
HETATM    4  C   UNL     1      46.384 -28.548  -2.080  1.00  0.00    -0.040 A 
HETATM    5  C   UNL     1      46.865 -29.826  -2.380  1.00  0.00     0.011 A 
HETATM    6  C   UNL     1      46.397 -30.511  -3.506  1.00  0.00     0.030 A 
ENDROOT
BRANCH   4   7
HETATM    7  C   UNL     1      46.961 -27.750  -0.945  1.00  0.00     0.162 C 
BRANCH   7   8
HETATM    8  N   UNL     1      46.273 -27.963   0.306  1.00  0.00    -0.339 N 
HETATM    9  C   UNL     1      46.712 -28.640   1.410  1.00  0.00     0.321 C 
HETATM   10  N   UNL     1      47.960 -29.194   1.290  1.00  0.00    -0.306 N 
HETATM   11  O   UNL     1      45.963 -28.701   2.377  1.00  0.00    -0.247 OA
HETATM   12  H   UNL     1      48.322 -29.236   0.353  1.00  0.00     0.171 HD
HETATM   13  H   UNL     1      45.357 -27.550   0.432  1.00  0.00     0.164 HD
BRANCH  10  14
HETATM   14  C   UNL     1      48.751 -29.841   2.266  1.00  0.00     0.075 A 
HETATM   15  C   UNL     1      49.232 -29.278   3.455  1.00  0.00     0.144 A 
HETATM   16  F   UNL     1      49.014 -28.000   3.783  1.00  0.00    -0.204 F 
HETATM   17  C   UNL     1      50.013 -30.023   4.343  1.00  0.00     0.063 A 
HETATM   18  C   UNL     1      50.336 -31.342   4.042  1.00  0.00     0.014 A 
HETATM   19 BR   UNL     1      51.401 -32.349   5.234  1.00  0.00    -0.051 Br
HETATM   20  C   UNL     1      49.889 -31.920   2.859  1.00  0.00     0.021 A 
HETATM   21  C   UNL     1      49.101 -31.172   1.978  1.00  0.00     0.034 A 
ENDBRANCH  10  14
ENDBRANCH   7   8
ENDBRANCH   4   7
BRANCH   1  22
HETATM   22  N   UNL     1      45.111 -30.636  -5.525  1.00  0.00    -0.321 N 
HETATM   23  C   UNL     1      44.353 -31.790  -5.643  1.00  0.00     0.279 C 
HETATM   24  O   UNL     1      43.927 -32.462  -4.710  1.00  0.00    -0.265 OA
HETATM   25  H   UNL     1      45.370 -30.211  -6.409  1.00  0.00     0.169 HD
BRANCH  23  26
HETATM   26  C   UNL     1      44.064 -32.128  -7.026  1.00  0.00     0.142 A 
HETATM   27  O   UNL     1      43.459 -33.325  -7.320  1.00  0.00    -0.317 OA
HETATM   28  C   UNL     1      43.336 -33.388  -8.671  1.00  0.00     0.143 A 
HETATM   29  C   UNL     1      43.852 -32.258  -9.258  1.00  0.00     0.027 A 
HETATM   30  C   UNL     1      44.317 -31.442  -8.199  1.00  0.00     0.045 A 
ENDBRANCH  23  26
ENDBRANCH   1  22
TORSDOF 5
ENDMDL
MODEL 10
REMARK VINA RESULT:      -7.5      4.720     10.364
REMARK  5 active torsions:
REMARK  status: ('A' for Active; 'I' for Inactive)
REMARK    1  A    between atoms: C_4  and  C_5 
REMARK       I    between atoms: C_5  and  N_6 
REMARK    2  A    between atoms: N_6  and  C_7 
REMARK    3  A    between atoms: C_10  and  C_11 
REMARK    4  A    between atoms: C_11  and  N_12 
REMARK       I    between atoms: N_12  and  C_13 
REMARK       I    between atoms: C_13  and  N_14 
REMARK    5  A    between atoms: N_14  and  C_15 
ROOT
HETATM    1  C   UNL     1      43.806 -11.995   6.058  1.00  0.00     0.035 A 
HETATM    2  C   UNL     1      45.109 -11.919   6.549  1.00  0.00     0.030 A 
HETATM    3  C   UNL     1      45.439 -10.998   7.548  1.00  0.00     0.011 A 
HETATM    4  C   UNL     1      44.468 -10.142   8.081  1.00  0.00    -0.040 A 
HETATM    5  C   UNL     1      43.177 -10.172   7.542  1.00  0.00     0.011 A 
HETATM    6  C   UNL     1      42.852 -11.091   6.539  1.00  0.00     0.030 A 
ENDROOT
BRANCH   4   7
HETATM    7  C   UNL     1      44.802  -9.245   9.239  1.00  0.00     0.162 C 
BRANCH   7   8
HETATM    8  N   UNL     1      43.924  -8.106   9.348  1.00  0.00    -0.339 N 
HETATM    9  C   UNL     1      43.154  -7.728  10.414  1.00  0.00     0.321 C 
HETATM   10  N   UNL     1      43.228  -8.556  11.502  1.00  0.00    -0.306 N 
HETATM   11  O   UNL     1      42.475  -6.716  10.296  1.00  0.00    -0.247 OA
HETATM   12  H   UNL     1      43.653  -9.452  11.332  1.00  0.00     0.171 HD
HETATM   13  H   UNL     1      43.861  -7.464   8.567  1.00  0.00     0.164 HD
BRANCH  10  14
HETATM   14  C   UNL     1      42.669  -8.396  12.791  1.00  0.00     0.075 A 
HETATM   15  C   UNL     1      41.582  -9.104  13.320  1.00  0.00     0.144 A 
HETATM   16  F   UNL     1      40.910 -10.019  12.614  1.00  0.00    -0.204 F 
HETATM   17  C   UNL     1      41.116  -8.850  14.613  1.00  0.00     0.063 A 
HETATM   18  C   UNL     1      41.724  -7.869  15.388  1.00  0.00     0.014 A 
HETATM   19 BR   UNL     1      41.089  -7.515  17.132  1.00  0.00    -0.051 Br
HETATM   20  C   UNL     1      42.791  -7.137  14.880  1.00  0.00     0.021 A 
HETATM   21  C   UNL     1      43.258  -7.400  13.589  1.00  0.00     0.034 A 
ENDBRANCH  10  14
ENDBRANCH   7   8
ENDBRANCH   4   7
BRANCH   1  22
HETATM   22  N   UNL     1      43.370 -12.962   5.133  1.00  0.00    -0.321 N 
HETATM   23  C   UNL     1      43.260 -12.839   3.757  1.00  0.00     0.279 C 
HETATM   24  O   UNL     1      43.427 -11.807   3.117  1.00  0.00    -0.265 OA
HETATM   25  H   UNL     1      43.200 -13.897   5.486  1.00  0.00     0.169 HD
BRANCH  23  26
HETATM   26  C   UNL     1      42.950 -14.102   3.108  1.00  0.00     0.142 A 
HETATM   27  O   UNL     1      42.506 -14.106   1.809  1.00  0.00    -0.317 OA
HETATM   28  C   UNL     1      42.271 -15.401   1.472  1.00  0.00     0.143 A 
HETATM   29  C   UNL     1      42.551 -16.234   2.528  1.00  0.00     0.027 A 
HETATM   30  C   UNL     1      42.993 -15.399   3.582  1.00  0.00     0.045 A 
ENDBRANCH  23  26
ENDBRANCH   1  22
TORSDOF 5
ENDMDL
