MODEL 1
REMARK VINA RESULT:      -9.2      0.000      0.000
REMARK  5 active torsions:
REMARK  status: ('A' for Active; 'I' for Inactive)
REMARK    1  A    between atoms: C_4  and  C_5 
REMARK    2  A    between atoms: C_5  and  S_6 
REMARK    3  A    between atoms: S_6  and  C_7 
REMARK    4  A    between atoms: C_9  and  C_10 
REMARK       I    between atoms: C_10  and  N_11 
REMARK    5  A    between atoms: N_11  and  C_12 
ROOT
HETATM    1  C   UNL     1      43.827 -12.406   6.770  1.00  0.00     0.189 A 
HETATM    2  N   UNL     1      43.721 -11.933   8.020  1.00  0.00    -0.216 NA
HETATM    3  C   UNL     1      44.642 -10.987   8.388  1.00  0.00     0.150 A 
HETATM    4  C   UNL     1      45.607 -10.481   7.535  1.00  0.00     0.086 A 
HETATM    5 CL   UNL     1      46.752  -9.253   7.877  1.00  0.00    -0.080 Cl
HETATM    6  C   UNL     1      45.588 -11.028   6.273  1.00  0.00     0.146 A 
HETATM    7  N   UNL     1      44.726 -11.984   5.872  1.00  0.00    -0.234 NA
ENDROOT
BRANCH   3   8
HETATM    8  C   UNL     1      44.512 -10.546   9.822  1.00  0.00     0.278 C 
HETATM    9  N   UNL     1      43.383  -9.785  10.047  1.00  0.00    -0.300 N 
HETATM   10  H   UNL     1      42.755  -9.602   9.276  1.00  0.00     0.171 HD
HETATM   11  O   UNL     1      45.347 -10.865  10.655  1.00  0.00    -0.265 OA
BRANCH   9  12
HETATM   12  C   UNL     1      43.077  -9.265  11.272  1.00  0.00     0.174 A 
HETATM   13  S   UNL     1      41.760 -10.024  12.043  1.00  0.00    -0.050 SA
HETATM   14  C   UNL     1      41.924  -8.933  13.371  1.00  0.00     0.039 A 
HETATM   15  C   UNL     1      43.001  -8.079  13.119  1.00  0.00     0.077 A 
HETATM   16  C   UNL     1      41.159  -8.839  14.546  1.00  0.00     0.045 A 
HETATM   17  N   UNL     1      43.642  -8.278  11.912  1.00  0.00    -0.223 NA
HETATM   18  C   UNL     1      43.339  -7.107  14.083  1.00  0.00     0.035 A 
HETATM   19  C   UNL     1      42.591  -7.006  15.260  1.00  0.00     0.026 A 
HETATM   20  C   UNL     1      41.515  -7.860  15.479  1.00  0.00     0.035 A 
HETATM   21 CL   UNL     1      40.599  -7.712  16.930  1.00  0.00    -0.084 Cl
ENDBRANCH   9  12
ENDBRANCH   3   8
BRANCH   1  22
HETATM   22  S   UNL     1      42.771 -13.730   6.270  1.00  0.00    -0.086 SA
BRANCH  22  23
HETATM   23  C   UNL     1      42.788 -13.448   4.479  1.00  0.00     0.121 C 
BRANCH  23  24
HETATM   24  C   UNL     1      42.995 -14.738   3.726  1.00  0.00    -0.049 A 
HETATM   25  C   UNL     1      43.063 -14.745   2.324  1.00  0.00     0.008 A 
HETATM   26  C   UNL     1      43.224 -15.945   1.627  1.00  0.00     0.001 A 
HETATM   27  C   UNL     1      43.316 -17.150   2.323  1.00  0.00     0.000 A 
HETATM   28  C   UNL     1      43.246 -17.156   3.714  1.00  0.00     0.001 A 
HETATM   29  C   UNL     1      43.082 -15.959   4.413  1.00  0.00     0.008 A 
ENDBRANCH  23  24
ENDBRANCH  22  23
ENDBRANCH   1  22
TORSDOF 5
ENDMDL
MODEL 2
REMARK VINA RESULT:      -9.1      3.081     10.699
REMARK  5 active torsions:
REMARK  status: ('A' for Active; 'I' for Inactive)
REMARK    1  A    between atoms: C_4  and  C_5 
REMARK    2  A    between atoms: C_5  and  S_6 
REMARK    3  A    between atoms: S_6  and  C_7 
REMARK    4  A    between atoms: C_9  and  C_10 
REMARK       I    between atoms: C_10  and  N_11 
REMARK    5  A    between atoms: N_11  and  C_12 
ROOT
HETATM    1  C   UNL     1      43.592 -10.061   9.586  1.00  0.00     0.189 A 
HETATM    2  N   UNL     1      44.015 -11.084   8.829  1.00  0.00    -0.216 NA
HETATM    3  C   UNL     1      43.541 -11.119   7.544  1.00  0.00     0.150 A 
HETATM    4  C   UNL     1      42.717 -10.149   7.001  1.00  0.00     0.086 A 
HETATM    5 CL   UNL     1      42.131 -10.066   5.392  1.00  0.00    -0.080 Cl
HETATM    6  C   UNL     1      42.382  -9.139   7.873  1.00  0.00     0.146 A 
HETATM    7  N   UNL     1      42.793  -9.076   9.156  1.00  0.00    -0.234 NA
ENDROOT
BRANCH   3   8
HETATM    8  C   UNL     1      43.998 -12.325   6.766  1.00  0.00     0.278 C 
HETATM    9  N   UNL     1      43.002 -13.268   6.608  1.00  0.00    -0.300 N 
HETATM   10  H   UNL     1      42.086 -13.080   6.994  1.00  0.00     0.171 HD
HETATM   11  O   UNL     1      45.140 -12.402   6.340  1.00  0.00    -0.265 OA
BRANCH   9  12
HETATM   12  C   UNL     1      43.201 -14.447   5.950  1.00  0.00     0.174 A 
HETATM   13  S   UNL     1      42.512 -14.504   4.393  1.00  0.00    -0.050 SA
HETATM   14  C   UNL     1      43.079 -16.124   4.213  1.00  0.00     0.039 A 
HETATM   15  C   UNL     1      43.778 -16.485   5.368  1.00  0.00     0.077 A 
HETATM   16  C   UNL     1      42.921 -17.008   3.132  1.00  0.00     0.045 A 
HETATM   17  N   UNL     1      43.830 -15.518   6.353  1.00  0.00    -0.223 NA
HETATM   18  C   UNL     1      44.354 -17.770   5.442  1.00  0.00     0.035 A 
HETATM   19  C   UNL     1      44.210 -18.659   4.371  1.00  0.00     0.026 A 
HETATM   20  C   UNL     1      43.498 -18.277   3.238  1.00  0.00     0.035 A 
HETATM   21 CL   UNL     1      43.322 -19.391   1.936  1.00  0.00    -0.084 Cl
ENDBRANCH   9  12
ENDBRANCH   3   8
BRANCH   1  22
HETATM   22  S   UNL     1      44.041 -10.026  11.293  1.00  0.00    -0.086 SA
BRANCH  22  23
HETATM   23  C   UNL     1      42.386  -9.884  12.021  1.00  0.00     0.121 C 
BRANCH  23  24
HETATM   24  C   UNL     1      42.380  -8.918  13.179  1.00  0.00    -0.049 A 
HETATM   25  C   UNL     1      41.434  -9.041  14.209  1.00  0.00     0.008 A 
HETATM   26  C   UNL     1      41.411  -8.126  15.264  1.00  0.00     0.001 A 
HETATM   27  C   UNL     1      42.332  -7.080  15.302  1.00  0.00     0.000 A 
HETATM   28  C   UNL     1      43.273  -6.945  14.284  1.00  0.00     0.001 A 
HETATM   29  C   UNL     1      43.296  -7.856  13.226  1.00  0.00     0.008 A 
ENDBRANCH  23  24
ENDBRANCH  22  23
ENDBRANCH   1  22
TORSDOF 5
ENDMDL
MODEL 3
REMARK VINA RESULT:      -9.1      6.232     10.741
REMARK  5 active torsions:
REMARK  status: ('A' for Active; 'I' for Inactive)
REMARK    1  A    between atoms: C_4  and  C_5 
REMARK    2  A    between atoms: C_5  and  S_6 
REMARK    3  A    between atoms: S_6  and  C_7 
REMARK    4  A    between atoms: C_9  and  C_10 
REMARK       I    between atoms: C_10  and  N_11 
REMARK    5  A    between atoms: N_11  and  C_12 
ROOT
HETATM    1  C   UNL     1      43.100 -15.268   6.164  1.00  0.00     0.189 A 
HETATM    2  N   UNL     1      42.363 -15.043   5.066  1.00  0.00    -0.216 NA
HETATM    3  C   UNL     1      42.050 -13.734   4.808  1.00  0.00     0.150 A 
HETATM    4  C   UNL     1      42.491 -12.672   5.577  1.00  0.00     0.086 A 
HETATM    5 CL   UNL     1      42.214 -11.003   5.298  1.00  0.00    -0.080 Cl
HETATM    6  C   UNL     1      43.262 -13.036   6.656  1.00  0.00     0.146 A 
HETATM    7  N   UNL     1      43.572 -14.311   6.973  1.00  0.00    -0.234 NA
ENDROOT
BRANCH   3   8
HETATM    8  C   UNL     1      41.166 -13.553   3.602  1.00  0.00     0.278 C 
HETATM    9  N   UNL     1      41.780 -13.939   2.428  1.00  0.00    -0.300 N 
HETATM   10  H   UNL     1      42.721 -14.308   2.466  1.00  0.00     0.171 HD
HETATM   11  O   UNL     1      40.032 -13.113   3.714  1.00  0.00    -0.265 OA
BRANCH   9  12
HETATM   12  C   UNL     1      41.168 -13.845   1.211  1.00  0.00     0.174 A 
HETATM   13  S   UNL     1      40.252 -15.216   0.781  1.00  0.00    -0.050 SA
HETATM   14  C   UNL     1      39.853 -14.465  -0.721  1.00  0.00     0.039 A 
HETATM   15  C   UNL     1      40.445 -13.200  -0.760  1.00  0.00     0.077 A 
HETATM   16  C   UNL     1      39.074 -14.955  -1.782  1.00  0.00     0.045 A 
HETATM   17  N   UNL     1      41.199 -12.866   0.347  1.00  0.00    -0.223 NA
HETATM   18  C   UNL     1      40.239 -12.386  -1.894  1.00  0.00     0.035 A 
HETATM   19  C   UNL     1      39.462 -12.859  -2.956  1.00  0.00     0.026 A 
HETATM   20  C   UNL     1      38.894 -14.128  -2.896  1.00  0.00     0.035 A 
HETATM   21 CL   UNL     1      37.949 -14.695  -4.219  1.00  0.00    -0.084 Cl
ENDBRANCH   9  12
ENDBRANCH   3   8
BRANCH   1  22
HETATM   22  S   UNL     1      43.420 -16.937   6.644  1.00  0.00    -0.086 SA
BRANCH  22  23
HETATM   23  C   UNL     1      44.697 -17.345   5.422  1.00  0.00     0.121 C 
BRANCH  23  24
HETATM   24  C   UNL     1      44.187 -18.344   4.414  1.00  0.00    -0.049 A 
HETATM   25  C   UNL     1      44.332 -19.722   4.635  1.00  0.00     0.008 A 
HETATM   26  C   UNL     1      43.888 -20.644   3.685  1.00  0.00     0.001 A 
HETATM   27  C   UNL     1      43.295 -20.200   2.504  1.00  0.00     0.000 A 
HETATM   28  C   UNL     1      43.149 -18.835   2.271  1.00  0.00     0.001 A 
HETATM   29  C   UNL     1      43.596 -17.910   3.217  1.00  0.00     0.008 A 
ENDBRANCH  23  24
ENDBRANCH  22  23
ENDBRANCH   1  22
TORSDOF 5
ENDMDL
MODEL 4
REMARK VINA RESULT:      -8.6      3.346      5.268
REMARK  5 active torsions:
REMARK  status: ('A' for Active; 'I' for Inactive)
REMARK    1  A    between atoms: C_4  and  C_5 
REMARK    2  A    between atoms: C_5  and  S_6 
REMARK    3  A    between atoms: S_6  and  C_7 
REMARK    4  A    between atoms: C_9  and  C_10 
REMARK       I    between atoms: C_10  and  N_11 
REMARK    5  A    between atoms: N_11  and  C_12 
ROOT
HETATM    1  C   UNL     1      42.237 -14.366   2.144  1.00  0.00     0.189 A 
HETATM    2  N   UNL     1      42.291 -14.003   3.434  1.00  0.00    -0.216 NA
HETATM    3  C   UNL     1      41.859 -12.736   3.723  1.00  0.00     0.150 A 
HETATM    4  C   UNL     1      41.340 -11.866   2.780  1.00  0.00     0.086 A 
HETATM    5 CL   UNL     1      40.711 -10.295   3.052  1.00  0.00    -0.080 Cl
HETATM    6  C   UNL     1      41.312 -12.371   1.501  1.00  0.00     0.146 A 
HETATM    7  N   UNL     1      41.756 -13.598   1.158  1.00  0.00    -0.234 NA
ENDROOT
BRANCH   3   8
HETATM    8  C   UNL     1      42.007 -12.365   5.176  1.00  0.00     0.278 C 
HETATM    9  N   UNL     1      42.942 -11.371   5.381  1.00  0.00    -0.300 N 
HETATM   10  H   UNL     1      43.421 -10.978   4.581  1.00  0.00     0.171 HD
HETATM   11  O   UNL     1      41.339 -12.917   6.036  1.00  0.00    -0.265 OA
BRANCH   9  12
HETATM   12  C   UNL     1      43.250 -10.893   6.622  1.00  0.00     0.174 A 
HETATM   13  S   UNL     1      42.017  -9.958   7.336  1.00  0.00    -0.050 SA
HETATM   14  C   UNL     1      43.025  -9.701   8.713  1.00  0.00     0.039 A 
HETATM   15  C   UNL     1      44.231 -10.380   8.519  1.00  0.00     0.077 A 
HETATM   16  C   UNL     1      42.769  -8.959   9.878  1.00  0.00     0.045 A 
HETATM   17  N   UNL     1      44.345 -11.048   7.316  1.00  0.00    -0.223 NA
HETATM   18  C   UNL     1      45.212 -10.330   9.531  1.00  0.00     0.035 A 
HETATM   19  C   UNL     1      44.969  -9.599  10.698  1.00  0.00     0.026 A 
HETATM   20  C   UNL     1      43.764  -8.922  10.860  1.00  0.00     0.035 A 
HETATM   21 CL   UNL     1      43.489  -8.018  12.301  1.00  0.00    -0.084 Cl
ENDBRANCH   9  12
ENDBRANCH   3   8
BRANCH   1  22
HETATM   22  S   UNL     1      42.911 -15.928   1.672  1.00  0.00    -0.086 SA
BRANCH  22  23
HETATM   23  C   UNL     1      43.385 -16.541   3.311  1.00  0.00     0.121 C 
BRANCH  23  24
HETATM   24  C   UNL     1      43.512 -18.044   3.316  1.00  0.00    -0.049 A 
HETATM   25  C   UNL     1      44.023 -18.716   4.437  1.00  0.00     0.008 A 
HETATM   26  C   UNL     1      44.169 -20.105   4.427  1.00  0.00     0.001 A 
HETATM   27  C   UNL     1      43.807 -20.837   3.296  1.00  0.00     0.000 A 
HETATM   28  C   UNL     1      43.303 -20.181   2.175  1.00  0.00     0.001 A 
HETATM   29  C   UNL     1      43.159 -18.792   2.181  1.00  0.00     0.008 A 
ENDBRANCH  23  24
ENDBRANCH  22  23
ENDBRANCH   1  22
TORSDOF 5
ENDMDL
MODEL 5
REMARK VINA RESULT:      -8.3      4.672     10.309
REMARK  5 active torsions:
REMARK  status: ('A' for Active; 'I' for Inactive)
REMARK    1  A    between atoms: C_4  and  C_5 
REMARK    2  A    between atoms: C_5  and  S_6 
REMARK    3  A    between atoms: S_6  and  C_7 
REMARK    4  A    between atoms: C_9  and  C_10 
REMARK       I    between atoms: C_10  and  N_11 
REMARK    5  A    between atoms: N_11  and  C_12 
ROOT
HETATM    1  C   UNL     1      41.110  -9.803   6.688  1.00  0.00     0.189 A 
HETATM    2  N   UNL     1      41.201 -11.112   6.407  1.00  0.00    -0.216 NA
HETATM    3  C   UNL     1      41.506 -11.430   5.110  1.00  0.00     0.150 A 
HETATM    4  C   UNL     1      41.764 -10.490   4.127  1.00  0.00     0.086 A 
HETATM    5 CL   UNL     1      42.221 -10.787   2.502  1.00  0.00    -0.080 Cl
HETATM    6  C   UNL     1      41.667  -9.186   4.553  1.00  0.00     0.146 A 
HETATM    7  N   UNL     1      41.338  -8.819   5.810  1.00  0.00    -0.234 NA
ENDROOT
BRANCH   3   8
HETATM    8  C   UNL     1      41.528 -12.912   4.842  1.00  0.00     0.278 C 
HETATM    9  N   UNL     1      42.797 -13.391   4.593  1.00  0.00    -0.300 N 
HETATM   10  H   UNL     1      43.577 -12.747   4.620  1.00  0.00     0.171 HD
HETATM   11  O   UNL     1      40.498 -13.570   4.864  1.00  0.00    -0.265 OA
BRANCH   9  12
HETATM   12  C   UNL     1      43.048 -14.703   4.309  1.00  0.00     0.174 A 
HETATM   13  S   UNL     1      42.753 -15.136   2.688  1.00  0.00    -0.050 SA
HETATM   14  C   UNL     1      43.207 -16.762   3.051  1.00  0.00     0.039 A 
HETATM   15  C   UNL     1      43.573 -16.834   4.398  1.00  0.00     0.077 A 
HETATM   16  C   UNL     1      43.240 -17.886   2.210  1.00  0.00     0.045 A 
HETATM   17  N   UNL     1      43.468 -15.651   5.103  1.00  0.00    -0.223 NA
HETATM   18  C   UNL     1      44.003 -18.071   4.921  1.00  0.00     0.035 A 
HETATM   19  C   UNL     1      44.047 -19.198   4.095  1.00  0.00     0.026 A 
HETATM   20  C   UNL     1      43.664 -19.100   2.760  1.00  0.00     0.035 A 
HETATM   21 CL   UNL     1      43.714 -20.502   1.762  1.00  0.00    -0.084 Cl
ENDBRANCH   9  12
ENDBRANCH   3   8
BRANCH   1  22
HETATM   22  S   UNL     1      40.579  -9.316   8.300  1.00  0.00    -0.086 SA
BRANCH  22  23
HETATM   23  C   UNL     1      41.807  -8.023   8.627  1.00  0.00     0.121 C 
BRANCH  23  24
HETATM   24  C   UNL     1      43.086  -8.610   9.172  1.00  0.00    -0.049 A 
HETATM   25  C   UNL     1      44.300  -8.438   8.489  1.00  0.00     0.008 A 
HETATM   26  C   UNL     1      45.476  -9.009   8.979  1.00  0.00     0.001 A 
HETATM   27  C   UNL     1      45.452  -9.759  10.155  1.00  0.00     0.000 A 
HETATM   28  C   UNL     1      44.252  -9.940  10.839  1.00  0.00     0.001 A 
HETATM   29  C   UNL     1      43.074  -9.373  10.350  1.00  0.00     0.008 A 
ENDBRANCH  23  24
ENDBRANCH  22  23
ENDBRANCH   1  22
TORSDOF 5
ENDMDL
MODEL 6
REMARK VINA RESULT:      -8.3      4.135      6.500
REMARK  5 active torsions:
REMARK  status: ('A' for Active; 'I' for Inactive)
REMARK    1  A    between atoms: C_4  and  C_5 
REMARK    2  A    between atoms: C_5  and  S_6 
REMARK    3  A    between atoms: S_6  and  C_7 
REMARK    4  A    between atoms: C_9  and  C_10 
REMARK       I    between atoms: C_10  and  N_11 
REMARK    5  A    between atoms: N_11  and  C_12 
ROOT
HETATM    1  C   UNL     1      41.350 -16.001   2.661  1.00  0.00     0.189 A 
HETATM    2  N   UNL     1      41.584 -15.111   3.636  1.00  0.00    -0.216 NA
HETATM    3  C   UNL     1      42.571 -15.438   4.528  1.00  0.00     0.150 A 
HETATM    4  C   UNL     1      43.343 -16.582   4.436  1.00  0.00     0.086 A 
HETATM    5 CL   UNL     1      44.641 -17.044   5.455  1.00  0.00    -0.080 Cl
HETATM    6  C   UNL     1      43.022 -17.396   3.374  1.00  0.00     0.146 A 
HETATM    7  N   UNL     1      42.038 -17.137   2.488  1.00  0.00    -0.234 NA
ENDROOT
BRANCH   3   8
HETATM    8  C   UNL     1      42.740 -14.431   5.636  1.00  0.00     0.278 C 
HETATM    9  N   UNL     1      43.307 -13.250   5.202  1.00  0.00    -0.300 N 
HETATM   10  H   UNL     1      43.541 -13.150   4.223  1.00  0.00     0.171 HD
HETATM   11  O   UNL     1      42.387 -14.687   6.777  1.00  0.00    -0.265 OA
BRANCH   9  12
HETATM   12  C   UNL     1      43.566 -12.205   6.042  1.00  0.00     0.174 A 
HETATM   13  S   UNL     1      42.355 -11.007   6.061  1.00  0.00    -0.050 SA
HETATM   14  C   UNL     1      43.290 -10.097   7.193  1.00  0.00     0.039 A 
HETATM   15  C   UNL     1      44.458 -10.807   7.482  1.00  0.00     0.077 A 
HETATM   16  C   UNL     1      43.010  -8.852   7.782  1.00  0.00     0.045 A 
HETATM   17  N   UNL     1      44.603 -12.004   6.809  1.00  0.00    -0.223 NA
HETATM   18  C   UNL     1      45.374 -10.262   8.405  1.00  0.00     0.035 A 
HETATM   19  C   UNL     1      45.107  -9.027   9.004  1.00  0.00     0.026 A 
HETATM   20  C   UNL     1      43.941  -8.336   8.688  1.00  0.00     0.035 A 
HETATM   21 CL   UNL     1      43.636  -6.810   9.427  1.00  0.00    -0.084 Cl
ENDBRANCH   9  12
ENDBRANCH   3   8
BRANCH   1  22
HETATM   22  S   UNL     1      39.998 -15.721   1.561  1.00  0.00    -0.086 SA
BRANCH  22  23
HETATM   23  C   UNL     1      40.179 -13.931   1.336  1.00  0.00     0.121 C 
BRANCH  23  24
HETATM   24  C   UNL     1      40.312 -13.575  -0.124  1.00  0.00    -0.049 A 
HETATM   25  C   UNL     1      40.914 -12.369  -0.515  1.00  0.00     0.008 A 
HETATM   26  C   UNL     1      41.007 -12.028  -1.866  1.00  0.00     0.001 A 
HETATM   27  C   UNL     1      40.498 -12.886  -2.840  1.00  0.00     0.000 A 
HETATM   28  C   UNL     1      39.894 -14.084  -2.464  1.00  0.00     0.001 A 
HETATM   29  C   UNL     1      39.797 -14.426  -1.114  1.00  0.00     0.008 A 
ENDBRANCH  23  24
ENDBRANCH  22  23
ENDBRANCH   1  22
TORSDOF 5
ENDMDL
MODEL 7
REMARK VINA RESULT:      -8.2      4.403      6.568
REMARK  5 active torsions:
REMARK  status: ('A' for Active; 'I' for Inactive)
REMARK    1  A    between atoms: C_4  and  C_5 
REMARK    2  A    between atoms: C_5  and  S_6 
REMARK    3  A    between atoms: S_6  and  C_7 
REMARK    4  A    between atoms: C_9  and  C_10 
REMARK       I    between atoms: C_10  and  N_11 
REMARK    5  A    between atoms: N_11  and  C_12 
ROOT
HETATM    1  C   UNL     1      40.446 -14.090   1.201  1.00  0.00     0.189 A 
HETATM    2  N   UNL     1      40.977 -13.360   2.193  1.00  0.00    -0.216 NA
HETATM    3  C   UNL     1      41.336 -12.077   1.872  1.00  0.00     0.150 A 
HETATM    4  C   UNL     1      41.132 -11.510   0.627  1.00  0.00     0.086 A 
HETATM    5 CL   UNL     1      41.479  -9.901   0.150  1.00  0.00    -0.080 Cl
HETATM    6  C   UNL     1      40.553 -12.355  -0.291  1.00  0.00     0.146 A 
HETATM    7  N   UNL     1      40.211 -13.636  -0.036  1.00  0.00    -0.234 NA
ENDROOT
BRANCH   3   8
HETATM    8  C   UNL     1      41.987 -11.332   3.008  1.00  0.00     0.278 C 
HETATM    9  N   UNL     1      42.550 -12.173   3.946  1.00  0.00    -0.300 N 
HETATM   10  H   UNL     1      42.498 -13.173   3.800  1.00  0.00     0.171 HD
HETATM   11  O   UNL     1      41.990 -10.111   3.038  1.00  0.00    -0.265 OA
BRANCH   9  12
HETATM   12  C   UNL     1      43.178 -11.713   5.067  1.00  0.00     0.174 A 
HETATM   13  S   UNL     1      42.119 -11.232   6.313  1.00  0.00    -0.050 SA
HETATM   14  C   UNL     1      43.478 -10.786   7.280  1.00  0.00     0.039 A 
HETATM   15  C   UNL     1      44.647 -11.066   6.566  1.00  0.00     0.077 A 
HETATM   16  C   UNL     1      43.510 -10.234   8.571  1.00  0.00     0.045 A 
HETATM   17  N   UNL     1      44.456 -11.586   5.302  1.00  0.00    -0.223 NA
HETATM   18  C   UNL     1      45.893 -10.800   7.170  1.00  0.00     0.035 A 
HETATM   19  C   UNL     1      45.940 -10.255   8.457  1.00  0.00     0.026 A 
HETATM   20  C   UNL     1      44.761  -9.974   9.140  1.00  0.00     0.035 A 
HETATM   21 CL   UNL     1      44.840  -9.293  10.719  1.00  0.00    -0.084 Cl
ENDBRANCH   9  12
ENDBRANCH   3   8
BRANCH   1  22
HETATM   22  S   UNL     1      40.094 -15.795   1.497  1.00  0.00    -0.086 SA
BRANCH  22  23
HETATM   23  C   UNL     1      40.488 -15.866   3.265  1.00  0.00     0.121 C 
BRANCH  23  24
HETATM   24  C   UNL     1      41.752 -16.652   3.512  1.00  0.00    -0.049 A 
HETATM   25  C   UNL     1      42.408 -16.582   4.751  1.00  0.00     0.008 A 
HETATM   26  C   UNL     1      43.595 -17.286   4.966  1.00  0.00     0.001 A 
HETATM   27  C   UNL     1      44.139 -18.065   3.946  1.00  0.00     0.000 A 
HETATM   28  C   UNL     1      43.500 -18.139   2.710  1.00  0.00     0.001 A 
HETATM   29  C   UNL     1      42.315 -17.434   2.491  1.00  0.00     0.008 A 
ENDBRANCH  23  24
ENDBRANCH  22  23
ENDBRANCH   1  22
TORSDOF 5
ENDMDL
MODEL 8
REMARK VINA RESULT:      -8.1      3.766     10.374
REMARK  5 active torsions:
REMARK  status: ('A' for Active; 'I' for Inactive)
REMARK    1  A    between atoms: C_4  and  C_5 
REMARK    2  A    between atoms: C_5  and  S_6 
REMARK    3  A    between atoms: S_6  and  C_7 
REMARK    4  A    between atoms: C_9  and  C_10 
REMARK       I    between atoms: C_10  and  N_11 
REMARK    5  A    between atoms: N_11  and  C_12 
ROOT
HETATM    1  C   UNL     1      41.945  -8.613   8.300  1.00  0.00     0.189 A 
HETATM    2  N   UNL     1      42.257  -9.525   7.367  1.00  0.00    -0.216 NA
HETATM    3  C   UNL     1      41.204 -10.211   6.819  1.00  0.00     0.150 A 
HETATM    4  C   UNL     1      39.880  -9.971   7.139  1.00  0.00     0.086 A 
HETATM    5 CL   UNL     1      38.496 -10.722   6.461  1.00  0.00    -0.080 Cl
HETATM    6  C   UNL     1      39.696  -8.991   8.087  1.00  0.00     0.146 A 
HETATM    7  N   UNL     1      40.698  -8.311   8.681  1.00  0.00    -0.234 NA
ENDROOT
BRANCH   3   8
HETATM    8  C   UNL     1      41.624 -11.266   5.828  1.00  0.00     0.278 C 
HETATM    9  N   UNL     1      41.354 -12.546   6.266  1.00  0.00    -0.300 N 
HETATM   10  H   UNL     1      40.907 -12.672   7.165  1.00  0.00     0.171 HD
HETATM   11  O   UNL     1      42.137 -10.959   4.763  1.00  0.00    -0.265 OA
BRANCH   9  12
HETATM   12  C   UNL     1      41.667 -13.656   5.535  1.00  0.00     0.174 A 
HETATM   13  S   UNL     1      43.101 -14.435   6.024  1.00  0.00    -0.050 SA
HETATM   14  C   UNL     1      42.887 -15.596   4.764  1.00  0.00     0.039 A 
HETATM   15  C   UNL     1      41.707 -15.299   4.077  1.00  0.00     0.077 A 
HETATM   16  C   UNL     1      43.699 -16.687   4.412  1.00  0.00     0.045 A 
HETATM   17  N   UNL     1      41.028 -14.183   4.525  1.00  0.00    -0.223 NA
HETATM   18  C   UNL     1      41.314 -16.131   3.009  1.00  0.00     0.035 A 
HETATM   19  C   UNL     1      42.109 -17.224   2.650  1.00  0.00     0.026 A 
HETATM   20  C   UNL     1      43.285 -17.489   3.344  1.00  0.00     0.035 A 
HETATM   21 CL   UNL     1      44.256 -18.833   2.878  1.00  0.00    -0.084 Cl
ENDBRANCH   9  12
ENDBRANCH   3   8
BRANCH   1  22
HETATM   22  S   UNL     1      43.254  -7.794   9.157  1.00  0.00    -0.086 SA
BRANCH  22  23
HETATM   23  C   UNL     1      43.745  -9.134  10.276  1.00  0.00     0.121 C 
BRANCH  23  24
HETATM   24  C   UNL     1      43.049  -9.014  11.609  1.00  0.00    -0.049 A 
HETATM   25  C   UNL     1      43.435  -8.029  12.531  1.00  0.00     0.008 A 
HETATM   26  C   UNL     1      42.810  -7.940  13.777  1.00  0.00     0.001 A 
HETATM   27  C   UNL     1      41.795  -8.834  14.115  1.00  0.00     0.000 A 
HETATM   28  C   UNL     1      41.406  -9.819  13.210  1.00  0.00     0.001 A 
HETATM   29  C   UNL     1      42.031  -9.912  11.965  1.00  0.00     0.008 A 
ENDBRANCH  23  24
ENDBRANCH  22  23
ENDBRANCH   1  22
TORSDOF 5
ENDMDL
MODEL 9
REMARK VINA RESULT:      -8.0      7.360     10.204
REMARK  5 active torsions:
REMARK  status: ('A' for Active; 'I' for Inactive)
REMARK    1  A    between atoms: C_4  and  C_5 
REMARK    2  A    between atoms: C_5  and  S_6 
REMARK    3  A    between atoms: S_6  and  C_7 
REMARK    4  A    between atoms: C_9  and  C_10 
REMARK       I    between atoms: C_10  and  N_11 
REMARK    5  A    between atoms: N_11  and  C_12 
ROOT
HETATM    1  C   UNL     1      40.404 -10.344   1.344  1.00  0.00     0.189 A 
HETATM    2  N   UNL     1      41.059 -11.494   1.557  1.00  0.00    -0.216 NA
HETATM    3  C   UNL     1      41.805 -11.560   2.704  1.00  0.00     0.150 A 
HETATM    4  C   UNL     1      41.866 -10.545   3.642  1.00  0.00     0.086 A 
HETATM    5 CL   UNL     1      42.709 -10.559   5.135  1.00  0.00    -0.080 Cl
HETATM    6  C   UNL     1      41.125  -9.432   3.318  1.00  0.00     0.146 A 
HETATM    7  N   UNL     1      40.402  -9.303   2.187  1.00  0.00    -0.234 NA
ENDROOT
BRANCH   3   8
HETATM    8  C   UNL     1      42.569 -12.851   2.853  1.00  0.00     0.278 C 
HETATM    9  N   UNL     1      41.743 -13.947   2.991  1.00  0.00    -0.300 N 
HETATM   10  H   UNL     1      40.740 -13.811   2.970  1.00  0.00     0.171 HD
HETATM   11  O   UNL     1      43.790 -12.863   2.838  1.00  0.00    -0.265 OA
BRANCH   9  12
HETATM   12  C   UNL     1      42.221 -15.215   3.157  1.00  0.00     0.174 A 
HETATM   13  S   UNL     1      42.699 -15.580   4.751  1.00  0.00    -0.050 SA
HETATM   14  C   UNL     1      43.171 -17.158   4.237  1.00  0.00     0.039 A 
HETATM   15  C   UNL     1      42.901 -17.284   2.871  1.00  0.00     0.077 A 
HETATM   16  C   UNL     1      43.735 -18.207   4.983  1.00  0.00     0.045 A 
HETATM   17  N   UNL     1      42.367 -16.162   2.270  1.00  0.00    -0.223 NA
HETATM   18  C   UNL     1      43.189 -18.507   2.230  1.00  0.00     0.035 A 
HETATM   19  C   UNL     1      43.746 -19.561   2.961  1.00  0.00     0.026 A 
HETATM   20  C   UNL     1      44.016 -19.404   4.317  1.00  0.00     0.035 A 
HETATM   21 CL   UNL     1      44.713 -20.710   5.197  1.00  0.00    -0.084 Cl
ENDBRANCH   9  12
ENDBRANCH   3   8
BRANCH   1  22
HETATM   22  S   UNL     1      39.541 -10.128  -0.181  1.00  0.00    -0.086 SA
BRANCH  22  23
HETATM   23  C   UNL     1      38.255 -11.388   0.038  1.00  0.00     0.121 C 
BRANCH  23  24
HETATM   24  C   UNL     1      38.411 -12.506  -0.962  1.00  0.00    -0.049 A 
HETATM   25  C   UNL     1      37.550 -12.604  -2.065  1.00  0.00     0.008 A 
HETATM   26  C   UNL     1      37.677 -13.659  -2.972  1.00  0.00     0.001 A 
HETATM   27  C   UNL     1      38.664 -14.626  -2.786  1.00  0.00     0.000 A 
HETATM   28  C   UNL     1      39.522 -14.541  -1.692  1.00  0.00     0.001 A 
HETATM   29  C   UNL     1      39.396 -13.491  -0.781  1.00  0.00     0.008 A 
ENDBRANCH  23  24
ENDBRANCH  22  23
ENDBRANCH   1  22
TORSDOF 5
ENDMDL
MODEL 10
REMARK VINA RESULT:      -7.9      3.370      9.932
REMARK  5 active torsions:
REMARK  status: ('A' for Active; 'I' for Inactive)
REMARK    1  A    between atoms: C_4  and  C_5 
REMARK    2  A    between atoms: C_5  and  S_6 
REMARK    3  A    between atoms: S_6  and  C_7 
REMARK    4  A    between atoms: C_9  and  C_10 
REMARK       I    between atoms: C_10  and  N_11 
REMARK    5  A    between atoms: N_11  and  C_12 
ROOT
HETATM    1  C   UNL     1      43.578  -9.487   9.298  1.00  0.00     0.189 A 
HETATM    2  N   UNL     1      43.982 -10.632   8.730  1.00  0.00    -0.216 NA
HETATM    3  C   UNL     1      43.488 -10.892   7.479  1.00  0.00     0.150 A 
HETATM    4  C   UNL     1      42.662 -10.027   6.783  1.00  0.00     0.086 A 
HETATM    5 CL   UNL     1      42.052 -10.228   5.193  1.00  0.00    -0.080 Cl
HETATM    6  C   UNL     1      42.347  -8.875   7.465  1.00  0.00     0.146 A 
HETATM    7  N   UNL     1      42.780  -8.587   8.710  1.00  0.00    -0.234 NA
ENDROOT
BRANCH   3   8
HETATM    8  C   UNL     1      43.925 -12.223   6.923  1.00  0.00     0.278 C 
HETATM    9  N   UNL     1      42.892 -13.135   6.848  1.00  0.00    -0.300 N 
HETATM   10  H   UNL     1      41.966 -12.851   7.142  1.00  0.00     0.171 HD
HETATM   11  O   UNL     1      45.083 -12.413   6.586  1.00  0.00    -0.265 OA
BRANCH   9  12
HETATM   12  C   UNL     1      43.066 -14.409   6.390  1.00  0.00     0.174 A 
HETATM   13  S   UNL     1      43.042 -15.599   7.609  1.00  0.00    -0.050 SA
HETATM   14  C   UNL     1      43.325 -16.813   6.414  1.00  0.00     0.039 A 
HETATM   15  C   UNL     1      43.394 -16.199   5.160  1.00  0.00     0.077 A 
HETATM   16  C   UNL     1      43.473 -18.201   6.572  1.00  0.00     0.045 A 
HETATM   17  N   UNL     1      43.252 -14.826   5.167  1.00  0.00    -0.223 NA
HETATM   18  C   UNL     1      43.601 -17.003   4.020  1.00  0.00     0.035 A 
HETATM   19  C   UNL     1      43.744 -18.387   4.161  1.00  0.00     0.026 A 
HETATM   20  C   UNL     1      43.684 -18.969   5.423  1.00  0.00     0.035 A 
HETATM   21 CL   UNL     1      43.875 -20.674   5.577  1.00  0.00    -0.084 Cl
ENDBRANCH   9  12
ENDBRANCH   3   8
BRANCH   1  22
HETATM   22  S   UNL     1      44.054  -9.152  10.965  1.00  0.00    -0.086 SA
BRANCH  22  23
HETATM   23  C   UNL     1      42.850  -7.852  11.350  1.00  0.00     0.121 C 
BRANCH  23  24
HETATM   24  C   UNL     1      41.603  -8.429  11.971  1.00  0.00    -0.049 A 
HETATM   25  C   UNL     1      41.600  -9.733  12.490  1.00  0.00     0.008 A 
HETATM   26  C   UNL     1      40.435 -10.277  13.037  1.00  0.00     0.001 A 
HETATM   27  C   UNL     1      39.262  -9.524  13.070  1.00  0.00     0.000 A 
HETATM   28  C   UNL     1      39.251  -8.231  12.554  1.00  0.00     0.001 A 
HETATM   29  C   UNL     1      40.412  -7.686  12.004  1.00  0.00     0.008 A 
ENDBRANCH  23  24
ENDBRANCH  22  23
ENDBRANCH   1  22
TORSDOF 5
ENDMDL
