MODEL 1
REMARK VINA RESULT:      -8.3      0.000      0.000
REMARK  9 active torsions:
REMARK  status: ('A' for Active; 'I' for Inactive)
REMARK    1  A    between atoms: C_2  and  C_3 
REMARK    2  A    between atoms: C_3  and  C_4 
REMARK    3  A    between atoms: C_3  and  C_38 
REMARK    4  A    between atoms: C_6  and  C_7 
REMARK    5  A    between atoms: C_14  and  C_15 
REMARK    6  A    between atoms: C_18  and  C_19 
REMARK    7  A    between atoms: C_19  and  N_20 
REMARK       I    between atoms: N_20  and  C_21 
REMARK       I    between atoms: C_21  and  N_22 
REMARK    8  A    between atoms: N_22  and  C_23 
REMARK    9  A    between atoms: C_26  and  O_27 
ROOT
HETATM    1  C   UNL     1      39.827 -14.467   1.130  1.00  0.00     0.068 C 
HETATM    2  C   UNL     1      40.699 -14.140  -0.115  1.00  0.00     0.001 C 
HETATM    3  C   UNL     1      41.497 -12.837   0.127  1.00  0.00     0.040 C 
HETATM    4  C   UNL     1      40.544 -11.641   0.315  1.00  0.00     0.206 C 
HETATM    5  N   UNL     1      39.130 -12.212   0.351  1.00  0.00    -0.065 N 
HETATM    6  H   UNL     1      38.489 -11.423   0.590  1.00  0.00     0.280 HD
HETATM    7  C   UNL     1      38.927 -13.254   1.441  1.00  0.00     0.246 C 
HETATM    8  C   UNL     1      39.748 -13.900  -1.310  1.00  0.00     0.033 C 
HETATM    9  C   UNL     1      38.757 -12.775  -0.995  1.00  0.00     0.236 C 
ENDROOT
BRANCH   1  10
HETATM   10  C   UNL     1      40.665 -14.911   2.310  1.00  0.00     0.045 A 
HETATM   11  N   UNL     1      41.317 -16.088   2.213  1.00  0.00    -0.233 NA
HETATM   12  C   UNL     1      41.994 -16.504   3.305  1.00  0.00     0.160 A 
HETATM   13  N   UNL     1      42.016 -15.849   4.477  1.00  0.00    -0.233 NA
HETATM   14  C   UNL     1      41.360 -14.675   4.555  1.00  0.00     0.043 A 
HETATM   15  C   UNL     1      40.674 -14.158   3.471  1.00  0.00     0.055 A 
BRANCH  12  16
HETATM   16  C   UNL     1      42.749 -17.762   3.208  1.00  0.00     0.014 A 
HETATM   17  C   UNL     1      43.631 -18.163   4.222  1.00  0.00     0.034 A 
HETATM   18  C   UNL     1      44.317 -19.359   4.093  1.00  0.00     0.117 A 
HETATM   19  N   UNL     1      44.193 -20.179   3.031  1.00  0.00    -0.273 NA
HETATM   20  C   UNL     1      43.364 -19.780   2.048  1.00  0.00     0.117 A 
HETATM   21  C   UNL     1      42.630 -18.605   2.093  1.00  0.00     0.034 A 
ENDBRANCH  12  16
BRANCH  14  22
HETATM   22  C   UNL     1      41.421 -13.956   5.892  1.00  0.00     0.037 C 
BRANCH  22  23
HETATM   23  C   UNL     1      42.132 -14.776   6.993  1.00  0.00     0.006 C 
HETATM   24  C   UNL     1      43.592 -14.387   7.189  1.00  0.00     0.006 C 
ENDBRANCH  22  23
BRANCH  22  25
HETATM   25  C   UNL     1      40.013 -13.541   6.370  1.00  0.00     0.006 C 
HETATM   26  C   UNL     1      39.715 -12.062   6.155  1.00  0.00     0.006 C 
ENDBRANCH  22  25
ENDBRANCH  14  22
ENDBRANCH   1  10
BRANCH   4  27
HETATM   27  C   UNL     1      40.895 -10.758   1.542  1.00  0.00     0.157 C 
BRANCH  27  28
HETATM   28  N   UNL     1      42.086 -11.149   2.300  1.00  0.00    -0.341 N 
HETATM   29  C   UNL     1      42.397 -10.605   3.526  1.00  0.00     0.320 C 
HETATM   30  N   UNL     1      43.366 -11.316   4.183  1.00  0.00    -0.309 N 
HETATM   31  O   UNL     1      41.836  -9.588   3.921  1.00  0.00    -0.247 OA
HETATM   32  H   UNL     1      43.810 -12.071   3.678  1.00  0.00     0.170 HD
HETATM   33  H   UNL     1      42.361 -12.115   2.187  1.00  0.00     0.164 HD
BRANCH  30  34
HETATM   34  C   UNL     1      43.821 -11.116   5.505  1.00  0.00     0.036 A 
HETATM   35  C   UNL     1      42.998 -10.728   6.563  1.00  0.00     0.032 A 
HETATM   36  C   UNL     1      43.518 -10.599   7.855  1.00  0.00     0.039 A 
HETATM   37  C   UNL     1      44.861 -10.870   8.115  1.00  0.00     0.068 A 
HETATM   38  C   UNL     1      45.694 -11.233   7.060  1.00  0.00     0.039 A 
HETATM   39  C   UNL     1      45.176 -11.352   5.763  1.00  0.00     0.032 A 
BRANCH  37  40
HETATM   40  O   UNL     1      45.232 -10.731   9.421  1.00  0.00    -0.356 OA
HETATM   41  C   UNL     1      44.195 -10.425  10.347  1.00  0.00     0.210 C 
ENDBRANCH  37  40
ENDBRANCH  30  34
ENDBRANCH  27  28
ENDBRANCH   4  27
TORSDOF 9
ENDMDL
MODEL 2
REMARK VINA RESULT:      -8.2      2.010      6.389
REMARK  9 active torsions:
REMARK  status: ('A' for Active; 'I' for Inactive)
REMARK    1  A    between atoms: C_2  and  C_3 
REMARK    2  A    between atoms: C_3  and  C_4 
REMARK    3  A    between atoms: C_3  and  C_38 
REMARK    4  A    between atoms: C_6  and  C_7 
REMARK    5  A    between atoms: C_14  and  C_15 
REMARK    6  A    between atoms: C_18  and  C_19 
REMARK    7  A    between atoms: C_19  and  N_20 
REMARK       I    between atoms: N_20  and  C_21 
REMARK       I    between atoms: C_21  and  N_22 
REMARK    8  A    between atoms: N_22  and  C_23 
REMARK    9  A    between atoms: C_26  and  O_27 
ROOT
HETATM    1  C   UNL     1      42.299 -15.384   1.703  1.00  0.00     0.068 C 
HETATM    2  C   UNL     1      41.526 -16.681   2.076  1.00  0.00     0.001 C 
HETATM    3  C   UNL     1      40.738 -16.465   3.389  1.00  0.00     0.040 C 
HETATM    4  C   UNL     1      41.697 -16.180   4.561  1.00  0.00     0.206 C 
HETATM    5  N   UNL     1      43.094 -16.056   3.960  1.00  0.00    -0.065 N 
HETATM    6  H   UNL     1      43.730 -15.752   4.730  1.00  0.00     0.280 HD
HETATM    7  C   UNL     1      43.198 -14.980   2.889  1.00  0.00     0.246 C 
HETATM    8  C   UNL     1      42.566 -17.798   2.323  1.00  0.00     0.033 C 
HETATM    9  C   UNL     1      43.553 -17.385   3.420  1.00  0.00     0.236 C 
ENDROOT
BRANCH   1  10
HETATM   10  C   UNL     1      41.370 -14.279   1.249  1.00  0.00     0.045 A 
HETATM   11  N   UNL     1      41.151 -13.251   2.095  1.00  0.00    -0.233 NA
HETATM   12  C   UNL     1      40.259 -12.316   1.704  1.00  0.00     0.160 A 
HETATM   13  N   UNL     1      39.553 -12.374   0.564  1.00  0.00    -0.233 NA
HETATM   14  C   UNL     1      39.785 -13.407  -0.269  1.00  0.00     0.043 A 
HETATM   15  C   UNL     1      40.711 -14.387   0.037  1.00  0.00     0.055 A 
BRANCH  12  16
HETATM   16  C   UNL     1      40.038 -11.164   2.591  1.00  0.00     0.014 A 
HETATM   17  C   UNL     1      39.167 -11.245   3.687  1.00  0.00     0.034 A 
HETATM   18  C   UNL     1      38.993 -10.138   4.501  1.00  0.00     0.117 A 
HETATM   19  N   UNL     1      39.616  -8.960   4.301  1.00  0.00    -0.273 NA
HETATM   20  C   UNL     1      40.433  -8.878   3.234  1.00  0.00     0.117 A 
HETATM   21  C   UNL     1      40.675  -9.934   2.370  1.00  0.00     0.034 A 
ENDBRANCH  12  16
BRANCH  14  22
HETATM   22  C   UNL     1      38.978 -13.429  -1.557  1.00  0.00     0.037 C 
BRANCH  22  23
HETATM   23  C   UNL     1      39.337 -14.615  -2.481  1.00  0.00     0.006 C 
HETATM   24  C   UNL     1      38.260 -14.926  -3.514  1.00  0.00     0.006 C 
ENDBRANCH  22  23
BRANCH  22  25
HETATM   25  C   UNL     1      39.116 -12.099  -2.328  1.00  0.00     0.006 C 
HETATM   26  C   UNL     1      40.463 -11.940  -3.021  1.00  0.00     0.006 C 
ENDBRANCH  22  25
ENDBRANCH  14  22
ENDBRANCH   1  10
BRANCH   4  27
HETATM   27  C   UNL     1      41.275 -14.960   5.423  1.00  0.00     0.157 C 
BRANCH  27  28
HETATM   28  N   UNL     1      42.330 -14.342   6.228  1.00  0.00    -0.341 N 
HETATM   29  C   UNL     1      42.600 -12.993   6.188  1.00  0.00     0.320 C 
HETATM   30  N   UNL     1      43.403 -12.589   7.221  1.00  0.00    -0.309 N 
HETATM   31  O   UNL     1      42.146 -12.290   5.291  1.00  0.00    -0.247 OA
HETATM   32  H   UNL     1      43.786 -13.308   7.820  1.00  0.00     0.170 HD
HETATM   33  H   UNL     1      42.484 -14.774   7.130  1.00  0.00     0.164 HD
BRANCH  30  34
HETATM   34  C   UNL     1      43.760 -11.263   7.555  1.00  0.00     0.036 A 
HETATM   35  C   UNL     1      42.839 -10.255   7.841  1.00  0.00     0.032 A 
HETATM   36  C   UNL     1      43.277  -8.979   8.212  1.00  0.00     0.039 A 
HETATM   37  C   UNL     1      44.637  -8.694   8.317  1.00  0.00     0.068 A 
HETATM   38  C   UNL     1      45.563  -9.687   8.009  1.00  0.00     0.039 A 
HETATM   39  C   UNL     1      45.126 -10.962   7.627  1.00  0.00     0.032 A 
BRANCH  37  40
HETATM   40  O   UNL     1      44.926  -7.419   8.713  1.00  0.00    -0.356 OA
HETATM   41  C   UNL     1      43.836  -6.639   9.189  1.00  0.00     0.210 C 
ENDBRANCH  37  40
ENDBRANCH  30  34
ENDBRANCH  27  28
ENDBRANCH   4  27
TORSDOF 9
ENDMDL
MODEL 3
REMARK VINA RESULT:      -8.1      2.700      5.807
REMARK  9 active torsions:
REMARK  status: ('A' for Active; 'I' for Inactive)
REMARK    1  A    between atoms: C_2  and  C_3 
REMARK    2  A    between atoms: C_3  and  C_4 
REMARK    3  A    between atoms: C_3  and  C_38 
REMARK    4  A    between atoms: C_6  and  C_7 
REMARK    5  A    between atoms: C_14  and  C_15 
REMARK    6  A    between atoms: C_18  and  C_19 
REMARK    7  A    between atoms: C_19  and  N_20 
REMARK       I    between atoms: N_20  and  C_21 
REMARK       I    between atoms: C_21  and  N_22 
REMARK    8  A    between atoms: N_22  and  C_23 
REMARK    9  A    between atoms: C_26  and  O_27 
ROOT
HETATM    1  C   UNL     1      39.399 -12.294   4.123  1.00  0.00     0.068 C 
HETATM    2  C   UNL     1      39.413 -10.774   3.798  1.00  0.00     0.001 C 
HETATM    3  C   UNL     1      40.811 -10.184   4.099  1.00  0.00     0.040 C 
HETATM    4  C   UNL     1      41.145 -10.310   5.598  1.00  0.00     0.206 C 
HETATM    5  N   UNL     1      40.021 -11.128   6.227  1.00  0.00    -0.065 N 
HETATM    6  H   UNL     1      40.297 -11.312   7.217  1.00  0.00     0.280 HD
HETATM    7  C   UNL     1      39.838 -12.496   5.587  1.00  0.00     0.246 C 
HETATM    8  C   UNL     1      38.393 -10.080   4.729  1.00  0.00     0.033 C 
HETATM    9  C   UNL     1      38.730 -10.354   6.199  1.00  0.00     0.236 C 
ENDROOT
BRANCH   1  10
HETATM   10  C   UNL     1      40.218 -13.095   3.133  1.00  0.00     0.045 A 
HETATM   11  N   UNL     1      39.898 -13.001   1.827  1.00  0.00    -0.233 NA
HETATM   12  C   UNL     1      40.589 -13.783   0.969  1.00  0.00     0.160 A 
HETATM   13  N   UNL     1      41.527 -14.668   1.341  1.00  0.00    -0.233 NA
HETATM   14  C   UNL     1      41.835 -14.747   2.651  1.00  0.00     0.043 A 
HETATM   15  C   UNL     1      41.203 -13.954   3.590  1.00  0.00     0.055 A 
BRANCH  12  16
HETATM   16  C   UNL     1      40.287 -13.665  -0.465  1.00  0.00     0.014 A 
HETATM   17  C   UNL     1      39.449 -14.586  -1.110  1.00  0.00     0.034 A 
HETATM   18  C   UNL     1      39.185 -14.435  -2.462  1.00  0.00     0.117 A 
HETATM   19  N   UNL     1      39.695 -13.440  -3.214  1.00  0.00    -0.273 NA
HETATM   20  C   UNL     1      40.518 -12.571  -2.597  1.00  0.00     0.117 A 
HETATM   21  C   UNL     1      40.833 -12.638  -1.248  1.00  0.00     0.034 A 
ENDBRANCH  12  16
BRANCH  14  22
HETATM   22  C   UNL     1      42.913 -15.749   3.030  1.00  0.00     0.037 C 
BRANCH  22  23
HETATM   23  C   UNL     1      43.234 -16.756   1.902  1.00  0.00     0.006 C 
HETATM   24  C   UNL     1      42.976 -18.206   2.292  1.00  0.00     0.006 C 
ENDBRANCH  22  23
BRANCH  22  25
HETATM   25  C   UNL     1      42.544 -16.506   4.324  1.00  0.00     0.006 C 
HETATM   26  C   UNL     1      43.596 -16.378   5.418  1.00  0.00     0.006 C 
ENDBRANCH  22  25
ENDBRANCH  14  22
ENDBRANCH   1  10
BRANCH   4  27
HETATM   27  C   UNL     1      42.563 -10.879   5.870  1.00  0.00     0.157 C 
BRANCH  27  28
HETATM   28  N   UNL     1      42.929 -11.058   7.277  1.00  0.00    -0.341 N 
HETATM   29  C   UNL     1      42.872 -10.034   8.194  1.00  0.00     0.320 C 
HETATM   30  N   UNL     1      42.963 -10.483   9.485  1.00  0.00    -0.309 N 
HETATM   31  O   UNL     1      42.762  -8.869   7.827  1.00  0.00    -0.247 OA
HETATM   32  H   UNL     1      43.162 -11.464   9.622  1.00  0.00     0.170 HD
HETATM   33  H   UNL     1      42.722 -11.973   7.655  1.00  0.00     0.164 HD
BRANCH  30  34
HETATM   34  C   UNL     1      42.806  -9.721  10.665  1.00  0.00     0.036 A 
HETATM   35  C   UNL     1      43.826  -8.971  11.251  1.00  0.00     0.032 A 
HETATM   36  C   UNL     1      43.574  -8.204  12.394  1.00  0.00     0.039 A 
HETATM   37  C   UNL     1      42.300  -8.161  12.959  1.00  0.00     0.068 A 
HETATM   38  C   UNL     1      41.283  -8.927  12.395  1.00  0.00     0.039 A 
HETATM   39  C   UNL     1      41.537  -9.704  11.256  1.00  0.00     0.032 A 
BRANCH  37  40
HETATM   40  O   UNL     1      42.185  -7.354  14.054  1.00  0.00    -0.356 OA
HETATM   41  C   UNL     1      42.070  -5.958  13.804  1.00  0.00     0.210 C 
ENDBRANCH  37  40
ENDBRANCH  30  34
ENDBRANCH  27  28
ENDBRANCH   4  27
TORSDOF 9
ENDMDL
MODEL 4
REMARK VINA RESULT:      -8.0      2.305      2.994
REMARK  9 active torsions:
REMARK  status: ('A' for Active; 'I' for Inactive)
REMARK    1  A    between atoms: C_2  and  C_3 
REMARK    2  A    between atoms: C_3  and  C_4 
REMARK    3  A    between atoms: C_3  and  C_38 
REMARK    4  A    between atoms: C_6  and  C_7 
REMARK    5  A    between atoms: C_14  and  C_15 
REMARK    6  A    between atoms: C_18  and  C_19 
REMARK    7  A    between atoms: C_19  and  N_20 
REMARK       I    between atoms: N_20  and  C_21 
REMARK       I    between atoms: C_21  and  N_22 
REMARK    8  A    between atoms: N_22  and  C_23 
REMARK    9  A    between atoms: C_26  and  O_27 
ROOT
HETATM    1  C   UNL     1      41.232 -14.574   1.377  1.00  0.00     0.068 C 
HETATM    2  C   UNL     1      41.677 -13.109   1.103  1.00  0.00     0.001 C 
HETATM    3  C   UNL     1      41.245 -12.199   2.277  1.00  0.00     0.040 C 
HETATM    4  C   UNL     1      39.710 -12.169   2.408  1.00  0.00     0.206 C 
HETATM    5  N   UNL     1      39.167 -13.190   1.413  1.00  0.00    -0.065 N 
HETATM    6  H   UNL     1      38.139 -13.256   1.576  1.00  0.00     0.280 HD
HETATM    7  C   UNL     1      39.712 -14.594   1.632  1.00  0.00     0.246 C 
HETATM    8  C   UNL     1      40.946 -12.622  -0.170  1.00  0.00     0.033 C 
HETATM    9  C   UNL     1      39.428 -12.737   0.001  1.00  0.00     0.236 C 
ENDROOT
BRANCH   1  10
HETATM   10  C   UNL     1      42.037 -15.213   2.488  1.00  0.00     0.045 A 
HETATM   11  N   UNL     1      42.329 -16.525   2.380  1.00  0.00    -0.233 NA
HETATM   12  C   UNL     1      42.979 -17.095   3.418  1.00  0.00     0.160 A 
HETATM   13  N   UNL     1      43.302 -16.454   4.552  1.00  0.00    -0.233 NA
HETATM   14  C   UNL     1      43.003 -15.143   4.642  1.00  0.00     0.043 A 
HETATM   15  C   UNL     1      42.374 -14.474   3.609  1.00  0.00     0.055 A 
BRANCH  12  16
HETATM   16  C   UNL     1      43.347 -18.514   3.303  1.00  0.00     0.014 A 
HETATM   17  C   UNL     1      43.850 -19.227   4.401  1.00  0.00     0.034 A 
HETATM   18  C   UNL     1      44.179 -20.564   4.251  1.00  0.00     0.117 A 
HETATM   19  N   UNL     1      44.048 -21.239   3.092  1.00  0.00    -0.273 NA
HETATM   20  C   UNL     1      43.588 -20.545   2.033  1.00  0.00     0.117 A 
HETATM   21  C   UNL     1      43.226 -19.208   2.091  1.00  0.00     0.034 A 
ENDBRANCH  12  16
BRANCH  14  22
HETATM   22  C   UNL     1      43.399 -14.448   5.934  1.00  0.00     0.037 C 
BRANCH  22  23
HETATM   23  C   UNL     1      42.486 -14.813   7.127  1.00  0.00     0.006 C 
HETATM   24  C   UNL     1      43.161 -15.713   8.155  1.00  0.00     0.006 C 
ENDBRANCH  22  23
BRANCH  22  25
HETATM   25  C   UNL     1      43.446 -12.916   5.755  1.00  0.00     0.006 C 
HETATM   26  C   UNL     1      44.402 -12.225   6.720  1.00  0.00     0.006 C 
ENDBRANCH  22  25
ENDBRANCH  14  22
ENDBRANCH   1  10
BRANCH   4  27
HETATM   27  C   UNL     1      39.209 -12.382   3.862  1.00  0.00     0.157 C 
BRANCH  27  28
HETATM   28  N   UNL     1      39.187 -11.194   4.719  1.00  0.00    -0.341 N 
HETATM   29  C   UNL     1      39.413 -11.253   6.075  1.00  0.00     0.320 C 
HETATM   30  N   UNL     1      39.642 -10.018   6.621  1.00  0.00    -0.309 N 
HETATM   31  O   UNL     1      39.388 -12.327   6.668  1.00  0.00    -0.247 OA
HETATM   32  H   UNL     1      39.521  -9.215   6.020  1.00  0.00     0.170 HD
HETATM   33  H   UNL     1      39.513 -10.346   4.275  1.00  0.00     0.164 HD
BRANCH  30  34
HETATM   34  C   UNL     1      40.038  -9.733   7.947  1.00  0.00     0.036 A 
HETATM   35  C   UNL     1      39.189  -9.822   9.051  1.00  0.00     0.032 A 
HETATM   36  C   UNL     1      39.673  -9.570  10.339  1.00  0.00     0.039 A 
HETATM   37  C   UNL     1      41.011  -9.242  10.548  1.00  0.00     0.068 A 
HETATM   38  C   UNL     1      41.859  -9.126   9.449  1.00  0.00     0.039 A 
HETATM   39  C   UNL     1      41.373  -9.368   8.157  1.00  0.00     0.032 A 
BRANCH  37  40
HETATM   40  O   UNL     1      41.357  -9.048  11.854  1.00  0.00    -0.356 OA
HETATM   41  C   UNL     1      42.264  -9.988  12.418  1.00  0.00     0.210 C 
ENDBRANCH  37  40
ENDBRANCH  30  34
ENDBRANCH  27  28
ENDBRANCH   4  27
TORSDOF 9
ENDMDL
MODEL 5
REMARK VINA RESULT:      -8.0      2.868      8.381
REMARK  9 active torsions:
REMARK  status: ('A' for Active; 'I' for Inactive)
REMARK    1  A    between atoms: C_2  and  C_3 
REMARK    2  A    between atoms: C_3  and  C_4 
REMARK    3  A    between atoms: C_3  and  C_38 
REMARK    4  A    between atoms: C_6  and  C_7 
REMARK    5  A    between atoms: C_14  and  C_15 
REMARK    6  A    between atoms: C_18  and  C_19 
REMARK    7  A    between atoms: C_19  and  N_20 
REMARK       I    between atoms: N_20  and  C_21 
REMARK       I    between atoms: C_21  and  N_22 
REMARK    8  A    between atoms: N_22  and  C_23 
REMARK    9  A    between atoms: C_26  and  O_27 
ROOT
HETATM    1  C   UNL     1      43.048 -14.977   7.004  1.00  0.00     0.068 C 
HETATM    2  C   UNL     1      44.200 -15.552   6.132  1.00  0.00     0.001 C 
HETATM    3  C   UNL     1      43.701 -15.786   4.686  1.00  0.00     0.040 C 
HETATM    4  C   UNL     1      42.574 -16.836   4.662  1.00  0.00     0.206 C 
HETATM    5  N   UNL     1      42.244 -17.156   6.117  1.00  0.00    -0.065 N 
HETATM    6  H   UNL     1      41.408 -17.780   6.109  1.00  0.00     0.280 HD
HETATM    7  C   UNL     1      41.840 -15.933   6.927  1.00  0.00     0.246 C 
HETATM    8  C   UNL     1      44.605 -16.922   6.723  1.00  0.00     0.033 C 
HETATM    9  C   UNL     1      43.399 -17.866   6.773  1.00  0.00     0.236 C 
ENDROOT
BRANCH   1  10
HETATM   10  C   UNL     1      42.709 -13.550   6.630  1.00  0.00     0.045 A 
HETATM   11  N   UNL     1      43.446 -12.563   7.178  1.00  0.00    -0.233 NA
HETATM   12  C   UNL     1      43.079 -11.294   6.894  1.00  0.00     0.160 A 
HETATM   13  N   UNL     1      42.011 -10.965   6.150  1.00  0.00    -0.233 NA
HETATM   14  C   UNL     1      41.287 -11.964   5.610  1.00  0.00     0.043 A 
HETATM   15  C   UNL     1      41.618 -13.290   5.819  1.00  0.00     0.055 A 
BRANCH  12  16
HETATM   16  C   UNL     1      43.895 -10.202   7.444  1.00  0.00     0.014 A 
HETATM   17  C   UNL     1      45.295 -10.288   7.484  1.00  0.00     0.034 A 
HETATM   18  C   UNL     1      46.027  -9.234   8.005  1.00  0.00     0.117 A 
HETATM   19  N   UNL     1      45.469  -8.108   8.491  1.00  0.00    -0.273 NA
HETATM   20  C   UNL     1      44.124  -8.038   8.474  1.00  0.00     0.117 A 
HETATM   21  C   UNL     1      43.311  -9.039   7.965  1.00  0.00     0.034 A 
ENDBRANCH  12  16
BRANCH  14  22
HETATM   22  C   UNL     1      40.096 -11.552   4.761  1.00  0.00     0.037 C 
BRANCH  22  23
HETATM   23  C   UNL     1      40.194 -12.034   3.296  1.00  0.00     0.006 C 
HETATM   24  C   UNL     1      38.851 -12.071   2.579  1.00  0.00     0.006 C 
ENDBRANCH  22  23
BRANCH  22  25
HETATM   25  C   UNL     1      39.882 -10.023   4.801  1.00  0.00     0.006 C 
HETATM   26  C   UNL     1      38.573  -9.614   5.465  1.00  0.00     0.006 C 
ENDBRANCH  22  25
ENDBRANCH  14  22
ENDBRANCH   1  10
BRANCH   4  27
HETATM   27  C   UNL     1      41.343 -16.403   3.821  1.00  0.00     0.157 C 
BRANCH  27  28
HETATM   28  N   UNL     1      41.625 -15.908   2.472  1.00  0.00    -0.341 N 
HETATM   29  C   UNL     1      40.652 -15.368   1.661  1.00  0.00     0.320 C 
HETATM   30  N   UNL     1      41.177 -14.704   0.584  1.00  0.00    -0.309 N 
HETATM   31  O   UNL     1      39.463 -15.512   1.928  1.00  0.00    -0.247 OA
HETATM   32  H   UNL     1      42.176 -14.768   0.442  1.00  0.00     0.170 HD
HETATM   33  H   UNL     1      42.544 -15.502   2.352  1.00  0.00     0.164 HD
BRANCH  30  34
HETATM   34  C   UNL     1      40.474 -13.928  -0.364  1.00  0.00     0.036 A 
HETATM   35  C   UNL     1      39.446 -14.420  -1.168  1.00  0.00     0.032 A 
HETATM   36  C   UNL     1      38.766 -13.571  -2.047  1.00  0.00     0.039 A 
HETATM   37  C   UNL     1      39.090 -12.218  -2.127  1.00  0.00     0.068 A 
HETATM   38  C   UNL     1      40.131 -11.724  -1.347  1.00  0.00     0.039 A 
HETATM   39  C   UNL     1      40.820 -12.575  -0.473  1.00  0.00     0.032 A 
BRANCH  37  40
HETATM   40  O   UNL     1      38.331 -11.498  -3.005  1.00  0.00    -0.356 OA
HETATM   41  C   UNL     1      36.986 -11.242  -2.621  1.00  0.00     0.210 C 
ENDBRANCH  37  40
ENDBRANCH  30  34
ENDBRANCH  27  28
ENDBRANCH   4  27
TORSDOF 9
ENDMDL
MODEL 6
REMARK VINA RESULT:      -7.8      3.910      9.213
REMARK  9 active torsions:
REMARK  status: ('A' for Active; 'I' for Inactive)
REMARK    1  A    between atoms: C_2  and  C_3 
REMARK    2  A    between atoms: C_3  and  C_4 
REMARK    3  A    between atoms: C_3  and  C_38 
REMARK    4  A    between atoms: C_6  and  C_7 
REMARK    5  A    between atoms: C_14  and  C_15 
REMARK    6  A    between atoms: C_18  and  C_19 
REMARK    7  A    between atoms: C_19  and  N_20 
REMARK       I    between atoms: N_20  and  C_21 
REMARK       I    between atoms: C_21  and  N_22 
REMARK    8  A    between atoms: N_22  and  C_23 
REMARK    9  A    between atoms: C_26  and  O_27 
ROOT
HETATM    1  C   UNL     1      41.084  -8.577   5.268  1.00  0.00     0.068 C 
HETATM    2  C   UNL     1      39.541  -8.400   5.344  1.00  0.00     0.001 C 
HETATM    3  C   UNL     1      38.905  -9.623   6.047  1.00  0.00     0.040 C 
HETATM    4  C   UNL     1      39.154 -10.909   5.235  1.00  0.00     0.206 C 
HETATM    5  N   UNL     1      40.090 -10.528   4.092  1.00  0.00    -0.065 N 
HETATM    6  H   UNL     1      40.351 -11.414   3.606  1.00  0.00     0.280 HD
HETATM    7  C   UNL     1      41.399  -9.912   4.562  1.00  0.00     0.246 C 
HETATM    8  C   UNL     1      38.997  -8.346   3.899  1.00  0.00     0.033 C 
HETATM    9  C   UNL     1      39.390  -9.609   3.126  1.00  0.00     0.236 C 
ENDROOT
BRANCH   1  10
HETATM   10  C   UNL     1      41.741  -8.446   6.625  1.00  0.00     0.045 A 
HETATM   11  N   UNL     1      41.613  -7.272   7.276  1.00  0.00    -0.233 NA
HETATM   12  C   UNL     1      42.271  -7.147   8.449  1.00  0.00     0.160 A 
HETATM   13  N   UNL     1      43.070  -8.091   8.972  1.00  0.00    -0.233 NA
HETATM   14  C   UNL     1      43.185  -9.258   8.308  1.00  0.00     0.043 A 
HETATM   15  C   UNL     1      42.514  -9.481   7.120  1.00  0.00     0.055 A 
BRANCH  12  16
HETATM   16  C   UNL     1      42.110  -5.892   9.198  1.00  0.00     0.014 A 
HETATM   17  C   UNL     1      42.532  -5.780  10.531  1.00  0.00     0.034 A 
HETATM   18  C   UNL     1      42.367  -4.577  11.198  1.00  0.00     0.117 A 
HETATM   19  N   UNL     1      41.812  -3.484  10.638  1.00  0.00    -0.273 NA
HETATM   20  C   UNL     1      41.386  -3.602   9.366  1.00  0.00     0.117 A 
HETATM   21  C   UNL     1      41.516  -4.762   8.618  1.00  0.00     0.034 A 
ENDBRANCH  12  16
BRANCH  14  22
HETATM   22  C   UNL     1      44.086 -10.306   8.939  1.00  0.00     0.037 C 
BRANCH  22  23
HETATM   23  C   UNL     1      44.528  -9.945  10.376  1.00  0.00     0.006 C 
HETATM   24  C   UNL     1      43.819 -10.760  11.451  1.00  0.00     0.006 C 
ENDBRANCH  22  23
BRANCH  22  25
HETATM   25  C   UNL     1      45.323 -10.584   8.060  1.00  0.00     0.006 C 
HETATM   26  C   UNL     1      46.311  -9.425   8.025  1.00  0.00     0.006 C 
ENDBRANCH  22  25
ENDBRANCH  14  22
ENDBRANCH   1  10
BRANCH   4  27
HETATM   27  C   UNL     1      39.666 -12.094   6.097  1.00  0.00     0.157 C 
BRANCH  27  28
HETATM   28  N   UNL     1      39.638 -13.414   5.462  1.00  0.00    -0.341 N 
HETATM   29  C   UNL     1      40.750 -13.985   4.887  1.00  0.00     0.320 C 
HETATM   30  N   UNL     1      40.579 -15.319   4.628  1.00  0.00    -0.309 N 
HETATM   31  O   UNL     1      41.748 -13.312   4.649  1.00  0.00    -0.247 OA
HETATM   32  H   UNL     1      39.657 -15.707   4.780  1.00  0.00     0.170 HD
HETATM   33  H   UNL     1      38.998 -14.074   5.885  1.00  0.00     0.164 HD
BRANCH  30  34
HETATM   34  C   UNL     1      41.556 -16.231   4.169  1.00  0.00     0.036 A 
HETATM   35  C   UNL     1      42.543 -16.790   4.982  1.00  0.00     0.032 A 
HETATM   36  C   UNL     1      43.444 -17.725   4.460  1.00  0.00     0.039 A 
HETATM   37  C   UNL     1      43.365 -18.126   3.127  1.00  0.00     0.068 A 
HETATM   38  C   UNL     1      42.399 -17.554   2.304  1.00  0.00     0.039 A 
HETATM   39  C   UNL     1      41.502 -16.610   2.823  1.00  0.00     0.032 A 
BRANCH  37  40
HETATM   40  O   UNL     1      44.286 -19.063   2.755  1.00  0.00    -0.356 OA
HETATM   41  C   UNL     1      43.778 -20.258   2.175  1.00  0.00     0.210 C 
ENDBRANCH  37  40
ENDBRANCH  30  34
ENDBRANCH  27  28
ENDBRANCH   4  27
TORSDOF 9
ENDMDL
MODEL 7
REMARK VINA RESULT:      -7.7      2.029      4.632
REMARK  9 active torsions:
REMARK  status: ('A' for Active; 'I' for Inactive)
REMARK    1  A    between atoms: C_2  and  C_3 
REMARK    2  A    between atoms: C_3  and  C_4 
REMARK    3  A    between atoms: C_3  and  C_38 
REMARK    4  A    between atoms: C_6  and  C_7 
REMARK    5  A    between atoms: C_14  and  C_15 
REMARK    6  A    between atoms: C_18  and  C_19 
REMARK    7  A    between atoms: C_19  and  N_20 
REMARK       I    between atoms: N_20  and  C_21 
REMARK       I    between atoms: C_21  and  N_22 
REMARK    8  A    between atoms: N_22  and  C_23 
REMARK    9  A    between atoms: C_26  and  O_27 
ROOT
HETATM    1  C   UNL     1      39.156 -13.637  -0.232  1.00  0.00     0.068 C 
HETATM    2  C   UNL     1      40.245 -13.749  -1.336  1.00  0.00     0.001 C 
HETATM    3  C   UNL     1      41.150 -12.494  -1.311  1.00  0.00     0.040 C 
HETATM    4  C   UNL     1      40.336 -11.226  -1.631  1.00  0.00     0.206 C 
HETATM    5  N   UNL     1      38.873 -11.655  -1.704  1.00  0.00    -0.065 N 
HETATM    6  H   UNL     1      38.307 -10.785  -1.809  1.00  0.00     0.280 HD
HETATM    7  C   UNL     1      38.375 -12.323  -0.431  1.00  0.00     0.246 C 
HETATM    8  C   UNL     1      39.529 -13.790  -2.706  1.00  0.00     0.033 C 
HETATM    9  C   UNL     1      38.648 -12.551  -2.894  1.00  0.00     0.236 C 
ENDROOT
BRANCH   1  10
HETATM   10  C   UNL     1      39.737 -13.786   1.158  1.00  0.00     0.045 A 
HETATM   11  N   UNL     1      39.322 -12.927   2.111  1.00  0.00    -0.233 NA
HETATM   12  C   UNL     1      39.910 -13.026   3.323  1.00  0.00     0.160 A 
HETATM   13  N   UNL     1      40.902 -13.883   3.614  1.00  0.00    -0.233 NA
HETATM   14  C   UNL     1      41.303 -14.734   2.650  1.00  0.00     0.043 A 
HETATM   15  C   UNL     1      40.726 -14.726   1.394  1.00  0.00     0.055 A 
BRANCH  12  16
HETATM   16  C   UNL     1      39.442 -12.129   4.389  1.00  0.00     0.014 A 
HETATM   17  C   UNL     1      39.660 -12.430   5.742  1.00  0.00     0.034 A 
HETATM   18  C   UNL     1      39.207 -11.555   6.715  1.00  0.00     0.117 A 
HETATM   19  N   UNL     1      38.553 -10.408   6.441  1.00  0.00    -0.273 NA
HETATM   20  C   UNL     1      38.324 -10.134   5.143  1.00  0.00     0.117 A 
HETATM   21  C   UNL     1      38.747 -10.946   4.101  1.00  0.00     0.034 A 
ENDBRANCH  12  16
BRANCH  14  22
HETATM   22  C   UNL     1      42.416 -15.699   3.023  1.00  0.00     0.037 C 
BRANCH  22  23
HETATM   23  C   UNL     1      42.076 -17.174   2.709  1.00  0.00     0.006 C 
HETATM   24  C   UNL     1      43.283 -17.994   2.271  1.00  0.00     0.006 C 
ENDBRANCH  22  23
BRANCH  22  25
HETATM   25  C   UNL     1      42.809 -15.553   4.509  1.00  0.00     0.006 C 
HETATM   26  C   UNL     1      42.128 -16.571   5.416  1.00  0.00     0.006 C 
ENDBRANCH  22  25
ENDBRANCH  14  22
ENDBRANCH   1  10
BRANCH   4  27
HETATM   27  C   UNL     1      40.598 -10.057  -0.645  1.00  0.00     0.157 C 
BRANCH  27  28
HETATM   28  N   UNL     1      41.641 -10.280   0.359  1.00  0.00    -0.341 N 
HETATM   29  C   UNL     1      41.484  -9.932   1.682  1.00  0.00     0.320 C 
HETATM   30  N   UNL     1      42.439 -10.494   2.487  1.00  0.00    -0.309 N 
HETATM   31  O   UNL     1      40.574  -9.188   2.030  1.00  0.00    -0.247 OA
HETATM   32  H   UNL     1      43.190 -10.997   2.035  1.00  0.00     0.170 HD
HETATM   33  H   UNL     1      42.207 -11.105   0.206  1.00  0.00     0.164 HD
BRANCH  30  34
HETATM   34  C   UNL     1      42.495 -10.454   3.898  1.00  0.00     0.036 A 
HETATM   35  C   UNL     1      43.140 -11.412   4.681  1.00  0.00     0.032 A 
HETATM   36  C   UNL     1      43.191 -11.273   6.072  1.00  0.00     0.039 A 
HETATM   37  C   UNL     1      42.615 -10.170   6.701  1.00  0.00     0.068 A 
HETATM   38  C   UNL     1      41.948  -9.223   5.929  1.00  0.00     0.039 A 
HETATM   39  C   UNL     1      41.886  -9.367   4.537  1.00  0.00     0.032 A 
BRANCH  37  40
HETATM   40  O   UNL     1      42.761 -10.144   8.058  1.00  0.00    -0.356 OA
HETATM   41  C   UNL     1      43.953 -10.717   8.581  1.00  0.00     0.210 C 
ENDBRANCH  37  40
ENDBRANCH  30  34
ENDBRANCH  27  28
ENDBRANCH   4  27
TORSDOF 9
ENDMDL
MODEL 8
REMARK VINA RESULT:      -7.6      2.839      7.956
REMARK  9 active torsions:
REMARK  status: ('A' for Active; 'I' for Inactive)
REMARK    1  A    between atoms: C_2  and  C_3 
REMARK    2  A    between atoms: C_3  and  C_4 
REMARK    3  A    between atoms: C_3  and  C_38 
REMARK    4  A    between atoms: C_6  and  C_7 
REMARK    5  A    between atoms: C_14  and  C_15 
REMARK    6  A    between atoms: C_18  and  C_19 
REMARK    7  A    between atoms: C_19  and  N_20 
REMARK       I    between atoms: N_20  and  C_21 
REMARK       I    between atoms: C_21  and  N_22 
REMARK    8  A    between atoms: N_22  and  C_23 
REMARK    9  A    between atoms: C_26  and  O_27 
ROOT
HETATM    1  C   UNL     1      43.039 -15.005   7.004  1.00  0.00     0.068 C 
HETATM    2  C   UNL     1      44.187 -15.608   6.146  1.00  0.00     0.001 C 
HETATM    3  C   UNL     1      43.704 -15.813   4.690  1.00  0.00     0.040 C 
HETATM    4  C   UNL     1      42.545 -16.828   4.637  1.00  0.00     0.206 C 
HETATM    5  N   UNL     1      42.182 -17.149   6.084  1.00  0.00    -0.065 N 
HETATM    6  H   UNL     1      41.327 -17.747   6.057  1.00  0.00     0.280 HD
HETATM    7  C   UNL     1      41.803 -15.922   6.899  1.00  0.00     0.246 C 
HETATM    8  C   UNL     1      44.539 -16.995   6.730  1.00  0.00     0.033 C 
HETATM    9  C   UNL     1      43.304 -17.902   6.751  1.00  0.00     0.236 C 
ENDROOT
BRANCH   1  10
HETATM   10  C   UNL     1      42.751 -13.565   6.638  1.00  0.00     0.045 A 
HETATM   11  N   UNL     1      41.794 -13.327   5.719  1.00  0.00    -0.233 NA
HETATM   12  C   UNL     1      41.606 -12.041   5.348  1.00  0.00     0.160 A 
HETATM   13  N   UNL     1      42.338 -11.010   5.799  1.00  0.00    -0.233 NA
HETATM   14  C   UNL     1      43.289 -11.267   6.719  1.00  0.00     0.043 A 
HETATM   15  C   UNL     1      43.519 -12.549   7.181  1.00  0.00     0.055 A 
BRANCH  12  16
HETATM   16  C   UNL     1      40.538 -11.754   4.380  1.00  0.00     0.014 A 
HETATM   17  C   UNL     1      40.252 -10.440   3.981  1.00  0.00     0.034 A 
HETATM   18  C   UNL     1      39.241 -10.213   3.062  1.00  0.00     0.117 A 
HETATM   19  N   UNL     1      38.496 -11.195   2.515  1.00  0.00    -0.273 NA
HETATM   20  C   UNL     1      38.758 -12.453   2.918  1.00  0.00     0.117 A 
HETATM   21  C   UNL     1      39.754 -12.776   3.826  1.00  0.00     0.034 A 
ENDBRANCH  12  16
BRANCH  14  22
HETATM   22  C   UNL     1      44.085 -10.072   7.216  1.00  0.00     0.037 C 
BRANCH  22  23
HETATM   23  C   UNL     1      45.375 -10.470   7.970  1.00  0.00     0.006 C 
HETATM   24  C   UNL     1      46.426  -9.367   7.997  1.00  0.00     0.006 C 
ENDBRANCH  22  23
BRANCH  22  25
HETATM   25  C   UNL     1      43.219  -9.150   8.102  1.00  0.00     0.006 C 
HETATM   26  C   UNL     1      43.057  -9.663   9.528  1.00  0.00     0.006 C 
ENDBRANCH  22  25
ENDBRANCH  14  22
ENDBRANCH   1  10
BRANCH   4  27
HETATM   27  C   UNL     1      41.343 -16.349   3.781  1.00  0.00     0.157 C 
BRANCH  27  28
HETATM   28  N   UNL     1      41.671 -15.727   2.496  1.00  0.00    -0.341 N 
HETATM   29  C   UNL     1      40.708 -15.304   1.608  1.00  0.00     0.320 C 
HETATM   30  N   UNL     1      41.219 -14.495   0.629  1.00  0.00    -0.309 N 
HETATM   31  O   UNL     1      39.541 -15.661   1.734  1.00  0.00    -0.247 OA
HETATM   32  H   UNL     1      42.223 -14.382   0.597  1.00  0.00     0.170 HD
HETATM   33  H   UNL     1      42.514 -15.167   2.500  1.00  0.00     0.164 HD
BRANCH  30  34
HETATM   34  C   UNL     1      40.494 -13.785  -0.355  1.00  0.00     0.036 A 
HETATM   35  C   UNL     1      39.700 -14.393  -1.328  1.00  0.00     0.032 A 
HETATM   36  C   UNL     1      38.974 -13.615  -2.236  1.00  0.00     0.039 A 
HETATM   37  C   UNL     1      39.014 -12.223  -2.177  1.00  0.00     0.068 A 
HETATM   38  C   UNL     1      39.823 -11.610  -1.224  1.00  0.00     0.039 A 
HETATM   39  C   UNL     1      40.560 -12.387  -0.321  1.00  0.00     0.032 A 
BRANCH  37  40
HETATM   40  O   UNL     1      38.239 -11.587  -3.103  1.00  0.00    -0.356 OA
HETATM   41  C   UNL     1      38.481 -10.197  -3.289  1.00  0.00     0.210 C 
ENDBRANCH  37  40
ENDBRANCH  30  34
ENDBRANCH  27  28
ENDBRANCH   4  27
TORSDOF 9
ENDMDL
MODEL 9
REMARK VINA RESULT:      -7.5      3.612      8.487
REMARK  9 active torsions:
REMARK  status: ('A' for Active; 'I' for Inactive)
REMARK    1  A    between atoms: C_2  and  C_3 
REMARK    2  A    between atoms: C_3  and  C_4 
REMARK    3  A    between atoms: C_3  and  C_38 
REMARK    4  A    between atoms: C_6  and  C_7 
REMARK    5  A    between atoms: C_14  and  C_15 
REMARK    6  A    between atoms: C_18  and  C_19 
REMARK    7  A    between atoms: C_19  and  N_20 
REMARK       I    between atoms: N_20  and  C_21 
REMARK       I    between atoms: C_21  and  N_22 
REMARK    8  A    between atoms: N_22  and  C_23 
REMARK    9  A    between atoms: C_26  and  O_27 
ROOT
HETATM    1  C   UNL     1      40.625  -8.712   6.654  1.00  0.00     0.068 C 
HETATM    2  C   UNL     1      39.323  -9.544   6.475  1.00  0.00     0.001 C 
HETATM    3  C   UNL     1      39.654 -10.902   5.811  1.00  0.00     0.040 C 
HETATM    4  C   UNL     1      40.232 -10.692   4.398  1.00  0.00     0.206 C 
HETATM    5  N   UNL     1      40.420  -9.188   4.223  1.00  0.00    -0.065 N 
HETATM    6  H   UNL     1      40.914  -9.048   3.315  1.00  0.00     0.280 HD
HETATM    7  C   UNL     1      41.315  -8.564   5.283  1.00  0.00     0.246 C 
HETATM    8  C   UNL     1      38.389  -8.764   5.523  1.00  0.00     0.033 C 
HETATM    9  C   UNL     1      39.084  -8.494   4.184  1.00  0.00     0.236 C 
ENDROOT
BRANCH   1  10
HETATM   10  C   UNL     1      41.528  -9.291   7.722  1.00  0.00     0.045 A 
HETATM   11  N   UNL     1      41.179  -9.105   9.012  1.00  0.00    -0.233 NA
HETATM   12  C   UNL     1      42.038  -9.560   9.950  1.00  0.00     0.160 A 
HETATM   13  N   UNL     1      43.220 -10.135   9.678  1.00  0.00    -0.233 NA
HETATM   14  C   UNL     1      43.551 -10.314   8.384  1.00  0.00     0.043 A 
HETATM   15  C   UNL     1      42.711  -9.912   7.362  1.00  0.00     0.055 A 
BRANCH  12  16
HETATM   16  C   UNL     1      41.657  -9.408  11.362  1.00  0.00     0.014 A 
HETATM   17  C   UNL     1      42.625  -9.361  12.376  1.00  0.00     0.034 A 
HETATM   18  C   UNL     1      42.224  -9.209  13.693  1.00  0.00     0.117 A 
HETATM   19  N   UNL     1      40.935  -9.106  14.072  1.00  0.00    -0.273 NA
HETATM   20  C   UNL     1      40.007  -9.176  13.099  1.00  0.00     0.117 A 
HETATM   21  C   UNL     1      40.314  -9.318  11.755  1.00  0.00     0.034 A 
ENDBRANCH  12  16
BRANCH  14  22
HETATM   22  C   UNL     1      44.890 -10.981   8.117  1.00  0.00     0.037 C 
BRANCH  22  23
HETATM   23  C   UNL     1      46.061  -9.977   8.008  1.00  0.00     0.006 C 
HETATM   24  C   UNL     1      45.696  -8.569   8.463  1.00  0.00     0.006 C 
ENDBRANCH  22  23
BRANCH  22  25
HETATM   25  C   UNL     1      44.833 -11.865   6.853  1.00  0.00     0.006 C 
HETATM   26  C   UNL     1      45.854 -11.468   5.793  1.00  0.00     0.006 C 
ENDBRANCH  22  25
ENDBRANCH  14  22
ENDBRANCH   1  10
BRANCH   4  27
HETATM   27  C   UNL     1      41.516 -11.520   4.127  1.00  0.00     0.157 C 
BRANCH  27  28
HETATM   28  N   UNL     1      41.315 -12.923   3.757  1.00  0.00    -0.341 N 
HETATM   29  C   UNL     1      42.315 -13.865   3.846  1.00  0.00     0.320 C 
HETATM   30  N   UNL     1      41.838 -15.145   3.743  1.00  0.00    -0.309 N 
HETATM   31  O   UNL     1      43.484 -13.525   3.991  1.00  0.00    -0.247 OA
HETATM   32  H   UNL     1      40.860 -15.259   3.515  1.00  0.00     0.170 HD
HETATM   33  H   UNL     1      40.385 -13.279   3.937  1.00  0.00     0.164 HD
BRANCH  30  34
HETATM   34  C   UNL     1      42.566 -16.342   3.925  1.00  0.00     0.036 A 
HETATM   35  C   UNL     1      43.022 -16.798   5.162  1.00  0.00     0.032 A 
HETATM   36  C   UNL     1      43.694 -18.021   5.263  1.00  0.00     0.039 A 
HETATM   37  C   UNL     1      43.907 -18.814   4.136  1.00  0.00     0.068 A 
HETATM   38  C   UNL     1      43.477 -18.355   2.894  1.00  0.00     0.039 A 
HETATM   39  C   UNL     1      42.813 -17.125   2.790  1.00  0.00     0.032 A 
BRANCH  37  40
HETATM   40  O   UNL     1      44.550 -19.994   4.378  1.00  0.00    -0.356 OA
HETATM   41  C   UNL     1      43.975 -20.839   5.368  1.00  0.00     0.210 C 
ENDBRANCH  37  40
ENDBRANCH  30  34
ENDBRANCH  27  28
ENDBRANCH   4  27
TORSDOF 9
ENDMDL
MODEL 10
REMARK VINA RESULT:      -7.5      2.527      6.804
REMARK  9 active torsions:
REMARK  status: ('A' for Active; 'I' for Inactive)
REMARK    1  A    between atoms: C_2  and  C_3 
REMARK    2  A    between atoms: C_3  and  C_4 
REMARK    3  A    between atoms: C_3  and  C_38 
REMARK    4  A    between atoms: C_6  and  C_7 
REMARK    5  A    between atoms: C_14  and  C_15 
REMARK    6  A    between atoms: C_18  and  C_19 
REMARK    7  A    between atoms: C_19  and  N_20 
REMARK       I    between atoms: N_20  and  C_21 
REMARK       I    between atoms: C_21  and  N_22 
REMARK    8  A    between atoms: N_22  and  C_23 
REMARK    9  A    between atoms: C_26  and  O_27 
ROOT
HETATM    1  C   UNL     1      42.587 -14.491   1.914  1.00  0.00     0.068 C 
HETATM    2  C   UNL     1      42.271 -15.959   1.510  1.00  0.00     0.001 C 
HETATM    3  C   UNL     1      41.032 -16.465   2.287  1.00  0.00     0.040 C 
HETATM    4  C   UNL     1      41.308 -16.482   3.803  1.00  0.00     0.206 C 
HETATM    5  N   UNL     1      42.675 -15.834   4.004  1.00  0.00    -0.065 N 
HETATM    6  H   UNL     1      42.818 -15.742   5.034  1.00  0.00     0.280 HD
HETATM    7  C   UNL     1      42.762 -14.422   3.445  1.00  0.00     0.246 C 
HETATM    8  C   UNL     1      43.477 -16.835   1.918  1.00  0.00     0.033 C 
HETATM    9  C   UNL     1      43.758 -16.702   3.419  1.00  0.00     0.236 C 
ENDROOT
BRANCH   1  10
HETATM   10  C   UNL     1      41.554 -13.520   1.383  1.00  0.00     0.045 A 
HETATM   11  N   UNL     1      41.241 -12.453   2.146  1.00  0.00    -0.233 NA
HETATM   12  C   UNL     1      40.262 -11.641   1.690  1.00  0.00     0.160 A 
HETATM   13  N   UNL     1      39.561 -11.858   0.566  1.00  0.00    -0.233 NA
HETATM   14  C   UNL     1      39.889 -12.929  -0.184  1.00  0.00     0.043 A 
HETATM   15  C   UNL     1      40.905 -13.788   0.191  1.00  0.00     0.055 A 
BRANCH  12  16
HETATM   16  C   UNL     1      39.935 -10.447   2.483  1.00  0.00     0.014 A 
HETATM   17  C   UNL     1      40.935  -9.561   2.912  1.00  0.00     0.034 A 
HETATM   18  C   UNL     1      40.582  -8.445   3.652  1.00  0.00     0.117 A 
HETATM   19  N   UNL     1      39.314  -8.149   3.998  1.00  0.00    -0.273 NA
HETATM   20  C   UNL     1      38.359  -9.015   3.607  1.00  0.00     0.117 A 
HETATM   21  C   UNL     1      38.616 -10.152   2.857  1.00  0.00     0.034 A 
ENDBRANCH  12  16
BRANCH  14  22
HETATM   22  C   UNL     1      39.084 -13.132  -1.456  1.00  0.00     0.037 C 
BRANCH  22  23
HETATM   23  C   UNL     1      39.285 -14.529  -2.088  1.00  0.00     0.006 C 
HETATM   24  C   UNL     1      38.311 -14.827  -3.222  1.00  0.00     0.006 C 
ENDBRANCH  22  23
BRANCH  22  25
HETATM   25  C   UNL     1      39.391 -12.033  -2.495  1.00  0.00     0.006 C 
HETATM   26  C   UNL     1      40.826 -12.069  -3.005  1.00  0.00     0.006 C 
ENDBRANCH  22  25
ENDBRANCH  14  22
ENDBRANCH   1  10
BRANCH   4  27
HETATM   27  C   UNL     1      40.177 -15.834   4.645  1.00  0.00     0.157 C 
BRANCH  27  28
HETATM   28  N   UNL     1      40.048 -14.379   4.543  1.00  0.00    -0.341 N 
HETATM   29  C   UNL     1      40.070 -13.553   5.644  1.00  0.00     0.320 C 
HETATM   30  N   UNL     1      40.237 -12.236   5.307  1.00  0.00    -0.309 N 
HETATM   31  O   UNL     1      39.939 -14.012   6.774  1.00  0.00    -0.247 OA
HETATM   32  H   UNL     1      40.220 -12.003   4.323  1.00  0.00     0.170 HD
HETATM   33  H   UNL     1      40.451 -13.975   3.707  1.00  0.00     0.164 HD
BRANCH  30  34
HETATM   34  C   UNL     1      40.436 -11.149   6.187  1.00  0.00     0.036 A 
HETATM   35  C   UNL     1      41.687 -10.610   6.490  1.00  0.00     0.032 A 
HETATM   36  C   UNL     1      41.794  -9.500   7.335  1.00  0.00     0.039 A 
HETATM   37  C   UNL     1      40.656  -8.903   7.878  1.00  0.00     0.068 A 
HETATM   38  C   UNL     1      39.407  -9.451   7.601  1.00  0.00     0.039 A 
HETATM   39  C   UNL     1      39.299 -10.570   6.763  1.00  0.00     0.032 A 
BRANCH  37  40
HETATM   40  O   UNL     1      40.900  -7.813   8.663  1.00  0.00    -0.356 OA
HETATM   41  C   UNL     1      40.815  -8.011  10.069  1.00  0.00     0.210 C 
ENDBRANCH  37  40
ENDBRANCH  30  34
ENDBRANCH  27  28
ENDBRANCH   4  27
TORSDOF 9
ENDMDL
