MODEL 1
REMARK VINA RESULT:      -8.0      0.000      0.000
REMARK  3 active torsions:
REMARK  status: ('A' for Active; 'I' for Inactive)
REMARK    1  A    between atoms: C_4  and  C_5 
REMARK    2  A    between atoms: C_5  and  N_6 
REMARK    3  A    between atoms: N_10  and  S_11 
ROOT
HETATM    1  N   UNL     1      42.525 -15.558   1.300  1.00  0.00    -0.063 N 
HETATM    2  H   UNL     1      43.193 -16.330   1.214  1.00  0.00     0.280 HD
HETATM    3  C   UNL     1      43.252 -14.143   2.294  1.00  0.00     0.267 C 
HETATM    4  C   UNL     1      42.294 -13.878   3.959  1.00  0.00     0.067 C 
HETATM    5  N   UNL     1      41.951 -12.423   4.246  1.00  0.00    -0.300 N 
HETATM    6  C   UNL     1      41.242 -12.170   5.534  1.00  0.00     0.136 C 
HETATM    7  C   UNL     1      42.058 -12.687   6.717  1.00  0.00     0.021 C 
HETATM    8  C   UNL     1      42.623 -14.088   6.507  1.00  0.00     0.004 C 
HETATM    9  C   UNL     1      43.266 -14.264   5.127  1.00  0.00     0.033 C 
HETATM   10  C   UNL     1      40.719 -14.954   4.180  1.00  0.00     0.035 C 
HETATM   11  C   UNL     1      39.832 -15.864   2.767  1.00  0.00     0.030 C 
HETATM   12  C   UNL     1      40.772 -16.139   1.127  1.00  0.00     0.235 C 
ENDROOT
BRANCH   5  13
HETATM   13  S   UNL     1      42.804 -11.096   3.603  1.00  0.00     0.225 S 
HETATM   14  C   UNL     1      42.115  -9.657   4.396  1.00  0.00     0.186 C 
HETATM   15  O   UNL     1      44.176 -11.166   4.047  1.00  0.00    -0.206 OA
HETATM   16  O   UNL     1      42.463 -11.021   2.201  1.00  0.00    -0.206 OA
ENDBRANCH   5  13
BRANCH   1  17
HETATM   17  C   UNL     1      41.932 -15.503   2.488  1.00  0.00     0.299 C 
BRANCH  17  18
HETATM   18  C   UNL     1      42.945 -17.034   3.027  1.00  0.00     0.079 A 
HETATM   19  O   UNL     1      42.835 -18.120   2.146  1.00  0.00    -0.318 OA
HETATM   20  C   UNL     1      43.562 -19.164   2.609  1.00  0.00     0.049 A 
HETATM   21  C   UNL     1      43.482 -20.423   1.842  1.00  0.00     0.076 C 
HETATM   22  C   UNL     1      44.226 -18.799   3.749  1.00  0.00     0.035 A 
HETATM   23  C   UNL     1      43.863 -17.451   4.007  1.00  0.00     0.037 A 
ENDBRANCH  17  18
ENDBRANCH   1  17
TORSDOF 3
ENDMDL
MODEL 2
REMARK VINA RESULT:      -7.7      2.629      3.832
REMARK  3 active torsions:
REMARK  status: ('A' for Active; 'I' for Inactive)
REMARK    1  A    between atoms: C_4  and  C_5 
REMARK    2  A    between atoms: C_5  and  N_6 
REMARK    3  A    between atoms: N_10  and  S_11 
ROOT
HETATM    1  N   UNL     1      40.578 -13.936   4.921  1.00  0.00    -0.063 N 
HETATM    2  H   UNL     1      40.606 -14.251   3.946  1.00  0.00     0.280 HD
HETATM    3  C   UNL     1      41.201 -12.174   5.080  1.00  0.00     0.267 C 
HETATM    4  C   UNL     1      42.840 -12.089   6.113  1.00  0.00     0.067 C 
HETATM    5  N   UNL     1      42.843 -10.998   7.173  1.00  0.00    -0.300 N 
HETATM    6  C   UNL     1      44.099 -10.877   7.969  1.00  0.00     0.136 C 
HETATM    7  C   UNL     1      45.301 -10.631   7.060  1.00  0.00     0.021 C 
HETATM    8  C   UNL     1      45.345 -11.547   5.842  1.00  0.00     0.004 C 
HETATM    9  C   UNL     1      43.989 -11.658   5.137  1.00  0.00     0.033 C 
HETATM   10  C   UNL     1      43.393 -13.747   6.909  1.00  0.00     0.035 C 
HETATM   11  C   UNL     1      42.269 -15.263   7.130  1.00  0.00     0.030 C 
HETATM   12  C   UNL     1      40.658 -15.359   6.107  1.00  0.00     0.235 C 
ENDROOT
BRANCH   5  13
HETATM   13  S   UNL     1      41.878  -9.595   7.103  1.00  0.00     0.225 S 
HETATM   14  C   UNL     1      42.618  -8.450   8.249  1.00  0.00     0.186 C 
HETATM   15  O   UNL     1      42.029  -8.993   5.799  1.00  0.00    -0.206 OA
HETATM   16  O   UNL     1      40.582  -9.956   7.628  1.00  0.00    -0.206 OA
ENDBRANCH   5  13
BRANCH   1  17
HETATM   17  C   UNL     1      41.769 -13.941   5.510  1.00  0.00     0.299 C 
BRANCH  17  18
HETATM   18  C   UNL     1      42.535 -14.595   3.884  1.00  0.00     0.079 A 
HETATM   19  O   UNL     1      42.467 -15.990   3.751  1.00  0.00    -0.318 OA
HETATM   20  C   UNL     1      43.046 -16.370   2.588  1.00  0.00     0.049 A 
HETATM   21  C   UNL     1      43.139 -17.822   2.336  1.00  0.00     0.076 C 
HETATM   22  C   UNL     1      43.447 -15.267   1.886  1.00  0.00     0.035 A 
HETATM   23  C   UNL     1      43.108 -14.142   2.682  1.00  0.00     0.037 A 
ENDBRANCH  17  18
ENDBRANCH   1  17
TORSDOF 3
ENDMDL
MODEL 3
REMARK VINA RESULT:      -7.6      2.468      3.652
REMARK  3 active torsions:
REMARK  status: ('A' for Active; 'I' for Inactive)
REMARK    1  A    between atoms: C_4  and  C_5 
REMARK    2  A    between atoms: C_5  and  N_6 
REMARK    3  A    between atoms: N_10  and  S_11 
ROOT
HETATM    1  N   UNL     1      41.479 -16.604   6.130  1.00  0.00    -0.063 N 
HETATM    2  H   UNL     1      41.568 -17.519   5.677  1.00  0.00     0.280 HD
HETATM    3  C   UNL     1      40.634 -15.369   4.999  1.00  0.00     0.267 C 
HETATM    4  C   UNL     1      41.829 -13.926   4.500  1.00  0.00     0.067 C 
HETATM    5  N   UNL     1      41.209 -12.543   4.624  1.00  0.00    -0.300 N 
HETATM    6  C   UNL     1      42.085 -11.405   4.219  1.00  0.00     0.136 C 
HETATM    7  C   UNL     1      42.555 -11.565   2.776  1.00  0.00     0.021 C 
HETATM    8  C   UNL     1      43.053 -12.968   2.445  1.00  0.00     0.004 C 
HETATM    9  C   UNL     1      42.119 -14.064   2.966  1.00  0.00     0.033 C 
HETATM   10  C   UNL     1      43.536 -13.935   5.381  1.00  0.00     0.035 C 
HETATM   11  C   UNL     1      43.931 -14.928   6.952  1.00  0.00     0.030 C 
HETATM   12  C   UNL     1      42.764 -16.358   7.444  1.00  0.00     0.235 C 
ENDROOT
BRANCH   5  13
HETATM   13  S   UNL     1      39.533 -12.239   4.565  1.00  0.00     0.225 S 
HETATM   14  C   UNL     1      39.375 -10.471   4.401  1.00  0.00     0.186 C 
HETATM   15  O   UNL     1      39.004 -12.792   3.341  1.00  0.00    -0.206 OA
HETATM   16  O   UNL     1      38.999 -12.602   5.857  1.00  0.00    -0.206 OA
ENDBRANCH   5  13
BRANCH   1  17
HETATM   17  C   UNL     1      42.370 -15.715   5.702  1.00  0.00     0.299 C 
BRANCH  17  18
HETATM   18  C   UNL     1      43.127 -17.065   4.578  1.00  0.00     0.079 A 
HETATM   19  O   UNL     1      43.448 -18.250   5.258  1.00  0.00    -0.318 OA
HETATM   20  C   UNL     1      43.995 -19.140   4.397  1.00  0.00     0.049 A 
HETATM   21  C   UNL     1      44.475 -20.412   4.974  1.00  0.00     0.076 C 
HETATM   22  C   UNL     1      43.993 -18.624   3.130  1.00  0.00     0.035 A 
HETATM   23  C   UNL     1      43.426 -17.327   3.229  1.00  0.00     0.037 A 
ENDBRANCH  17  18
ENDBRANCH   1  17
TORSDOF 3
ENDMDL
MODEL 4
REMARK VINA RESULT:      -7.5      2.184      3.091
REMARK  3 active torsions:
REMARK  status: ('A' for Active; 'I' for Inactive)
REMARK    1  A    between atoms: C_4  and  C_5 
REMARK    2  A    between atoms: C_5  and  N_6 
REMARK    3  A    between atoms: N_10  and  S_11 
ROOT
HETATM    1  N   UNL     1      40.254 -16.412   4.350  1.00  0.00    -0.063 N 
HETATM    2  H   UNL     1      40.730 -17.274   4.068  1.00  0.00     0.280 HD
HETATM    3  C   UNL     1      40.390 -15.098   3.017  1.00  0.00     0.267 C 
HETATM    4  C   UNL     1      41.428 -13.576   3.623  1.00  0.00     0.067 C 
HETATM    5  N   UNL     1      40.787 -12.232   3.310  1.00  0.00    -0.300 N 
HETATM    6  C   UNL     1      41.569 -11.032   3.730  1.00  0.00     0.136 C 
HETATM    7  C   UNL     1      42.955 -11.034   3.093  1.00  0.00     0.021 C 
HETATM    8  C   UNL     1      43.666 -12.381   3.174  1.00  0.00     0.004 C 
HETATM    9  C   UNL     1      42.757 -13.553   2.791  1.00  0.00     0.033 C 
HETATM   10  C   UNL     1      41.942 -13.618   5.473  1.00  0.00     0.035 C 
HETATM   11  C   UNL     1      41.156 -14.748   6.782  1.00  0.00     0.030 C 
HETATM   12  C   UNL     1      40.141 -16.256   6.194  1.00  0.00     0.235 C 
ENDROOT
BRANCH   5  13
HETATM   13  S   UNL     1      39.667 -11.977   2.052  1.00  0.00     0.225 S 
HETATM   14  C   UNL     1      39.539 -10.208   1.879  1.00  0.00     0.186 C 
HETATM   15  O   UNL     1      40.243 -12.448   0.815  1.00  0.00    -0.206 OA
HETATM   16  O   UNL     1      38.390 -12.458   2.528  1.00  0.00    -0.206 OA
ENDBRANCH   5  13
BRANCH   1  17
HETATM   17  C   UNL     1      41.085 -15.457   4.754  1.00  0.00     0.299 C 
BRANCH  17  18
HETATM   18  C   UNL     1      42.530 -16.704   4.617  1.00  0.00     0.079 A 
HETATM   19  O   UNL     1      42.525 -17.442   3.424  1.00  0.00    -0.318 OA
HETATM   20  C   UNL     1      43.563 -18.311   3.417  1.00  0.00     0.049 A 
HETATM   21  C   UNL     1      43.651 -19.231   2.266  1.00  0.00     0.076 C 
HETATM   22  C   UNL     1      44.321 -18.140   4.543  1.00  0.00     0.035 A 
HETATM   23  C   UNL     1      43.693 -17.113   5.294  1.00  0.00     0.037 A 
ENDBRANCH  17  18
ENDBRANCH   1  17
TORSDOF 3
ENDMDL
MODEL 5
REMARK VINA RESULT:      -7.3      2.934      4.551
REMARK  3 active torsions:
REMARK  status: ('A' for Active; 'I' for Inactive)
REMARK    1  A    between atoms: C_4  and  C_5 
REMARK    2  A    between atoms: C_5  and  N_6 
REMARK    3  A    between atoms: N_10  and  S_11 
ROOT
HETATM    1  N   UNL     1      40.684 -15.016   6.382  1.00  0.00    -0.063 N 
HETATM    2  H   UNL     1      40.490 -15.720   5.663  1.00  0.00     0.280 HD
HETATM    3  C   UNL     1      39.791 -13.408   6.011  1.00  0.00     0.267 C 
HETATM    4  C   UNL     1      41.039 -11.971   5.642  1.00  0.00     0.067 C 
HETATM    5  N   UNL     1      40.720 -10.676   6.375  1.00  0.00    -0.300 N 
HETATM    6  C   UNL     1      41.638  -9.534   6.094  1.00  0.00     0.136 C 
HETATM    7  C   UNL     1      41.670  -9.215   4.601  1.00  0.00     0.021 C 
HETATM    8  C   UNL     1      41.814 -10.446   3.714  1.00  0.00     0.004 C 
HETATM    9  C   UNL     1      40.879 -11.587   4.130  1.00  0.00     0.033 C 
HETATM   10  C   UNL     1      42.891 -12.406   5.902  1.00  0.00     0.035 C 
HETATM   11  C   UNL     1      43.516 -13.908   6.884  1.00  0.00     0.030 C 
HETATM   12  C   UNL     1      42.295 -15.334   7.242  1.00  0.00     0.235 C 
ENDROOT
BRANCH   5  13
HETATM   13  S   UNL     1      39.168 -10.253   6.935  1.00  0.00     0.225 S 
HETATM   14  C   UNL     1      39.300  -8.560   7.474  1.00  0.00     0.186 C 
HETATM   15  O   UNL     1      38.259 -10.233   5.813  1.00  0.00    -0.206 OA
HETATM   16  O   UNL     1      38.913 -11.060   8.105  1.00  0.00    -0.206 OA
ENDBRANCH   5  13
BRANCH   1  17
HETATM   17  C   UNL     1      41.566 -14.100   5.998  1.00  0.00     0.299 C 
BRANCH  17  18
HETATM   18  C   UNL     1      41.839 -15.087   4.383  1.00  0.00     0.079 A 
HETATM   19  O   UNL     1      40.753 -15.028   3.496  1.00  0.00    -0.318 OA
HETATM   20  C   UNL     1      41.019 -15.766   2.394  1.00  0.00     0.049 A 
HETATM   21  C   UNL     1      39.937 -15.883   1.396  1.00  0.00     0.076 C 
HETATM   22  C   UNL     1      42.287 -16.274   2.468  1.00  0.00     0.035 A 
HETATM   23  C   UNL     1      42.822 -15.832   3.707  1.00  0.00     0.037 A 
ENDBRANCH  17  18
ENDBRANCH   1  17
TORSDOF 3
ENDMDL
MODEL 6
REMARK VINA RESULT:      -7.2      1.766      2.457
REMARK  3 active torsions:
REMARK  status: ('A' for Active; 'I' for Inactive)
REMARK    1  A    between atoms: C_4  and  C_5 
REMARK    2  A    between atoms: C_5  and  N_6 
REMARK    3  A    between atoms: N_10  and  S_11 
ROOT
HETATM    1  N   UNL     1      43.655 -14.948   2.156  1.00  0.00    -0.063 N 
HETATM    2  H   UNL     1      44.377 -15.481   2.651  1.00  0.00     0.280 HD
HETATM    3  C   UNL     1      43.322 -13.310   3.007  1.00  0.00     0.267 C 
HETATM    4  C   UNL     1      41.521 -13.233   3.721  1.00  0.00     0.067 C 
HETATM    5  N   UNL     1      40.788 -11.938   3.402  1.00  0.00    -0.300 N 
HETATM    6  C   UNL     1      39.409 -11.823   3.961  1.00  0.00     0.136 C 
HETATM    7  C   UNL     1      39.421 -11.977   5.480  1.00  0.00     0.021 C 
HETATM    8  C   UNL     1      40.266 -13.147   5.971  1.00  0.00     0.004 C 
HETATM    9  C   UNL     1      41.635 -13.216   5.285  1.00  0.00     0.033 C 
HETATM   10  C   UNL     1      40.396 -14.723   3.271  1.00  0.00     0.035 C 
HETATM   11  C   UNL     1      40.758 -15.961   1.876  1.00  0.00     0.030 C 
HETATM   12  C   UNL     1      42.533 -16.051   1.175  1.00  0.00     0.235 C 
ENDROOT
BRANCH   5  13
HETATM   13  S   UNL     1      41.565 -10.462   3.052  1.00  0.00     0.225 S 
HETATM   14  C   UNL     1      40.266  -9.245   2.978  1.00  0.00     0.186 C 
HETATM   15  O   UNL     1      42.384 -10.088   4.181  1.00  0.00    -0.206 OA
HETATM   16  O   UNL     1      42.116 -10.588   1.722  1.00  0.00    -0.206 OA
ENDBRANCH   5  13
BRANCH   1  17
HETATM   17  C   UNL     1      42.467 -14.993   2.749  1.00  0.00     0.299 C 
BRANCH  17  18
HETATM   18  C   UNL     1      43.139 -16.348   3.920  1.00  0.00     0.079 A 
HETATM   19  O   UNL     1      43.238 -15.937   5.258  1.00  0.00    -0.318 OA
HETATM   20  C   UNL     1      43.740 -16.944   6.011  1.00  0.00     0.049 A 
HETATM   21  C   UNL     1      43.993 -16.645   7.435  1.00  0.00     0.076 C 
HETATM   22  C   UNL     1      43.921 -18.058   5.238  1.00  0.00     0.035 A 
HETATM   23  C   UNL     1      43.523 -17.701   3.924  1.00  0.00     0.037 A 
ENDBRANCH  17  18
ENDBRANCH   1  17
TORSDOF 3
ENDMDL
MODEL 7
REMARK VINA RESULT:      -7.2     15.179     16.770
REMARK  3 active torsions:
REMARK  status: ('A' for Active; 'I' for Inactive)
REMARK    1  A    between atoms: C_4  and  C_5 
REMARK    2  A    between atoms: C_5  and  N_6 
REMARK    3  A    between atoms: N_10  and  S_11 
ROOT
HETATM    1  N   UNL     1      44.284 -29.691   0.250  1.00  0.00    -0.063 N 
HETATM    2  H   UNL     1      43.899 -29.023  -0.425  1.00  0.00     0.280 HD
HETATM    3  C   UNL     1      45.809 -28.996   1.093  1.00  0.00     0.267 C 
HETATM    4  C   UNL     1      47.397 -30.014   0.643  1.00  0.00     0.067 C 
HETATM    5  N   UNL     1      48.265 -30.361   1.843  1.00  0.00    -0.300 N 
HETATM    6  C   UNL     1      49.515 -31.117   1.537  1.00  0.00     0.136 C 
HETATM    7  C   UNL     1      50.390 -30.348   0.551  1.00  0.00     0.021 C 
HETATM    8  C   UNL     1      49.621 -29.781  -0.637  1.00  0.00     0.004 C 
HETATM    9  C   UNL     1      48.319 -29.088  -0.222  1.00  0.00     0.033 C 
HETATM   10  C   UNL     1      47.087 -31.600  -0.395  1.00  0.00     0.035 C 
HETATM   11  C   UNL     1      45.394 -32.438  -0.599  1.00  0.00     0.030 C 
HETATM   12  C   UNL     1      43.824 -31.438  -0.169  1.00  0.00     0.235 C 
ENDROOT
BRANCH   5  13
HETATM   13  S   UNL     1      48.276 -29.480   3.301  1.00  0.00     0.225 S 
HETATM   14  C   UNL     1      49.766 -29.974   4.146  1.00  0.00     0.186 C 
HETATM   15  O   UNL     1      48.449 -28.079   2.997  1.00  0.00    -0.206 OA
HETATM   16  O   UNL     1      47.158 -29.955   4.084  1.00  0.00    -0.206 OA
ENDBRANCH   5  13
BRANCH   1  17
HETATM   17  C   UNL     1      45.363 -30.327  -0.195  1.00  0.00     0.299 C 
BRANCH  17  18
HETATM   18  C   UNL     1      45.221 -29.351  -1.834  1.00  0.00     0.079 A 
HETATM   19  O   UNL     1      44.588 -30.065  -2.862  1.00  0.00    -0.318 OA
HETATM   20  C   UNL     1      44.548 -29.314  -3.987  1.00  0.00     0.049 A 
HETATM   21  C   UNL     1      43.991 -29.955  -5.194  1.00  0.00     0.076 C 
HETATM   22  C   UNL     1      45.074 -28.076  -3.738  1.00  0.00     0.035 A 
HETATM   23  C   UNL     1      45.480 -28.080  -2.379  1.00  0.00     0.037 A 
ENDBRANCH  17  18
ENDBRANCH   1  17
TORSDOF 3
ENDMDL
MODEL 8
REMARK VINA RESULT:      -7.0      2.445      6.497
REMARK  3 active torsions:
REMARK  status: ('A' for Active; 'I' for Inactive)
REMARK    1  A    between atoms: C_4  and  C_5 
REMARK    2  A    between atoms: C_5  and  N_6 
REMARK    3  A    between atoms: N_10  and  S_11 
ROOT
HETATM    1  N   UNL     1      41.762 -11.947   3.438  1.00  0.00    -0.063 N 
HETATM    2  H   UNL     1      40.864 -11.480   3.596  1.00  0.00     0.280 HD
HETATM    3  C   UNL     1      41.537 -13.798   3.238  1.00  0.00     0.267 C 
HETATM    4  C   UNL     1      42.384 -14.777   4.682  1.00  0.00     0.067 C 
HETATM    5  N   UNL     1      43.220 -15.960   4.215  1.00  0.00    -0.300 N 
HETATM    6  C   UNL     1      43.864 -16.760   5.297  1.00  0.00     0.136 C 
HETATM    7  C   UNL     1      42.821 -17.298   6.273  1.00  0.00     0.021 C 
HETATM    8  C   UNL     1      41.793 -16.258   6.707  1.00  0.00     0.004 C 
HETATM    9  C   UNL     1      41.246 -15.443   5.531  1.00  0.00     0.033 C 
HETATM   10  C   UNL     1      43.420 -13.711   5.898  1.00  0.00     0.035 C 
HETATM   11  C   UNL     1      44.017 -11.943   5.539  1.00  0.00     0.030 C 
HETATM   12  C   UNL     1      43.179 -10.968   4.125  1.00  0.00     0.235 C 
ENDROOT
BRANCH   5  13
HETATM   13  S   UNL     1      42.980 -16.776   2.739  1.00  0.00     0.225 S 
HETATM   14  C   UNL     1      43.841 -18.327   2.907  1.00  0.00     0.186 C 
HETATM   15  O   UNL     1      41.582 -17.118   2.620  1.00  0.00    -0.206 OA
HETATM   16  O   UNL     1      43.664 -16.010   1.724  1.00  0.00    -0.206 OA
ENDBRANCH   5  13
BRANCH   1  17
HETATM   17  C   UNL     1      42.233 -12.567   4.514  1.00  0.00     0.299 C 
BRANCH  17  18
HETATM   18  C   UNL     1      40.717 -11.938   5.497  1.00  0.00     0.079 A 
HETATM   19  O   UNL     1      40.942 -10.725   6.164  1.00  0.00    -0.318 OA
HETATM   20  C   UNL     1      39.831 -10.364   6.849  1.00  0.00     0.049 A 
HETATM   21  C   UNL     1      39.930  -9.149   7.683  1.00  0.00     0.076 C 
HETATM   22  C   UNL     1      38.826 -11.261   6.612  1.00  0.00     0.035 A 
HETATM   23  C   UNL     1      39.366 -12.244   5.742  1.00  0.00     0.037 A 
ENDBRANCH  17  18
ENDBRANCH   1  17
TORSDOF 3
ENDMDL
MODEL 9
REMARK VINA RESULT:      -6.9     15.688     17.225
REMARK  3 active torsions:
REMARK  status: ('A' for Active; 'I' for Inactive)
REMARK    1  A    between atoms: C_4  and  C_5 
REMARK    2  A    between atoms: C_5  and  N_6 
REMARK    3  A    between atoms: N_10  and  S_11 
ROOT
HETATM    1  N   UNL     1      45.226 -31.844   0.997  1.00  0.00    -0.063 N 
HETATM    2  H   UNL     1      46.051 -31.779   1.602  1.00  0.00     0.280 HD
HETATM    3  C   UNL     1      45.715 -31.827  -0.815  1.00  0.00     0.267 C 
HETATM    4  C   UNL     1      45.052 -30.243  -1.716  1.00  0.00     0.067 C 
HETATM    5  N   UNL     1      44.387 -30.530  -3.054  1.00  0.00    -0.300 N 
HETATM    6  C   UNL     1      43.892 -29.334  -3.796  1.00  0.00     0.136 C 
HETATM    7  C   UNL     1      45.024 -28.344  -4.054  1.00  0.00     0.021 C 
HETATM    8  C   UNL     1      45.899 -28.081  -2.833  1.00  0.00     0.004 C 
HETATM    9  C   UNL     1      46.294 -29.368  -2.102  1.00  0.00     0.033 C 
HETATM   10  C   UNL     1      43.900 -29.123  -0.663  1.00  0.00     0.035 C 
HETATM   11  C   UNL     1      43.044 -29.668   0.943  1.00  0.00     0.030 C 
HETATM   12  C   UNL     1      43.698 -31.222   1.842  1.00  0.00     0.235 C 
ENDROOT
BRANCH   5  13
HETATM   13  S   UNL     1      44.711 -31.906  -4.006  1.00  0.00     0.225 S 
HETATM   14  C   UNL     1      44.029 -31.544  -5.612  1.00  0.00     0.186 C 
HETATM   15  O   UNL     1      46.137 -32.010  -4.203  1.00  0.00    -0.206 OA
HETATM   16  O   UNL     1      43.940 -32.991  -3.444  1.00  0.00    -0.206 OA
ENDBRANCH   5  13
BRANCH   1  17
HETATM   17  C   UNL     1      44.876 -30.682   0.455  1.00  0.00     0.299 C 
BRANCH  17  18
HETATM   18  C   UNL     1      46.260 -29.832   1.466  1.00  0.00     0.079 A 
HETATM   19  O   UNL     1      47.542 -30.333   1.197  1.00  0.00    -0.318 OA
HETATM   20  C   UNL     1      48.456 -29.695   1.966  1.00  0.00     0.049 A 
HETATM   21  C   UNL     1      49.851 -30.168   1.870  1.00  0.00     0.076 C 
HETATM   22  C   UNL     1      47.843 -28.720   2.704  1.00  0.00     0.035 A 
HETATM   23  C   UNL     1      46.463 -28.782   2.379  1.00  0.00     0.037 A 
ENDBRANCH  17  18
ENDBRANCH   1  17
TORSDOF 3
ENDMDL
MODEL 10
REMARK VINA RESULT:      -6.8      9.521     11.895
REMARK  3 active torsions:
REMARK  status: ('A' for Active; 'I' for Inactive)
REMARK    1  A    between atoms: C_4  and  C_5 
REMARK    2  A    between atoms: C_5  and  N_6 
REMARK    3  A    between atoms: N_10  and  S_11 
ROOT
HETATM    1  N   UNL     1      40.589  -8.351  10.506  1.00  0.00    -0.063 N 
HETATM    2  H   UNL     1      41.366  -8.516   9.859  1.00  0.00     0.280 HD
HETATM    3  C   UNL     1      40.852  -6.776  11.491  1.00  0.00     0.267 C 
HETATM    4  C   UNL     1      41.076  -7.148  13.381  1.00  0.00     0.067 C 
HETATM    5  N   UNL     1      40.250  -6.247  14.287  1.00  0.00    -0.300 N 
HETATM    6  C   UNL     1      40.417  -6.478  15.751  1.00  0.00     0.136 C 
HETATM    7  C   UNL     1      41.878  -6.322  16.165  1.00  0.00     0.021 C 
HETATM    8  C   UNL     1      42.857  -7.037  15.240  1.00  0.00     0.004 C 
HETATM    9  C   UNL     1      42.555  -6.792  13.758  1.00  0.00     0.033 C 
HETATM   10  C   UNL     1      40.807  -8.979  13.893  1.00  0.00     0.035 C 
HETATM   11  C   UNL     1      39.933 -10.280  12.819  1.00  0.00     0.030 C 
HETATM   12  C   UNL     1      39.719  -9.926  10.954  1.00  0.00     0.235 C 
ENDROOT
BRANCH   5  13
HETATM   13  S   UNL     1      39.696  -4.698  13.845  1.00  0.00     0.225 S 
HETATM   14  C   UNL     1      39.130  -3.944  15.358  1.00  0.00     0.186 C 
HETATM   15  O   UNL     1      40.823  -3.906  13.414  1.00  0.00    -0.206 OA
HETATM   16  O   UNL     1      38.539  -4.894  13.002  1.00  0.00    -0.206 OA
ENDBRANCH   5  13
BRANCH   1  17
HETATM   17  C   UNL     1      40.877  -8.661  11.766  1.00  0.00     0.299 C 
BRANCH  17  18
HETATM   18  C   UNL     1      42.572  -9.326  11.179  1.00  0.00     0.079 A 
HETATM   19  O   UNL     1      43.160  -8.553  10.166  1.00  0.00    -0.318 OA
HETATM   20  C   UNL     1      44.341  -9.102   9.796  1.00  0.00     0.049 A 
HETATM   21  C   UNL     1      45.049  -8.458   8.672  1.00  0.00     0.076 C 
HETATM   22  C   UNL     1      44.613 -10.191  10.578  1.00  0.00     0.035 A 
HETATM   23  C   UNL     1      43.517 -10.327  11.468  1.00  0.00     0.037 A 
ENDBRANCH  17  18
ENDBRANCH   1  17
TORSDOF 3
ENDMDL
