MODEL 1
REMARK VINA RESULT:      -9.3      0.000      0.000
REMARK  10 active torsions:
REMARK  status: ('A' for Active; 'I' for Inactive)
REMARK    1  A    between atoms: C_2  and  C_3 
REMARK    2  A    between atoms: C_3  and  C_4 
REMARK    3  A    between atoms: C_4  and  O_5 
REMARK    4  A    between atoms: O_5  and  C_6 
REMARK    5  A    between atoms: C_9  and  C_10 
REMARK       I    between atoms: C_10  and  N_11 
REMARK    6  A    between atoms: N_11  and  C_12 
REMARK    7  A    between atoms: C_12  and  N_13 
REMARK    8  A    between atoms: N_13  and  C_14 
REMARK    9  A    between atoms: C_16  and  C_17 
REMARK   10  A    between atoms: C_27  and  O_28 
ROOT
HETATM    1  N   UNL     1      44.513 -11.504   8.111  1.00  0.00    -0.333 N 
HETATM    2  H   UNL     1      45.208 -12.088   8.569  1.00  0.00     0.168 HD
ENDROOT
BRANCH   1   3
HETATM    3  C   UNL     1      44.334 -10.321   8.773  1.00  0.00     0.179 C 
HETATM    4  S   UNL     1      45.217  -9.007   8.223  1.00  0.00    -0.040 SA
BRANCH   3   5
HETATM    5  N   UNL     1      43.388 -10.285   9.762  1.00  0.00    -0.299 N 
HETATM    6  C   UNL     1      43.613 -10.580  11.098  1.00  0.00     0.257 C 
HETATM    7  O   UNL     1      44.182 -11.589  11.500  1.00  0.00    -0.267 OA
HETATM    8  H   UNL     1      42.628  -9.651   9.555  1.00  0.00     0.171 HD
BRANCH   6   9
HETATM    9  C   UNL     1      42.908  -9.712  12.064  1.00  0.00     0.032 A 
HETATM   10  C   UNL     1      41.698 -10.150  12.606  1.00  0.00     0.020 A 
HETATM   11  C   UNL     1      41.030  -9.364  13.550  1.00  0.00     0.038 A 
HETATM   12  C   UNL     1      41.581  -8.151  13.968  1.00  0.00     0.068 A 
HETATM   13  C   UNL     1      42.806  -7.731  13.436  1.00  0.00     0.038 A 
HETATM   14  C   UNL     1      43.471  -8.502  12.479  1.00  0.00     0.020 A 
BRANCH  12  15
HETATM   15  O   UNL     1      41.042  -7.307  14.900  1.00  0.00    -0.351 OA
BRANCH  15  16
HETATM   16  C   UNL     1      41.961  -6.525  15.664  1.00  0.00     0.175 C 
BRANCH  16  17
HETATM   17  C   UNL     1      41.843  -6.946  17.126  1.00  0.00     0.026 C 
BRANCH  17  18
HETATM   18  C   UNL     1      40.400  -6.847  17.618  1.00  0.00    -0.002 C 
HETATM   19  C   UNL     1      40.033  -8.017  18.517  1.00  0.00     0.005 C 
ENDBRANCH  17  18
ENDBRANCH  16  17
ENDBRANCH  15  16
ENDBRANCH  12  15
ENDBRANCH   6   9
ENDBRANCH   3   5
ENDBRANCH   1   3
BRANCH   1  20
HETATM   20  C   UNL     1      43.761 -12.152   7.106  1.00  0.00     0.035 A 
HETATM   21  C   UNL     1      43.885 -13.500   6.747  1.00  0.00     0.048 A 
HETATM   22  C   UNL     1      43.150 -14.034   5.669  1.00  0.00     0.052 A 
HETATM   23  C   UNL     1      42.308 -13.179   4.941  1.00  0.00     0.080 A 
HETATM   24  C   UNL     1      42.168 -11.843   5.293  1.00  0.00     0.040 A 
HETATM   25  C   UNL     1      42.890 -11.334   6.372  1.00  0.00     0.032 A 
BRANCH  22  26
HETATM   26  C   UNL     1      43.256 -15.440   5.296  1.00  0.00     0.183 A 
HETATM   27  O   UNL     1      43.158 -15.752   3.964  1.00  0.00    -0.289 OA
HETATM   28  C   UNL     1      43.402 -17.096   3.925  1.00  0.00     0.107 A 
HETATM   29  C   UNL     1      43.614 -17.527   5.224  1.00  0.00     0.093 A 
HETATM   30  C   UNL     1      43.455 -17.915   2.802  1.00  0.00     0.046 A 
HETATM   31  N   UNL     1      43.535 -16.464   6.087  1.00  0.00    -0.221 NA
HETATM   32  C   UNL     1      43.882 -18.880   5.457  1.00  0.00     0.035 A 
HETATM   33  C   UNL     1      43.945 -19.741   4.350  1.00  0.00     0.009 A 
HETATM   34  C   UNL     1      43.743 -19.271   3.039  1.00  0.00    -0.059 A 
HETATM   35  C   UNL     1      43.862 -20.233   1.890  1.00  0.00     0.048 C 
ENDBRANCH  22  26
BRANCH  23  36
HETATM   36  O   UNL     1      41.586 -13.590   3.850  1.00  0.00    -0.360 OA
HETATM   37  H   UNL     1      41.151 -14.444   4.066  1.00  0.00     0.217 HD
ENDBRANCH  23  36
ENDBRANCH   1  20
TORSDOF 10
ENDMDL
MODEL 2
REMARK VINA RESULT:      -9.1      1.838      2.574
REMARK  10 active torsions:
REMARK  status: ('A' for Active; 'I' for Inactive)
REMARK    1  A    between atoms: C_2  and  C_3 
REMARK    2  A    between atoms: C_3  and  C_4 
REMARK    3  A    between atoms: C_4  and  O_5 
REMARK    4  A    between atoms: O_5  and  C_6 
REMARK    5  A    between atoms: C_9  and  C_10 
REMARK       I    between atoms: C_10  and  N_11 
REMARK    6  A    between atoms: N_11  and  C_12 
REMARK    7  A    between atoms: C_12  and  N_13 
REMARK    8  A    between atoms: N_13  and  C_14 
REMARK    9  A    between atoms: C_16  and  C_17 
REMARK   10  A    between atoms: C_27  and  O_28 
ROOT
HETATM    1  N   UNL     1      43.061 -11.173   7.230  1.00  0.00    -0.333 N 
HETATM    2  H   UNL     1      42.385 -10.538   7.647  1.00  0.00     0.168 HD
ENDROOT
BRANCH   1   3
HETATM    3  C   UNL     1      44.336 -10.888   7.633  1.00  0.00     0.179 C 
HETATM    4  S   UNL     1      45.568 -11.264   6.562  1.00  0.00    -0.040 SA
BRANCH   3   5
HETATM    5  N   UNL     1      44.492 -10.239   8.828  1.00  0.00    -0.299 N 
HETATM    6  C   UNL     1      44.579  -8.865   8.988  1.00  0.00     0.257 C 
HETATM    7  O   UNL     1      45.328  -8.136   8.347  1.00  0.00    -0.267 OA
HETATM    8  H   UNL     1      44.137 -10.769   9.613  1.00  0.00     0.171 HD
BRANCH   6   9
HETATM    9  C   UNL     1      43.874  -8.320  10.168  1.00  0.00     0.032 A 
HETATM   10  C   UNL     1      43.051  -7.204  10.005  1.00  0.00     0.020 A 
HETATM   11  C   UNL     1      42.345  -6.691  11.097  1.00  0.00     0.038 A 
HETATM   12  C   UNL     1      42.445  -7.306  12.348  1.00  0.00     0.068 A 
HETATM   13  C   UNL     1      43.254  -8.438  12.496  1.00  0.00     0.038 A 
HETATM   14  C   UNL     1      43.978  -8.946  11.412  1.00  0.00     0.020 A 
BRANCH  12  15
HETATM   15  O   UNL     1      41.787  -6.919  13.483  1.00  0.00    -0.351 OA
BRANCH  15  16
HETATM   16  C   UNL     1      40.961  -7.901  14.111  1.00  0.00     0.175 C 
BRANCH  16  17
HETATM   17  C   UNL     1      39.773  -8.179  13.193  1.00  0.00     0.026 C 
BRANCH  17  18
HETATM   18  C   UNL     1      39.704  -9.654  12.804  1.00  0.00    -0.002 C 
HETATM   19  C   UNL     1      39.870  -9.848  11.306  1.00  0.00     0.005 C 
ENDBRANCH  17  18
ENDBRANCH  16  17
ENDBRANCH  15  16
ENDBRANCH  12  15
ENDBRANCH   6   9
ENDBRANCH   3   5
ENDBRANCH   1   3
BRANCH   1  20
HETATM   20  C   UNL     1      42.553 -11.980   6.188  1.00  0.00     0.035 A 
HETATM   21  C   UNL     1      42.891 -13.322   5.968  1.00  0.00     0.048 A 
HETATM   22  C   UNL     1      42.398 -14.020   4.847  1.00  0.00     0.052 A 
HETATM   23  C   UNL     1      41.581 -13.333   3.934  1.00  0.00     0.080 A 
HETATM   24  C   UNL     1      41.230 -12.006   4.146  1.00  0.00     0.040 A 
HETATM   25  C   UNL     1      41.713 -11.336   5.269  1.00  0.00     0.032 A 
BRANCH  22  26
HETATM   26  C   UNL     1      42.727 -15.422   4.615  1.00  0.00     0.183 A 
HETATM   27  O   UNL     1      42.486 -15.932   3.365  1.00  0.00    -0.289 OA
HETATM   28  C   UNL     1      42.989 -17.201   3.428  1.00  0.00     0.107 A 
HETATM   29  C   UNL     1      43.485 -17.398   4.706  1.00  0.00     0.093 A 
HETATM   30  C   UNL     1      43.029 -18.147   2.410  1.00  0.00     0.046 A 
HETATM   31  N   UNL     1      43.329 -16.256   5.449  1.00  0.00    -0.221 NA
HETATM   32  C   UNL     1      44.054 -18.633   5.032  1.00  0.00     0.035 A 
HETATM   33  C   UNL     1      44.116 -19.617   4.032  1.00  0.00     0.009 A 
HETATM   34  C   UNL     1      43.619 -19.381   2.736  1.00  0.00    -0.059 A 
HETATM   35  C   UNL     1      43.749 -20.459   1.696  1.00  0.00     0.048 C 
ENDBRANCH  22  26
BRANCH  23  36
HETATM   36  O   UNL     1      41.087 -13.909   2.791  1.00  0.00    -0.360 OA
HETATM   37  H   UNL     1      41.068 -13.230   2.082  1.00  0.00     0.217 HD
ENDBRANCH  23  36
ENDBRANCH   1  20
TORSDOF 10
ENDMDL
MODEL 3
REMARK VINA RESULT:      -8.9      1.198      1.812
REMARK  10 active torsions:
REMARK  status: ('A' for Active; 'I' for Inactive)
REMARK    1  A    between atoms: C_2  and  C_3 
REMARK    2  A    between atoms: C_3  and  C_4 
REMARK    3  A    between atoms: C_4  and  O_5 
REMARK    4  A    between atoms: O_5  and  C_6 
REMARK    5  A    between atoms: C_9  and  C_10 
REMARK       I    between atoms: C_10  and  N_11 
REMARK    6  A    between atoms: N_11  and  C_12 
REMARK    7  A    between atoms: C_12  and  N_13 
REMARK    8  A    between atoms: N_13  and  C_14 
REMARK    9  A    between atoms: C_16  and  C_17 
REMARK   10  A    between atoms: C_27  and  O_28 
ROOT
HETATM    1  N   UNL     1      43.149 -10.730   6.960  1.00  0.00    -0.333 N 
HETATM    2  H   UNL     1      43.146  -9.820   6.505  1.00  0.00     0.168 HD
ENDROOT
BRANCH   1   3
HETATM    3  C   UNL     1      44.061 -10.781   7.977  1.00  0.00     0.179 C 
HETATM    4  S   UNL     1      45.679 -10.700   7.546  1.00  0.00    -0.040 SA
BRANCH   3   5
HETATM    5  N   UNL     1      43.580 -10.800   9.259  1.00  0.00    -0.299 N 
HETATM    6  C   UNL     1      44.275 -10.381  10.382  1.00  0.00     0.257 C 
HETATM    7  O   UNL     1      45.414 -10.734  10.667  1.00  0.00    -0.267 OA
HETATM    8  H   UNL     1      42.571 -10.750   9.300  1.00  0.00     0.171 HD
BRANCH   6   9
HETATM    9  C   UNL     1      43.474  -9.644  11.383  1.00  0.00     0.032 A 
HETATM   10  C   UNL     1      43.413  -8.252  11.304  1.00  0.00     0.020 A 
HETATM   11  C   UNL     1      42.633  -7.534  12.216  1.00  0.00     0.038 A 
HETATM   12  C   UNL     1      41.897  -8.209  13.193  1.00  0.00     0.068 A 
HETATM   13  C   UNL     1      41.947  -9.607  13.249  1.00  0.00     0.038 A 
HETATM   14  C   UNL     1      42.739 -10.330  12.352  1.00  0.00     0.020 A 
BRANCH  12  15
HETATM   15  O   UNL     1      41.079  -7.626  14.122  1.00  0.00    -0.351 OA
BRANCH  15  16
HETATM   16  C   UNL     1      41.566  -6.440  14.750  1.00  0.00     0.175 C 
BRANCH  16  17
HETATM   17  C   UNL     1      42.182  -6.830  16.091  1.00  0.00     0.026 C 
BRANCH  17  18
HETATM   18  C   UNL     1      41.183  -7.590  16.961  1.00  0.00    -0.002 C 
HETATM   19  C   UNL     1      40.013  -6.710  17.371  1.00  0.00     0.005 C 
ENDBRANCH  17  18
ENDBRANCH  16  17
ENDBRANCH  15  16
ENDBRANCH  12  15
ENDBRANCH   6   9
ENDBRANCH   3   5
ENDBRANCH   1   3
BRANCH   1  20
HETATM   20  C   UNL     1      42.427 -11.736   6.281  1.00  0.00     0.035 A 
HETATM   21  C   UNL     1      42.942 -12.981   5.898  1.00  0.00     0.048 A 
HETATM   22  C   UNL     1      42.167 -13.887   5.146  1.00  0.00     0.052 A 
HETATM   23  C   UNL     1      40.872 -13.504   4.761  1.00  0.00     0.080 A 
HETATM   24  C   UNL     1      40.346 -12.277   5.143  1.00  0.00     0.040 A 
HETATM   25  C   UNL     1      41.120 -11.400   5.901  1.00  0.00     0.032 A 
BRANCH  22  26
HETATM   26  C   UNL     1      42.685 -15.194   4.755  1.00  0.00     0.183 A 
HETATM   27  O   UNL     1      43.017 -16.070   5.757  1.00  0.00    -0.289 OA
HETATM   28  C   UNL     1      43.355 -17.213   5.091  1.00  0.00     0.107 A 
HETATM   29  C   UNL     1      43.231 -16.967   3.734  1.00  0.00     0.093 A 
HETATM   30  C   UNL     1      43.742 -18.431   5.640  1.00  0.00     0.046 A 
HETATM   31  N   UNL     1      42.789 -15.685   3.530  1.00  0.00    -0.221 NA
HETATM   32  C   UNL     1      43.530 -17.989   2.826  1.00  0.00     0.035 A 
HETATM   33  C   UNL     1      43.924 -19.234   3.340  1.00  0.00     0.009 A 
HETATM   34  C   UNL     1      44.023 -19.461   4.725  1.00  0.00    -0.059 A 
HETATM   35  C   UNL     1      44.412 -20.828   5.217  1.00  0.00     0.048 C 
ENDBRANCH  22  26
BRANCH  23  36
HETATM   36  O   UNL     1      40.056 -14.294   3.992  1.00  0.00    -0.360 OA
HETATM   37  H   UNL     1      40.395 -14.292   3.070  1.00  0.00     0.217 HD
ENDBRANCH  23  36
ENDBRANCH   1  20
TORSDOF 10
ENDMDL
MODEL 4
REMARK VINA RESULT:      -8.7      2.324     11.523
REMARK  10 active torsions:
REMARK  status: ('A' for Active; 'I' for Inactive)
REMARK    1  A    between atoms: C_2  and  C_3 
REMARK    2  A    between atoms: C_3  and  C_4 
REMARK    3  A    between atoms: C_4  and  O_5 
REMARK    4  A    between atoms: O_5  and  C_6 
REMARK    5  A    between atoms: C_9  and  C_10 
REMARK       I    between atoms: C_10  and  N_11 
REMARK    6  A    between atoms: N_11  and  C_12 
REMARK    7  A    between atoms: C_12  and  N_13 
REMARK    8  A    between atoms: N_13  and  C_14 
REMARK    9  A    between atoms: C_16  and  C_17 
REMARK   10  A    between atoms: C_27  and  O_28 
ROOT
HETATM    1  N   UNL     1      42.417 -10.152   5.747  1.00  0.00    -0.333 N 
HETATM    2  H   UNL     1      42.674  -9.322   5.219  1.00  0.00     0.168 HD
ENDROOT
BRANCH   1   3
HETATM    3  C   UNL     1      41.294 -10.745   5.239  1.00  0.00     0.179 C 
HETATM    4  S   UNL     1      39.821 -10.105   5.716  1.00  0.00    -0.040 SA
BRANCH   3   5
HETATM    5  N   UNL     1      41.467 -11.743   4.317  1.00  0.00    -0.299 N 
HETATM    6  C   UNL     1      42.689 -12.242   3.896  1.00  0.00     0.257 C 
HETATM    7  O   UNL     1      43.628 -11.552   3.516  1.00  0.00    -0.267 OA
HETATM    8  H   UNL     1      40.673 -12.367   4.263  1.00  0.00     0.171 HD
BRANCH   6   9
HETATM    9  C   UNL     1      42.738 -13.706   3.696  1.00  0.00     0.032 A 
HETATM   10  C   UNL     1      42.324 -14.543   4.734  1.00  0.00     0.020 A 
HETATM   11  C   UNL     1      42.326 -15.929   4.558  1.00  0.00     0.038 A 
HETATM   12  C   UNL     1      42.722 -16.480   3.336  1.00  0.00     0.068 A 
HETATM   13  C   UNL     1      43.113 -15.632   2.293  1.00  0.00     0.038 A 
HETATM   14  C   UNL     1      43.131 -14.245   2.469  1.00  0.00     0.020 A 
BRANCH  12  15
HETATM   15  O   UNL     1      42.743 -17.813   3.030  1.00  0.00    -0.351 OA
BRANCH  15  16
HETATM   16  C   UNL     1      44.029 -18.412   2.866  1.00  0.00     0.175 C 
BRANCH  16  17
HETATM   17  C   UNL     1      44.605 -18.688   4.252  1.00  0.00     0.026 C 
BRANCH  17  18
HETATM   18  C   UNL     1      44.190 -20.065   4.763  1.00  0.00    -0.002 C 
HETATM   19  C   UNL     1      43.506 -19.979   6.117  1.00  0.00     0.005 C 
ENDBRANCH  17  18
ENDBRANCH  16  17
ENDBRANCH  15  16
ENDBRANCH  12  15
ENDBRANCH   6   9
ENDBRANCH   3   5
ENDBRANCH   1   3
BRANCH   1  20
HETATM   20  C   UNL     1      43.107 -10.317   6.969  1.00  0.00     0.035 A 
HETATM   21  C   UNL     1      42.625  -9.931   8.226  1.00  0.00     0.048 A 
HETATM   22  C   UNL     1      43.426 -10.058   9.380  1.00  0.00     0.052 A 
HETATM   23  C   UNL     1      44.731 -10.555   9.240  1.00  0.00     0.080 A 
HETATM   24  C   UNL     1      45.217 -10.951   8.001  1.00  0.00     0.040 A 
HETATM   25  C   UNL     1      44.406 -10.834   6.873  1.00  0.00     0.032 A 
BRANCH  22  26
HETATM   26  C   UNL     1      42.931  -9.675  10.698  1.00  0.00     0.183 A 
HETATM   27  O   UNL     1      43.684  -8.790  11.426  1.00  0.00    -0.289 OA
HETATM   28  C   UNL     1      42.923  -8.549  12.535  1.00  0.00     0.107 A 
HETATM   29  C   UNL     1      41.770  -9.309  12.431  1.00  0.00     0.093 A 
HETATM   30  C   UNL     1      43.211  -7.691  13.590  1.00  0.00     0.046 A 
HETATM   31  N   UNL     1      41.777 -10.010  11.252  1.00  0.00    -0.221 NA
HETATM   32  C   UNL     1      40.819  -9.246  13.455  1.00  0.00     0.035 A 
HETATM   33  C   UNL     1      41.071  -8.390  14.539  1.00  0.00     0.009 A 
HETATM   34  C   UNL     1      42.244  -7.616  14.608  1.00  0.00    -0.059 A 
HETATM   35  C   UNL     1      42.440  -6.687  15.774  1.00  0.00     0.048 C 
ENDBRANCH  22  26
BRANCH  23  36
HETATM   36  O   UNL     1      45.603 -10.675  10.292  1.00  0.00    -0.360 OA
HETATM   37  H   UNL     1      46.242  -9.930  10.256  1.00  0.00     0.217 HD
ENDBRANCH  23  36
ENDBRANCH   1  20
TORSDOF 10
ENDMDL
MODEL 5
REMARK VINA RESULT:      -8.7      1.804      2.625
REMARK  10 active torsions:
REMARK  status: ('A' for Active; 'I' for Inactive)
REMARK    1  A    between atoms: C_2  and  C_3 
REMARK    2  A    between atoms: C_3  and  C_4 
REMARK    3  A    between atoms: C_4  and  O_5 
REMARK    4  A    between atoms: O_5  and  C_6 
REMARK    5  A    between atoms: C_9  and  C_10 
REMARK       I    between atoms: C_10  and  N_11 
REMARK    6  A    between atoms: N_11  and  C_12 
REMARK    7  A    between atoms: C_12  and  N_13 
REMARK    8  A    between atoms: N_13  and  C_14 
REMARK    9  A    between atoms: C_16  and  C_17 
REMARK   10  A    between atoms: C_27  and  O_28 
ROOT
HETATM    1  N   UNL     1      41.650 -10.120   7.866  1.00  0.00    -0.333 N 
HETATM    2  H   UNL     1      40.693 -10.016   8.194  1.00  0.00     0.168 HD
ENDROOT
BRANCH   1   3
HETATM    3  C   UNL     1      42.554  -9.747   8.822  1.00  0.00     0.179 C 
HETATM    4  S   UNL     1      44.024  -9.152   8.280  1.00  0.00    -0.040 SA
BRANCH   3   5
HETATM    5  N   UNL     1      42.152  -9.801  10.129  1.00  0.00    -0.299 N 
HETATM    6  C   UNL     1      42.977 -10.063  11.211  1.00  0.00     0.257 C 
HETATM    7  O   UNL     1      43.759 -11.004  11.278  1.00  0.00    -0.267 OA
HETATM    8  H   UNL     1      41.323  -9.250  10.308  1.00  0.00     0.171 HD
BRANCH   6   9
HETATM    9  C   UNL     1      42.701  -9.264  12.424  1.00  0.00     0.032 A 
HETATM   10  C   UNL     1      43.472  -8.127  12.673  1.00  0.00     0.020 A 
HETATM   11  C   UNL     1      43.207  -7.335  13.794  1.00  0.00     0.038 A 
HETATM   12  C   UNL     1      42.158  -7.666  14.655  1.00  0.00     0.068 A 
HETATM   13  C   UNL     1      41.376  -8.795  14.385  1.00  0.00     0.038 A 
HETATM   14  C   UNL     1      41.647  -9.603  13.276  1.00  0.00     0.020 A 
BRANCH  12  15
HETATM   15  O   UNL     1      41.782  -6.961  15.765  1.00  0.00    -0.351 OA
BRANCH  15  16
HETATM   16  C   UNL     1      41.412  -7.725  16.914  1.00  0.00     0.175 C 
BRANCH  16  17
HETATM   17  C   UNL     1      40.126  -7.132  17.485  1.00  0.00     0.026 C 
BRANCH  17  18
HETATM   18  C   UNL     1      39.847  -5.747  16.905  1.00  0.00    -0.002 C 
HETATM   19  C   UNL     1      38.590  -5.739  16.051  1.00  0.00     0.005 C 
ENDBRANCH  17  18
ENDBRANCH  16  17
ENDBRANCH  15  16
ENDBRANCH  12  15
ENDBRANCH   6   9
ENDBRANCH   3   5
ENDBRANCH   1   3
BRANCH   1  20
HETATM   20  C   UNL     1      41.780 -10.363   6.481  1.00  0.00     0.035 A 
HETATM   21  C   UNL     1      42.122 -11.593   5.905  1.00  0.00     0.048 A 
HETATM   22  C   UNL     1      42.313 -11.715   4.514  1.00  0.00     0.052 A 
HETATM   23  C   UNL     1      42.181 -10.569   3.714  1.00  0.00     0.080 A 
HETATM   24  C   UNL     1      41.831  -9.345   4.271  1.00  0.00     0.040 A 
HETATM   25  C   UNL     1      41.630  -9.246   5.647  1.00  0.00     0.032 A 
BRANCH  22  26
HETATM   26  C   UNL     1      42.653 -12.994   3.899  1.00  0.00     0.183 A 
HETATM   27  O   UNL     1      42.973 -14.034   4.734  1.00  0.00    -0.289 OA
HETATM   28  C   UNL     1      43.128 -15.095   3.888  1.00  0.00     0.107 A 
HETATM   29  C   UNL     1      42.917 -14.643   2.596  1.00  0.00     0.093 A 
HETATM   30  C   UNL     1      43.428 -16.410   4.225  1.00  0.00     0.046 A 
HETATM   31  N   UNL     1      42.599 -13.309   2.614  1.00  0.00    -0.221 NA
HETATM   32  C   UNL     1      43.026 -15.545   1.533  1.00  0.00     0.035 A 
HETATM   33  C   UNL     1      43.326 -16.884   1.830  1.00  0.00     0.009 A 
HETATM   34  C   UNL     1      43.518 -17.318   3.155  1.00  0.00    -0.059 A 
HETATM   35  C   UNL     1      43.798 -18.772   3.415  1.00  0.00     0.048 C 
ENDBRANCH  22  26
BRANCH  23  36
HETATM   36  O   UNL     1      42.389 -10.573   2.359  1.00  0.00    -0.360 OA
HETATM   37  H   UNL     1      43.023  -9.856   2.137  1.00  0.00     0.217 HD
ENDBRANCH  23  36
ENDBRANCH   1  20
TORSDOF 10
ENDMDL
MODEL 6
REMARK VINA RESULT:      -8.6      2.389      3.367
REMARK  10 active torsions:
REMARK  status: ('A' for Active; 'I' for Inactive)
REMARK    1  A    between atoms: C_2  and  C_3 
REMARK    2  A    between atoms: C_3  and  C_4 
REMARK    3  A    between atoms: C_4  and  O_5 
REMARK    4  A    between atoms: O_5  and  C_6 
REMARK    5  A    between atoms: C_9  and  C_10 
REMARK       I    between atoms: C_10  and  N_11 
REMARK    6  A    between atoms: N_11  and  C_12 
REMARK    7  A    between atoms: C_12  and  N_13 
REMARK    8  A    between atoms: N_13  and  C_14 
REMARK    9  A    between atoms: C_16  and  C_17 
REMARK   10  A    between atoms: C_27  and  O_28 
ROOT
HETATM    1  N   UNL     1      41.897 -10.205   4.277  1.00  0.00    -0.333 N 
HETATM    2  H   UNL     1      42.786 -10.025   3.819  1.00  0.00     0.168 HD
ENDROOT
BRANCH   1   3
HETATM    3  C   UNL     1      41.655  -9.306   5.279  1.00  0.00     0.179 C 
HETATM    4  S   UNL     1      41.116  -7.788   4.818  1.00  0.00    -0.040 SA
BRANCH   3   5
HETATM    5  N   UNL     1      41.782  -9.747   6.569  1.00  0.00    -0.299 N 
HETATM    6  C   UNL     1      42.976 -10.087   7.186  1.00  0.00     0.257 C 
HETATM    7  O   UNL     1      43.814 -10.844   6.708  1.00  0.00    -0.267 OA
HETATM    8  H   UNL     1      41.032  -9.429   7.168  1.00  0.00     0.171 HD
BRANCH   6   9
HETATM    9  C   UNL     1      43.099  -9.670   8.599  1.00  0.00     0.032 A 
HETATM   10  C   UNL     1      42.292  -8.631   9.067  1.00  0.00     0.020 A 
HETATM   11  C   UNL     1      42.363  -8.241  10.407  1.00  0.00     0.038 A 
HETATM   12  C   UNL     1      43.224  -8.903  11.285  1.00  0.00     0.068 A 
HETATM   13  C   UNL     1      44.013  -9.958  10.812  1.00  0.00     0.038 A 
HETATM   14  C   UNL     1      43.961 -10.342   9.469  1.00  0.00     0.020 A 
BRANCH  12  15
HETATM   15  O   UNL     1      43.366  -8.635  12.620  1.00  0.00    -0.351 OA
BRANCH  15  16
HETATM   16  C   UNL     1      42.479  -9.318  13.507  1.00  0.00     0.175 C 
BRANCH  16  17
HETATM   17  C   UNL     1      41.816  -8.280  14.408  1.00  0.00     0.026 C 
BRANCH  17  18
HETATM   18  C   UNL     1      42.672  -7.022  14.531  1.00  0.00    -0.002 C 
HETATM   19  C   UNL     1      41.913  -5.780  14.093  1.00  0.00     0.005 C 
ENDBRANCH  17  18
ENDBRANCH  16  17
ENDBRANCH  15  16
ENDBRANCH  12  15
ENDBRANCH   6   9
ENDBRANCH   3   5
ENDBRANCH   1   3
BRANCH   1  20
HETATM   20  C   UNL     1      41.295 -11.439   3.944  1.00  0.00     0.035 A 
HETATM   21  C   UNL     1      41.926 -12.688   4.006  1.00  0.00     0.048 A 
HETATM   22  C   UNL     1      41.268 -13.855   3.569  1.00  0.00     0.052 A 
HETATM   23  C   UNL     1      39.973 -13.739   3.040  1.00  0.00     0.080 A 
HETATM   24  C   UNL     1      39.332 -12.508   2.983  1.00  0.00     0.040 A 
HETATM   25  C   UNL     1      39.991 -11.366   3.435  1.00  0.00     0.032 A 
BRANCH  22  26
HETATM   26  C   UNL     1      41.907 -15.165   3.644  1.00  0.00     0.183 A 
HETATM   27  O   UNL     1      41.704 -16.031   2.600  1.00  0.00    -0.289 OA
HETATM   28  C   UNL     1      42.501 -17.099   2.903  1.00  0.00     0.107 A 
HETATM   29  C   UNL     1      43.123 -16.835   4.112  1.00  0.00     0.093 A 
HETATM   30  C   UNL     1      42.693 -18.252   2.151  1.00  0.00     0.046 A 
HETATM   31  N   UNL     1      42.752 -15.596   4.568  1.00  0.00    -0.221 NA
HETATM   32  C   UNL     1      43.995 -17.787   4.650  1.00  0.00     0.035 A 
HETATM   33  C   UNL     1      44.218 -18.967   3.921  1.00  0.00     0.009 A 
HETATM   34  C   UNL     1      43.585 -19.199   2.686  1.00  0.00    -0.059 A 
HETATM   35  C   UNL     1      43.893 -20.463   1.932  1.00  0.00     0.048 C 
ENDBRANCH  22  26
BRANCH  23  36
HETATM   36  O   UNL     1      39.266 -14.807   2.548  1.00  0.00    -0.360 OA
HETATM   37  H   UNL     1      38.314 -14.668   2.742  1.00  0.00     0.217 HD
ENDBRANCH  23  36
ENDBRANCH   1  20
TORSDOF 10
ENDMDL
MODEL 7
REMARK VINA RESULT:      -8.5      3.211      5.105
REMARK  10 active torsions:
REMARK  status: ('A' for Active; 'I' for Inactive)
REMARK    1  A    between atoms: C_2  and  C_3 
REMARK    2  A    between atoms: C_3  and  C_4 
REMARK    3  A    between atoms: C_4  and  O_5 
REMARK    4  A    between atoms: O_5  and  C_6 
REMARK    5  A    between atoms: C_9  and  C_10 
REMARK       I    between atoms: C_10  and  N_11 
REMARK    6  A    between atoms: N_11  and  C_12 
REMARK    7  A    between atoms: C_12  and  N_13 
REMARK    8  A    between atoms: N_13  and  C_14 
REMARK    9  A    between atoms: C_16  and  C_17 
REMARK   10  A    between atoms: C_27  and  O_28 
ROOT
HETATM    1  N   UNL     1      40.360 -10.813   2.675  1.00  0.00    -0.333 N 
HETATM    2  H   UNL     1      40.010 -11.051   1.750  1.00  0.00     0.168 HD
ENDROOT
BRANCH   1   3
HETATM    3  C   UNL     1      40.962  -9.585   2.684  1.00  0.00     0.179 C 
HETATM    4  S   UNL     1      40.488  -8.503   1.496  1.00  0.00    -0.040 SA
BRANCH   3   5
HETATM    5  N   UNL     1      41.825  -9.310   3.711  1.00  0.00    -0.299 N 
HETATM    6  C   UNL     1      41.459  -8.838   4.961  1.00  0.00     0.257 C 
HETATM    7  O   UNL     1      40.722  -7.878   5.153  1.00  0.00    -0.267 OA
HETATM    8  H   UNL     1      42.682  -9.844   3.656  1.00  0.00     0.171 HD
BRANCH   6   9
HETATM    9  C   UNL     1      42.206  -9.416   6.098  1.00  0.00     0.032 A 
HETATM   10  C   UNL     1      42.836 -10.651   5.933  1.00  0.00     0.020 A 
HETATM   11  C   UNL     1      43.579 -11.202   6.981  1.00  0.00     0.038 A 
HETATM   12  C   UNL     1      43.711 -10.510   8.187  1.00  0.00     0.068 A 
HETATM   13  C   UNL     1      43.094  -9.262   8.336  1.00  0.00     0.038 A 
HETATM   14  C   UNL     1      42.334  -8.713   7.299  1.00  0.00     0.020 A 
BRANCH  12  15
HETATM   15  O   UNL     1      44.429 -10.928   9.274  1.00  0.00    -0.351 OA
BRANCH  15  16
HETATM   16  C   UNL     1      44.707  -9.946  10.273  1.00  0.00     0.175 C 
BRANCH  16  17
HETATM   17  C   UNL     1      43.913 -10.304  11.526  1.00  0.00     0.026 C 
BRANCH  17  18
HETATM   18  C   UNL     1      43.241  -9.073  12.131  1.00  0.00    -0.002 C 
HETATM   19  C   UNL     1      42.327  -9.443  13.287  1.00  0.00     0.005 C 
ENDBRANCH  17  18
ENDBRANCH  16  17
ENDBRANCH  15  16
ENDBRANCH  12  15
ENDBRANCH   6   9
ENDBRANCH   3   5
ENDBRANCH   1   3
BRANCH   1  20
HETATM   20  C   UNL     1      40.362 -11.877   3.603  1.00  0.00     0.035 A 
HETATM   21  C   UNL     1      41.064 -13.080   3.450  1.00  0.00     0.048 A 
HETATM   22  C   UNL     1      40.934 -14.121   4.393  1.00  0.00     0.052 A 
HETATM   23  C   UNL     1      40.062 -13.939   5.477  1.00  0.00     0.080 A 
HETATM   24  C   UNL     1      39.368 -12.748   5.646  1.00  0.00     0.040 A 
HETATM   25  C   UNL     1      39.521 -11.723   4.714  1.00  0.00     0.032 A 
BRANCH  22  26
HETATM   26  C   UNL     1      41.672 -15.371   4.255  1.00  0.00     0.183 A 
HETATM   27  O   UNL     1      41.449 -16.119   3.127  1.00  0.00    -0.289 OA
HETATM   28  C   UNL     1      42.345 -17.145   3.234  1.00  0.00     0.107 A 
HETATM   29  C   UNL     1      43.043 -16.978   4.419  1.00  0.00     0.093 A 
HETATM   30  C   UNL     1      42.560 -18.179   2.330  1.00  0.00     0.046 A 
HETATM   31  N   UNL     1      42.619 -15.839   5.054  1.00  0.00    -0.221 NA
HETATM   32  C   UNL     1      44.024 -17.912   4.768  1.00  0.00     0.035 A 
HETATM   33  C   UNL     1      44.273 -18.972   3.882  1.00  0.00     0.009 A 
HETATM   34  C   UNL     1      43.560 -19.105   2.676  1.00  0.00    -0.059 A 
HETATM   35  C   UNL     1      43.899 -20.239   1.748  1.00  0.00     0.048 C 
ENDBRANCH  22  26
BRANCH  23  36
HETATM   36  O   UNL     1      39.832 -14.906   6.423  1.00  0.00    -0.360 OA
HETATM   37  H   UNL     1      39.228 -14.539   7.106  1.00  0.00     0.217 HD
ENDBRANCH  23  36
ENDBRANCH   1  20
TORSDOF 10
ENDMDL
MODEL 8
REMARK VINA RESULT:      -8.3      2.267      3.696
REMARK  10 active torsions:
REMARK  status: ('A' for Active; 'I' for Inactive)
REMARK    1  A    between atoms: C_2  and  C_3 
REMARK    2  A    between atoms: C_3  and  C_4 
REMARK    3  A    between atoms: C_4  and  O_5 
REMARK    4  A    between atoms: O_5  and  C_6 
REMARK    5  A    between atoms: C_9  and  C_10 
REMARK       I    between atoms: C_10  and  N_11 
REMARK    6  A    between atoms: N_11  and  C_12 
REMARK    7  A    between atoms: C_12  and  N_13 
REMARK    8  A    between atoms: N_13  and  C_14 
REMARK    9  A    between atoms: C_16  and  C_17 
REMARK   10  A    between atoms: C_27  and  O_28 
ROOT
HETATM    1  N   UNL     1      42.517  -8.325   9.327  1.00  0.00    -0.333 N 
HETATM    2  H   UNL     1      42.868  -7.463   9.736  1.00  0.00     0.168 HD
ENDROOT
BRANCH   1   3
HETATM    3  C   UNL     1      41.277  -8.643   9.808  1.00  0.00     0.179 C 
HETATM    4  S   UNL     1      40.067  -8.887   8.676  1.00  0.00    -0.040 SA
BRANCH   3   5
HETATM    5  N   UNL     1      41.150  -8.825  11.160  1.00  0.00    -0.299 N 
HETATM    6  C   UNL     1      42.166  -9.225  12.013  1.00  0.00     0.257 C 
HETATM    7  O   UNL     1      42.896 -10.191  11.821  1.00  0.00    -0.267 OA
HETATM    8  H   UNL     1      40.405  -8.272  11.562  1.00  0.00     0.171 HD
BRANCH   6   9
HETATM    9  C   UNL     1      42.186  -8.553  13.330  1.00  0.00     0.032 A 
HETATM   10  C   UNL     1      43.130  -7.551  13.561  1.00  0.00     0.020 A 
HETATM   11  C   UNL     1      43.147  -6.875  14.785  1.00  0.00     0.038 A 
HETATM   12  C   UNL     1      42.206  -7.185  15.770  1.00  0.00     0.068 A 
HETATM   13  C   UNL     1      41.248  -8.175  15.520  1.00  0.00     0.038 A 
HETATM   14  C   UNL     1      41.237  -8.868  14.306  1.00  0.00     0.020 A 
BRANCH  12  15
HETATM   15  O   UNL     1      42.100  -6.580  16.993  1.00  0.00    -0.351 OA
BRANCH  15  16
HETATM   16  C   UNL     1      40.779  -6.392  17.501  1.00  0.00     0.175 C 
BRANCH  16  17
HETATM   17  C   UNL     1      40.477  -4.896  17.498  1.00  0.00     0.026 C 
BRANCH  17  18
HETATM   18  C   UNL     1      39.076  -4.613  16.960  1.00  0.00    -0.002 C 
HETATM   19  C   UNL     1      38.619  -5.689  15.989  1.00  0.00     0.005 C 
ENDBRANCH  17  18
ENDBRANCH  16  17
ENDBRANCH  15  16
ENDBRANCH  12  15
ENDBRANCH   6   9
ENDBRANCH   3   5
ENDBRANCH   1   3
BRANCH   1  20
HETATM   20  C   UNL     1      43.471  -9.070   8.599  1.00  0.00     0.035 A 
HETATM   21  C   UNL     1      43.214 -10.268   7.921  1.00  0.00     0.048 A 
HETATM   22  C   UNL     1      44.254 -10.985   7.294  1.00  0.00     0.052 A 
HETATM   23  C   UNL     1      45.563 -10.489   7.388  1.00  0.00     0.080 A 
HETATM   24  C   UNL     1      45.831  -9.297   8.049  1.00  0.00     0.040 A 
HETATM   25  C   UNL     1      44.788  -8.592   8.649  1.00  0.00     0.032 A 
BRANCH  22  26
HETATM   26  C   UNL     1      43.997 -12.225   6.569  1.00  0.00     0.183 A 
HETATM   27  O   UNL     1      44.434 -13.394   7.137  1.00  0.00    -0.289 OA
HETATM   28  C   UNL     1      43.959 -14.362   6.298  1.00  0.00     0.107 A 
HETATM   29  C   UNL     1      43.283 -13.733   5.265  1.00  0.00     0.093 A 
HETATM   30  C   UNL     1      44.093 -15.739   6.431  1.00  0.00     0.046 A 
HETATM   31  N   UNL     1      43.299 -12.375   5.454  1.00  0.00    -0.221 NA
HETATM   32  C   UNL     1      42.702 -14.512   4.258  1.00  0.00     0.035 A 
HETATM   33  C   UNL     1      42.814 -15.908   4.356  1.00  0.00     0.009 A 
HETATM   34  C   UNL     1      43.492 -16.519   5.427  1.00  0.00    -0.059 A 
HETATM   35  C   UNL     1      43.544 -18.020   5.499  1.00  0.00     0.048 C 
ENDBRANCH  22  26
BRANCH  23  36
HETATM   36  O   UNL     1      46.649 -11.134   6.852  1.00  0.00    -0.360 OA
HETATM   37  H   UNL     1      47.466 -10.699   7.182  1.00  0.00     0.217 HD
ENDBRANCH  23  36
ENDBRANCH   1  20
TORSDOF 10
ENDMDL
MODEL 9
REMARK VINA RESULT:      -8.2      2.973      3.595
REMARK  10 active torsions:
REMARK  status: ('A' for Active; 'I' for Inactive)
REMARK    1  A    between atoms: C_2  and  C_3 
REMARK    2  A    between atoms: C_3  and  C_4 
REMARK    3  A    between atoms: C_4  and  O_5 
REMARK    4  A    between atoms: O_5  and  C_6 
REMARK    5  A    between atoms: C_9  and  C_10 
REMARK       I    between atoms: C_10  and  N_11 
REMARK    6  A    between atoms: N_11  and  C_12 
REMARK    7  A    between atoms: C_12  and  N_13 
REMARK    8  A    between atoms: N_13  and  C_14 
REMARK    9  A    between atoms: C_16  and  C_17 
REMARK   10  A    between atoms: C_27  and  O_28 
ROOT
HETATM    1  N   UNL     1      39.501 -11.264   6.147  1.00  0.00    -0.333 N 
HETATM    2  H   UNL     1      38.536 -11.290   6.466  1.00  0.00     0.168 HD
ENDROOT
BRANCH   1   3
HETATM    3  C   UNL     1      40.208 -10.269   6.763  1.00  0.00     0.179 C 
HETATM    4  S   UNL     1      41.735  -9.940   6.155  1.00  0.00    -0.040 SA
BRANCH   3   5
HETATM    5  N   UNL     1      39.579  -9.565   7.755  1.00  0.00    -0.299 N 
HETATM    6  C   UNL     1      39.069 -10.110   8.923  1.00  0.00     0.257 C 
HETATM    7  O   UNL     1      38.330 -11.087   8.969  1.00  0.00    -0.267 OA
HETATM    8  H   UNL     1      39.861  -8.595   7.787  1.00  0.00     0.171 HD
BRANCH   6   9
HETATM    9  C   UNL     1      39.270  -9.296  10.140  1.00  0.00     0.032 A 
HETATM   10  C   UNL     1      38.864  -7.959  10.132  1.00  0.00     0.020 A 
HETATM   11  C   UNL     1      39.010  -7.178  11.282  1.00  0.00     0.038 A 
HETATM   12  C   UNL     1      39.541  -7.737  12.447  1.00  0.00     0.068 A 
HETATM   13  C   UNL     1      39.923  -9.083  12.452  1.00  0.00     0.038 A 
HETATM   14  C   UNL     1      39.797  -9.866  11.301  1.00  0.00     0.020 A 
BRANCH  12  15
HETATM   15  O   UNL     1      39.710  -7.088  13.640  1.00  0.00    -0.351 OA
BRANCH  15  16
HETATM   16  C   UNL     1      40.277  -5.779  13.582  1.00  0.00     0.175 C 
BRANCH  16  17
HETATM   17  C   UNL     1      41.677  -5.894  12.983  1.00  0.00     0.026 C 
BRANCH  17  18
HETATM   18  C   UNL     1      42.650  -6.545  13.963  1.00  0.00    -0.002 C 
HETATM   19  C   UNL     1      43.209  -7.848  13.417  1.00  0.00     0.005 C 
ENDBRANCH  17  18
ENDBRANCH  16  17
ENDBRANCH  15  16
ENDBRANCH  12  15
ENDBRANCH   6   9
ENDBRANCH   3   5
ENDBRANCH   1   3
BRANCH   1  20
HETATM   20  C   UNL     1      39.774 -12.060   5.013  1.00  0.00     0.035 A 
HETATM   21  C   UNL     1      40.533 -13.238   5.017  1.00  0.00     0.048 A 
HETATM   22  C   UNL     1      40.824 -13.917   3.816  1.00  0.00     0.052 A 
HETATM   23  C   UNL     1      40.362 -13.374   2.608  1.00  0.00     0.080 A 
HETATM   24  C   UNL     1      39.599 -12.212   2.591  1.00  0.00     0.040 A 
HETATM   25  C   UNL     1      39.307 -11.562   3.789  1.00  0.00     0.032 A 
BRANCH  22  26
HETATM   26  C   UNL     1      41.598 -15.154   3.808  1.00  0.00     0.183 A 
HETATM   27  O   UNL     1      41.311 -16.075   2.833  1.00  0.00    -0.289 OA
HETATM   28  C   UNL     1      42.253 -17.048   3.016  1.00  0.00     0.107 A 
HETATM   29  C   UNL     1      43.040 -16.678   4.094  1.00  0.00     0.093 A 
HETATM   30  C   UNL     1      42.433 -18.205   2.266  1.00  0.00     0.046 A 
HETATM   31  N   UNL     1      42.626 -15.465   4.581  1.00  0.00    -0.221 NA
HETATM   32  C   UNL     1      44.085 -17.519   4.494  1.00  0.00     0.035 A 
HETATM   33  C   UNL     1      44.301 -18.698   3.762  1.00  0.00     0.009 A 
HETATM   34  C   UNL     1      43.495 -19.038   2.660  1.00  0.00    -0.059 A 
HETATM   35  C   UNL     1      43.799 -20.294   1.891  1.00  0.00     0.048 C 
ENDBRANCH  22  26
BRANCH  23  36
HETATM   36  O   UNL     1      40.628 -13.933   1.384  1.00  0.00    -0.360 OA
HETATM   37  H   UNL     1      39.785 -14.019   0.888  1.00  0.00     0.217 HD
ENDBRANCH  23  36
ENDBRANCH   1  20
TORSDOF 10
ENDMDL
MODEL 10
REMARK VINA RESULT:      -8.2      3.068     12.072
REMARK  10 active torsions:
REMARK  status: ('A' for Active; 'I' for Inactive)
REMARK    1  A    between atoms: C_2  and  C_3 
REMARK    2  A    between atoms: C_3  and  C_4 
REMARK    3  A    between atoms: C_4  and  O_5 
REMARK    4  A    between atoms: O_5  and  C_6 
REMARK    5  A    between atoms: C_9  and  C_10 
REMARK       I    between atoms: C_10  and  N_11 
REMARK    6  A    between atoms: N_11  and  C_12 
REMARK    7  A    between atoms: C_12  and  N_13 
REMARK    8  A    between atoms: N_13  and  C_14 
REMARK    9  A    between atoms: C_16  and  C_17 
REMARK   10  A    between atoms: C_27  and  O_28 
ROOT
HETATM    1  N   UNL     1      42.513 -12.132   6.473  1.00  0.00    -0.333 N 
HETATM    2  H   UNL     1      42.660 -13.121   6.660  1.00  0.00     0.168 HD
ENDROOT
BRANCH   1   3
HETATM    3  C   UNL     1      41.658 -11.939   5.424  1.00  0.00     0.179 C 
HETATM    4  S   UNL     1      40.810 -10.494   5.397  1.00  0.00    -0.040 SA
BRANCH   3   5
HETATM    5  N   UNL     1      41.636 -12.892   4.441  1.00  0.00    -0.299 N 
HETATM    6  C   UNL     1      42.658 -13.135   3.537  1.00  0.00     0.257 C 
HETATM    7  O   UNL     1      43.212 -12.272   2.866  1.00  0.00    -0.267 OA
HETATM    8  H   UNL     1      41.025 -13.667   4.660  1.00  0.00     0.171 HD
BRANCH   6   9
HETATM    9  C   UNL     1      42.905 -14.560   3.230  1.00  0.00     0.032 A 
HETATM   10  C   UNL     1      42.915 -15.483   4.279  1.00  0.00     0.020 A 
HETATM   11  C   UNL     1      43.110 -16.841   4.012  1.00  0.00     0.038 A 
HETATM   12  C   UNL     1      43.273 -17.281   2.696  1.00  0.00     0.068 A 
HETATM   13  C   UNL     1      43.238 -16.351   1.650  1.00  0.00     0.038 A 
HETATM   14  C   UNL     1      43.062 -14.989   1.911  1.00  0.00     0.020 A 
BRANCH  12  15
HETATM   15  O   UNL     1      43.445 -18.580   2.303  1.00  0.00    -0.351 OA
BRANCH  15  16
HETATM   16  C   UNL     1      44.387 -19.355   3.046  1.00  0.00     0.175 C 
BRANCH  16  17
HETATM   17  C   UNL     1      43.675 -20.600   3.566  1.00  0.00     0.026 C 
BRANCH  17  18
HETATM   18  C   UNL     1      44.134 -20.954   4.979  1.00  0.00    -0.002 C 
HETATM   19  C   UNL     1      43.612 -19.960   6.003  1.00  0.00     0.005 C 
ENDBRANCH  17  18
ENDBRANCH  16  17
ENDBRANCH  15  16
ENDBRANCH  12  15
ENDBRANCH   6   9
ENDBRANCH   3   5
ENDBRANCH   1   3
BRANCH   1  20
HETATM   20  C   UNL     1      43.396 -11.262   7.150  1.00  0.00     0.035 A 
HETATM   21  C   UNL     1      43.010 -10.248   8.035  1.00  0.00     0.048 A 
HETATM   22  C   UNL     1      43.963  -9.373   8.596  1.00  0.00     0.052 A 
HETATM   23  C   UNL     1      45.309  -9.519   8.226  1.00  0.00     0.080 A 
HETATM   24  C   UNL     1      45.706 -10.527   7.357  1.00  0.00     0.040 A 
HETATM   25  C   UNL     1      44.754 -11.394   6.825  1.00  0.00     0.032 A 
BRANCH  22  26
HETATM   26  C   UNL     1      43.577  -8.323   9.533  1.00  0.00     0.183 A 
HETATM   27  O   UNL     1      43.533  -7.036   9.062  1.00  0.00    -0.289 OA
HETATM   28  C   UNL     1      43.044  -6.319  10.116  1.00  0.00     0.107 A 
HETATM   29  C   UNL     1      42.837  -7.197  11.167  1.00  0.00     0.093 A 
HETATM   30  C   UNL     1      42.772  -4.956  10.160  1.00  0.00     0.046 A 
HETATM   31  N   UNL     1      43.164  -8.472  10.782  1.00  0.00    -0.221 NA
HETATM   32  C   UNL     1      42.341  -6.703  12.378  1.00  0.00     0.035 A 
HETATM   33  C   UNL     1      42.052  -5.332  12.465  1.00  0.00     0.009 A 
HETATM   34  C   UNL     1      42.255  -4.467  11.373  1.00  0.00    -0.059 A 
HETATM   35  C   UNL     1      41.890  -3.015  11.513  1.00  0.00     0.048 C 
ENDBRANCH  22  26
BRANCH  23  36
HETATM   36  O   UNL     1      46.304  -8.692   8.680  1.00  0.00    -0.360 OA
HETATM   37  H   UNL     1      46.430  -7.966   8.031  1.00  0.00     0.217 HD
ENDBRANCH  23  36
ENDBRANCH   1  20
TORSDOF 10
ENDMDL
