MODEL 1
REMARK VINA RESULT:      -9.2      0.000      0.000
REMARK  11 active torsions:
REMARK  status: ('A' for Active; 'I' for Inactive)
REMARK    1  A    between atoms: C_2  and  O_3 
REMARK    2  A    between atoms: O_3  and  C_4 
REMARK    3  A    between atoms: C_4  and  C_5 
REMARK    4  A    between atoms: C_5  and  C_6 
REMARK    5  A    between atoms: C_6  and  C_7 
REMARK    6  A    between atoms: C_13  and  C_14 
REMARK    7  A    between atoms: C_14  and  N_15 
REMARK    8  A    between atoms: N_15  and  C_18 
REMARK    9  A    between atoms: N_21  and  C_23 
REMARK   10  A    between atoms: C_23  and  C_24 
REMARK   11  A    between atoms: C_32  and  O_33 
ROOT
HETATM    1  C   UNL     1      42.747 -15.529   5.137  1.00  0.00     0.025 A 
HETATM    2  C   UNL     1      42.520 -14.806   6.419  1.00  0.00     0.295 A 
HETATM    3  O   UNL     1      42.479 -15.367   7.506  1.00  0.00    -0.259 OA
HETATM    4  O   UNL     1      42.299 -13.441   6.349  1.00  0.00    -0.274 OA
HETATM    5  C   UNL     1      42.423 -12.722   5.151  1.00  0.00     0.101 A 
HETATM    6  C   UNL     1      42.731 -13.382   3.962  1.00  0.00     0.005 A 
HETATM    7  C   UNL     1      42.208 -11.336   5.229  1.00  0.00     0.035 A 
HETATM    8  C   UNL     1      42.328 -10.592   4.054  1.00  0.00     0.076 A 
HETATM    9  C   UNL     1      42.665 -11.202   2.853  1.00  0.00     0.038 A 
HETATM   10  C   UNL     1      42.864 -12.589   2.812  1.00  0.00     0.017 A 
HETATM   11  C   UNL     1      42.862 -14.857   3.967  1.00  0.00    -0.037 A 
HETATM   12  C   UNL     1      43.080 -15.519   2.626  1.00  0.00     0.050 C 
ENDROOT
BRANCH   7  13
HETATM   13  C   UNL     1      41.848 -10.667   6.523  1.00  0.00     0.276 C 
BRANCH  13  14
HETATM   14  N   UNL     1      42.950 -10.865   7.541  1.00  0.00    -0.067 N 
HETATM   15  H   UNL     1      42.454 -11.412   8.273  1.00  0.00     0.277 HD
HETATM   16  H   UNL     1      43.611 -11.532   7.126  1.00  0.00     0.277 HD
BRANCH  14  17
HETATM   17  C   UNL     1      43.560  -9.626   8.121  1.00  0.00     0.189 C 
HETATM   18  C   UNL     1      44.633  -9.938   9.166  1.00  0.00     0.060 C 
HETATM   19  C   UNL     1      44.082 -10.460  10.487  1.00  0.00     0.237 C 
HETATM   20  N   UNL     1      43.029  -9.519  11.018  1.00  0.00    -0.067 N 
HETATM   21  H   UNL     1      43.494  -8.630  11.259  1.00  0.00     0.280 HD
HETATM   22  C   UNL     1      41.916  -9.245  10.047  1.00  0.00     0.237 C 
HETATM   23  C   UNL     1      42.471  -8.734   8.723  1.00  0.00     0.060 C 
BRANCH  20  24
HETATM   24  C   UNL     1      42.455  -9.994  12.363  1.00  0.00     0.273 C 
BRANCH  24  25
HETATM   25  C   UNL     1      42.404  -8.912  13.402  1.00  0.00    -0.033 A 
HETATM   26  C   UNL     1      43.323  -7.851  13.372  1.00  0.00     0.009 A 
HETATM   27  C   UNL     1      43.288  -6.862  14.356  1.00  0.00     0.001 A 
HETATM   28  C   UNL     1      42.341  -6.922  15.375  1.00  0.00     0.000 A 
HETATM   29  C   UNL     1      41.422  -7.966  15.412  1.00  0.00     0.001 A 
HETATM   30  C   UNL     1      41.448  -8.957  14.429  1.00  0.00     0.009 A 
ENDBRANCH  24  25
ENDBRANCH  20  24
ENDBRANCH  14  17
ENDBRANCH  13  14
ENDBRANCH   7  13
BRANCH   8  31
HETATM   31  O   UNL     1      42.061  -9.250   4.109  1.00  0.00    -0.360 OA
HETATM   32  H   UNL     1      41.235  -9.095   3.601  1.00  0.00     0.217 HD
ENDBRANCH   8  31
BRANCH   1  33
HETATM   33  C   UNL     1      42.824 -17.038   5.310  1.00  0.00     0.055 C 
BRANCH  33  34
HETATM   34  C   UNL     1      44.235 -17.624   5.238  1.00  0.00     0.116 C 
BRANCH  34  35
HETATM   35  C   UNL     1      44.281 -18.949   4.520  1.00  0.00     0.259 C 
HETATM   36  O   UNL     1      44.179 -20.033   5.085  1.00  0.00    -0.265 OA
BRANCH  35  37
HETATM   37  O   UNL     1      44.434 -18.760   3.185  1.00  0.00    -0.322 OA
BRANCH  37  38
HETATM   38  C   UNL     1      43.302 -19.074   2.359  1.00  0.00     0.174 C 
HETATM   39  C   UNL     1      43.472 -20.450   1.749  1.00  0.00     0.034 C 
ENDBRANCH  37  38
ENDBRANCH  35  37
ENDBRANCH  34  35
ENDBRANCH  33  34
ENDBRANCH   1  33
TORSDOF 11
ENDMDL
MODEL 2
REMARK VINA RESULT:      -8.6      1.767      3.079
REMARK  11 active torsions:
REMARK  status: ('A' for Active; 'I' for Inactive)
REMARK    1  A    between atoms: C_2  and  O_3 
REMARK    2  A    between atoms: O_3  and  C_4 
REMARK    3  A    between atoms: C_4  and  C_5 
REMARK    4  A    between atoms: C_5  and  C_6 
REMARK    5  A    between atoms: C_6  and  C_7 
REMARK    6  A    between atoms: C_13  and  C_14 
REMARK    7  A    between atoms: C_14  and  N_15 
REMARK    8  A    between atoms: N_15  and  C_18 
REMARK    9  A    between atoms: N_21  and  C_23 
REMARK   10  A    between atoms: C_23  and  C_24 
REMARK   11  A    between atoms: C_32  and  O_33 
ROOT
HETATM    1  C   UNL     1      42.141 -16.227   2.791  1.00  0.00     0.025 A 
HETATM    2  C   UNL     1      43.187 -15.572   3.624  1.00  0.00     0.295 A 
HETATM    3  O   UNL     1      43.945 -16.193   4.358  1.00  0.00    -0.259 OA
HETATM    4  O   UNL     1      43.256 -14.190   3.587  1.00  0.00    -0.274 OA
HETATM    5  C   UNL     1      42.482 -13.424   2.702  1.00  0.00     0.101 A 
HETATM    6  C   UNL     1      41.568 -14.042   1.850  1.00  0.00     0.005 A 
HETATM    7  C   UNL     1      42.678 -12.034   2.744  1.00  0.00     0.035 A 
HETATM    8  C   UNL     1      41.926 -11.245   1.872  1.00  0.00     0.076 A 
HETATM    9  C   UNL     1      41.027 -11.819   0.983  1.00  0.00     0.038 A 
HETATM   10  C   UNL     1      40.853 -13.210   0.976  1.00  0.00     0.017 A 
HETATM   11  C   UNL     1      41.377 -15.508   1.935  1.00  0.00    -0.037 A 
HETATM   12  C   UNL     1      40.289 -16.098   1.068  1.00  0.00     0.050 C 
ENDROOT
BRANCH   7  13
HETATM   13  C   UNL     1      43.651 -11.405   3.697  1.00  0.00     0.276 C 
BRANCH  13  14
HETATM   14  N   UNL     1      42.915 -10.578   4.729  1.00  0.00    -0.067 N 
HETATM   15  H   UNL     1      43.694 -10.022   5.136  1.00  0.00     0.277 HD
HETATM   16  H   UNL     1      42.357  -9.893   4.207  1.00  0.00     0.277 HD
BRANCH  14  17
HETATM   17  C   UNL     1      42.182 -11.332   5.797  1.00  0.00     0.189 C 
HETATM   18  C   UNL     1      41.527 -10.404   6.821  1.00  0.00     0.060 C 
HETATM   19  C   UNL     1      42.510  -9.731   7.769  1.00  0.00     0.237 C 
HETATM   20  N   UNL     1      43.392 -10.766   8.423  1.00  0.00    -0.067 N 
HETATM   21  H   UNL     1      42.796 -11.349   9.031  1.00  0.00     0.280 HD
HETATM   22  C   UNL     1      44.113 -11.652   7.447  1.00  0.00     0.237 C 
HETATM   23  C   UNL     1      43.127 -12.314   6.493  1.00  0.00     0.060 C 
BRANCH  20  24
HETATM   24  C   UNL     1      44.391 -10.136   9.407  1.00  0.00     0.273 C 
BRANCH  24  25
HETATM   25  C   UNL     1      43.765  -9.724  10.707  1.00  0.00    -0.033 A 
HETATM   26  C   UNL     1      43.672  -8.367  11.056  1.00  0.00     0.009 A 
HETATM   27  C   UNL     1      43.114  -7.991  12.278  1.00  0.00     0.001 A 
HETATM   28  C   UNL     1      42.646  -8.960  13.161  1.00  0.00     0.000 A 
HETATM   29  C   UNL     1      42.727 -10.308  12.824  1.00  0.00     0.001 A 
HETATM   30  C   UNL     1      43.281 -10.691  11.602  1.00  0.00     0.009 A 
ENDBRANCH  24  25
ENDBRANCH  20  24
ENDBRANCH  14  17
ENDBRANCH  13  14
ENDBRANCH   7  13
BRANCH   8  31
HETATM   31  O   UNL     1      42.066  -9.884   1.947  1.00  0.00    -0.360 OA
HETATM   32  H   UNL     1      42.750  -9.624   1.292  1.00  0.00     0.217 HD
ENDBRANCH   8  31
BRANCH   1  33
HETATM   33  C   UNL     1      42.050 -17.728   3.022  1.00  0.00     0.055 C 
BRANCH  33  34
HETATM   34  C   UNL     1      42.883 -18.580   2.061  1.00  0.00     0.116 C 
BRANCH  34  35
HETATM   35  C   UNL     1      43.587 -19.720   2.754  1.00  0.00     0.259 C 
HETATM   36  O   UNL     1      43.655 -20.856   2.296  1.00  0.00    -0.265 OA
BRANCH  35  37
HETATM   37  O   UNL     1      44.130 -19.300   3.925  1.00  0.00    -0.322 OA
BRANCH  37  38
HETATM   38  C   UNL     1      44.323 -20.300   4.937  1.00  0.00     0.174 C 
HETATM   39  C   UNL     1      43.540 -19.933   6.182  1.00  0.00     0.034 C 
ENDBRANCH  37  38
ENDBRANCH  35  37
ENDBRANCH  34  35
ENDBRANCH  33  34
ENDBRANCH   1  33
TORSDOF 11
ENDMDL
MODEL 3
REMARK VINA RESULT:      -8.5      2.942     10.646
REMARK  11 active torsions:
REMARK  status: ('A' for Active; 'I' for Inactive)
REMARK    1  A    between atoms: C_2  and  O_3 
REMARK    2  A    between atoms: O_3  and  C_4 
REMARK    3  A    between atoms: C_4  and  C_5 
REMARK    4  A    between atoms: C_5  and  C_6 
REMARK    5  A    between atoms: C_6  and  C_7 
REMARK    6  A    between atoms: C_13  and  C_14 
REMARK    7  A    between atoms: C_14  and  N_15 
REMARK    8  A    between atoms: N_15  and  C_18 
REMARK    9  A    between atoms: N_21  and  C_23 
REMARK   10  A    between atoms: C_23  and  C_24 
REMARK   11  A    between atoms: C_32  and  O_33 
ROOT
HETATM    1  C   UNL     1      41.319  -8.802   9.982  1.00  0.00     0.025 A 
HETATM    2  C   UNL     1      40.783  -9.474   8.766  1.00  0.00     0.295 A 
HETATM    3  O   UNL     1      39.587  -9.545   8.512  1.00  0.00    -0.259 OA
HETATM    4  O   UNL     1      41.695 -10.083   7.921  1.00  0.00    -0.274 OA
HETATM    5  C   UNL     1      43.081  -9.963   8.102  1.00  0.00     0.101 A 
HETATM    6  C   UNL     1      43.590  -9.251   9.188  1.00  0.00     0.005 A 
HETATM    7  C   UNL     1      43.893 -10.600   7.151  1.00  0.00     0.035 A 
HETATM    8  C   UNL     1      45.277 -10.494   7.301  1.00  0.00     0.076 A 
HETATM    9  C   UNL     1      45.829  -9.769   8.348  1.00  0.00     0.038 A 
HETATM   10  C   UNL     1      44.987  -9.153   9.284  1.00  0.00     0.017 A 
HETATM   11  C   UNL     1      42.652  -8.680  10.182  1.00  0.00    -0.037 A 
HETATM   12  C   UNL     1      43.272  -8.024  11.394  1.00  0.00     0.050 C 
ENDROOT
BRANCH   7  13
HETATM   13  C   UNL     1      43.306 -11.382   6.012  1.00  0.00     0.276 C 
BRANCH  13  14
HETATM   14  N   UNL     1      42.492 -12.545   6.538  1.00  0.00    -0.067 N 
HETATM   15  H   UNL     1      43.236 -13.143   6.949  1.00  0.00     0.277 HD
HETATM   16  H   UNL     1      41.971 -12.190   7.347  1.00  0.00     0.277 HD
BRANCH  14  17
HETATM   17  C   UNL     1      41.686 -13.309   5.532  1.00  0.00     0.189 C 
HETATM   18  C   UNL     1      41.027 -14.550   6.136  1.00  0.00     0.060 C 
HETATM   19  C   UNL     1      41.996 -15.686   6.437  1.00  0.00     0.237 C 
HETATM   20  N   UNL     1      42.808 -16.015   5.208  1.00  0.00    -0.067 N 
HETATM   21  H   UNL     1      42.164 -16.399   4.499  1.00  0.00     0.280 HD
HETATM   22  C   UNL     1      43.532 -14.834   4.626  1.00  0.00     0.237 C 
HETATM   23  C   UNL     1      42.561 -13.696   4.338  1.00  0.00     0.060 C 
BRANCH  20  24
HETATM   24  C   UNL     1      43.790 -17.171   5.456  1.00  0.00     0.273 C 
BRANCH  24  25
HETATM   25  C   UNL     1      43.690 -18.265   4.433  1.00  0.00    -0.033 A 
HETATM   26  C   UNL     1      44.040 -19.584   4.763  1.00  0.00     0.009 A 
HETATM   27  C   UNL     1      43.972 -20.592   3.800  1.00  0.00     0.001 A 
HETATM   28  C   UNL     1      43.558 -20.294   2.504  1.00  0.00     0.000 A 
HETATM   29  C   UNL     1      43.204 -18.991   2.167  1.00  0.00     0.001 A 
HETATM   30  C   UNL     1      43.266 -17.979   3.126  1.00  0.00     0.009 A 
ENDBRANCH  24  25
ENDBRANCH  20  24
ENDBRANCH  14  17
ENDBRANCH  13  14
ENDBRANCH   7  13
BRANCH   8  31
HETATM   31  O   UNL     1      46.076 -11.163   6.412  1.00  0.00    -0.360 OA
HETATM   32  H   UNL     1      46.678 -10.502   6.006  1.00  0.00     0.217 HD
ENDBRANCH   8  31
BRANCH   1  33
HETATM   33  C   UNL     1      40.228  -8.303  10.916  1.00  0.00     0.055 C 
BRANCH  33  34
HETATM   34  C   UNL     1      39.453  -9.401  11.649  1.00  0.00     0.116 C 
BRANCH  34  35
HETATM   35  C   UNL     1      40.012  -9.694  13.018  1.00  0.00     0.259 C 
HETATM   36  O   UNL     1      39.900 -10.777  13.582  1.00  0.00    -0.265 OA
BRANCH  35  37
HETATM   37  O   UNL     1      40.652  -8.603  13.512  1.00  0.00    -0.322 OA
BRANCH  37  38
HETATM   38  C   UNL     1      41.525  -8.824  14.631  1.00  0.00     0.174 C 
HETATM   39  C   UNL     1      42.026  -7.498  15.166  1.00  0.00     0.034 C 
ENDBRANCH  37  38
ENDBRANCH  35  37
ENDBRANCH  34  35
ENDBRANCH  33  34
ENDBRANCH   1  33
TORSDOF 11
ENDMDL
MODEL 4
REMARK VINA RESULT:      -8.4      3.205     10.824
REMARK  11 active torsions:
REMARK  status: ('A' for Active; 'I' for Inactive)
REMARK    1  A    between atoms: C_2  and  O_3 
REMARK    2  A    between atoms: O_3  and  C_4 
REMARK    3  A    between atoms: C_4  and  C_5 
REMARK    4  A    between atoms: C_5  and  C_6 
REMARK    5  A    between atoms: C_6  and  C_7 
REMARK    6  A    between atoms: C_13  and  C_14 
REMARK    7  A    between atoms: C_14  and  N_15 
REMARK    8  A    between atoms: N_15  and  C_18 
REMARK    9  A    between atoms: N_21  and  C_23 
REMARK   10  A    between atoms: C_23  and  C_24 
REMARK   11  A    between atoms: C_32  and  O_33 
ROOT
HETATM    1  C   UNL     1      41.785  -6.651  11.398  1.00  0.00     0.025 A 
HETATM    2  C   UNL     1      41.306  -6.717   9.990  1.00  0.00     0.295 A 
HETATM    3  O   UNL     1      40.485  -5.937   9.524  1.00  0.00    -0.259 OA
HETATM    4  O   UNL     1      41.790  -7.747   9.201  1.00  0.00    -0.274 OA
HETATM    5  C   UNL     1      42.798  -8.618   9.640  1.00  0.00     0.101 A 
HETATM    6  C   UNL     1      43.319  -8.499  10.928  1.00  0.00     0.005 A 
HETATM    7  C   UNL     1      43.222  -9.595   8.725  1.00  0.00     0.035 A 
HETATM    8  C   UNL     1      44.227 -10.474   9.131  1.00  0.00     0.076 A 
HETATM    9  C   UNL     1      44.798 -10.373  10.393  1.00  0.00     0.038 A 
HETATM   10  C   UNL     1      44.343  -9.390  11.283  1.00  0.00     0.017 A 
HETATM   11  C   UNL     1      42.751  -7.486  11.847  1.00  0.00    -0.037 A 
HETATM   12  C   UNL     1      43.279  -7.490  13.263  1.00  0.00     0.050 C 
ENDROOT
BRANCH   7  13
HETATM   13  C   UNL     1      42.614  -9.709   7.358  1.00  0.00     0.276 C 
BRANCH  13  14
HETATM   14  N   UNL     1      42.065 -11.102   7.141  1.00  0.00    -0.067 N 
HETATM   15  H   UNL     1      42.833 -11.685   7.529  1.00  0.00     0.277 HD
HETATM   16  H   UNL     1      41.294 -11.216   7.808  1.00  0.00     0.277 HD
BRANCH  14  17
HETATM   17  C   UNL     1      41.760 -11.491   5.726  1.00  0.00     0.189 C 
HETATM   18  C   UNL     1      40.524 -12.386   5.622  1.00  0.00     0.060 C 
HETATM   19  C   UNL     1      40.743 -13.809   6.119  1.00  0.00     0.237 C 
HETATM   20  N   UNL     1      41.944 -14.418   5.439  1.00  0.00    -0.067 N 
HETATM   21  H   UNL     1      41.721 -14.521   4.437  1.00  0.00     0.280 HD
HETATM   22  C   UNL     1      43.199 -13.604   5.583  1.00  0.00     0.237 C 
HETATM   23  C   UNL     1      42.973 -12.179   5.094  1.00  0.00     0.060 C 
BRANCH  20  24
HETATM   24  C   UNL     1      42.195 -15.865   5.895  1.00  0.00     0.273 C 
BRANCH  24  25
HETATM   25  C   UNL     1      42.743 -16.743   4.808  1.00  0.00    -0.033 A 
HETATM   26  C   UNL     1      42.244 -16.653   3.499  1.00  0.00     0.009 A 
HETATM   27  C   UNL     1      42.738 -17.491   2.498  1.00  0.00     0.001 A 
HETATM   28  C   UNL     1      43.730 -18.423   2.793  1.00  0.00     0.000 A 
HETATM   29  C   UNL     1      44.236 -18.518   4.086  1.00  0.00     0.001 A 
HETATM   30  C   UNL     1      43.749 -17.681   5.091  1.00  0.00     0.009 A 
ENDBRANCH  24  25
ENDBRANCH  20  24
ENDBRANCH  14  17
ENDBRANCH  13  14
ENDBRANCH   7  13
BRANCH   8  31
HETATM   31  O   UNL     1      44.604 -11.468   8.268  1.00  0.00    -0.360 OA
HETATM   32  H   UNL     1      44.101 -12.275   8.514  1.00  0.00     0.217 HD
ENDBRANCH   8  31
BRANCH   1  33
HETATM   33  C   UNL     1      41.078  -5.582  12.218  1.00  0.00     0.055 C 
BRANCH  33  34
HETATM   34  C   UNL     1      40.136  -6.116  13.299  1.00  0.00     0.116 C 
BRANCH  34  35
HETATM   35  C   UNL     1      39.085  -7.047  12.749  1.00  0.00     0.259 C 
HETATM   36  O   UNL     1      38.220  -6.702  11.952  1.00  0.00    -0.265 OA
BRANCH  35  37
HETATM   37  O   UNL     1      39.250  -8.297  13.251  1.00  0.00    -0.322 OA
BRANCH  37  38
HETATM   38  C   UNL     1      39.556  -9.333  12.305  1.00  0.00     0.174 C 
HETATM   39  C   UNL     1      40.613 -10.259  12.873  1.00  0.00     0.034 C 
ENDBRANCH  37  38
ENDBRANCH  35  37
ENDBRANCH  34  35
ENDBRANCH  33  34
ENDBRANCH   1  33
TORSDOF 11
ENDMDL
MODEL 5
REMARK VINA RESULT:      -8.3      3.453     10.885
REMARK  11 active torsions:
REMARK  status: ('A' for Active; 'I' for Inactive)
REMARK    1  A    between atoms: C_2  and  O_3 
REMARK    2  A    between atoms: O_3  and  C_4 
REMARK    3  A    between atoms: C_4  and  C_5 
REMARK    4  A    between atoms: C_5  and  C_6 
REMARK    5  A    between atoms: C_6  and  C_7 
REMARK    6  A    between atoms: C_13  and  C_14 
REMARK    7  A    between atoms: C_14  and  N_15 
REMARK    8  A    between atoms: N_15  and  C_18 
REMARK    9  A    between atoms: N_21  and  C_23 
REMARK   10  A    between atoms: C_23  and  C_24 
REMARK   11  A    between atoms: C_32  and  O_33 
ROOT
HETATM    1  C   UNL     1      40.830  -8.938  11.576  1.00  0.00     0.025 A 
HETATM    2  C   UNL     1      40.273  -9.033  10.198  1.00  0.00     0.295 A 
HETATM    3  O   UNL     1      39.087  -8.865   9.943  1.00  0.00    -0.259 OA
HETATM    4  O   UNL     1      41.147  -9.375   9.181  1.00  0.00    -0.274 OA
HETATM    5  C   UNL     1      42.529  -9.492   9.387  1.00  0.00     0.101 A 
HETATM    6  C   UNL     1      43.069  -9.309  10.660  1.00  0.00     0.005 A 
HETATM    7  C   UNL     1      43.304  -9.809   8.260  1.00  0.00     0.035 A 
HETATM    8  C   UNL     1      44.685  -9.928   8.432  1.00  0.00     0.076 A 
HETATM    9  C   UNL     1      45.270  -9.722   9.675  1.00  0.00     0.038 A 
HETATM   10  C   UNL     1      44.463  -9.415  10.778  1.00  0.00     0.017 A 
HETATM   11  C   UNL     1      42.160  -9.054  11.801  1.00  0.00    -0.037 A 
HETATM   12  C   UNL     1      42.799  -8.983  13.168  1.00  0.00     0.050 C 
ENDROOT
BRANCH   7  13
HETATM   13  C   UNL     1      42.681 -10.028   6.913  1.00  0.00     0.276 C 
BRANCH  13  14
HETATM   14  N   UNL     1      41.834 -11.282   6.923  1.00  0.00    -0.067 N 
HETATM   15  H   UNL     1      42.471 -11.954   7.395  1.00  0.00     0.277 HD
HETATM   16  H   UNL     1      41.083 -11.118   7.604  1.00  0.00     0.277 HD
BRANCH  14  17
HETATM   17  C   UNL     1      41.395 -11.807   5.590  1.00  0.00     0.189 C 
HETATM   18  C   UNL     1      40.286 -12.854   5.712  1.00  0.00     0.060 C 
HETATM   19  C   UNL     1      40.757 -14.199   6.250  1.00  0.00     0.237 C 
HETATM   20  N   UNL     1      41.926 -14.702   5.439  1.00  0.00    -0.067 N 
HETATM   21  H   UNL     1      41.585 -14.903   4.486  1.00  0.00     0.280 HD
HETATM   22  C   UNL     1      43.069 -13.730   5.356  1.00  0.00     0.237 C 
HETATM   23  C   UNL     1      42.592 -12.383   4.829  1.00  0.00     0.060 C 
BRANCH  20  24
HETATM   24  C   UNL     1      42.426 -16.070   5.932  1.00  0.00     0.273 C 
BRANCH  24  25
HETATM   25  C   UNL     1      42.894 -16.966   4.822  1.00  0.00    -0.033 A 
HETATM   26  C   UNL     1      42.325 -16.871   3.541  1.00  0.00     0.009 A 
HETATM   27  C   UNL     1      42.744 -17.726   2.521  1.00  0.00     0.001 A 
HETATM   28  C   UNL     1      43.729 -18.679   2.766  1.00  0.00     0.000 A 
HETATM   29  C   UNL     1      44.304 -18.778   4.030  1.00  0.00     0.001 A 
HETATM   30  C   UNL     1      43.892 -17.925   5.054  1.00  0.00     0.009 A 
ENDBRANCH  24  25
ENDBRANCH  20  24
ENDBRANCH  14  17
ENDBRANCH  13  14
ENDBRANCH   7  13
BRANCH   8  31
HETATM   31  O   UNL     1      45.442 -10.296   7.352  1.00  0.00    -0.360 OA
HETATM   32  H   UNL     1      46.141  -9.616   7.239  1.00  0.00     0.217 HD
ENDBRANCH   8  31
BRANCH   1  33
HETATM   33  C   UNL     1      39.763  -8.709  12.636  1.00  0.00     0.055 C 
BRANCH  33  34
HETATM   34  C   UNL     1      39.423  -7.241  12.902  1.00  0.00     0.116 C 
BRANCH  34  35
HETATM   35  C   UNL     1      40.227  -6.651  14.033  1.00  0.00     0.259 C 
HETATM   36  O   UNL     1      40.028  -6.907  15.215  1.00  0.00    -0.265 OA
BRANCH  35  37
HETATM   37  O   UNL     1      41.189  -5.825  13.549  1.00  0.00    -0.322 OA
BRANCH  37  38
HETATM   38  C   UNL     1      40.951  -5.252  12.254  1.00  0.00     0.174 C 
HETATM   39  C   UNL     1      42.184  -5.401  11.386  1.00  0.00     0.034 C 
ENDBRANCH  37  38
ENDBRANCH  35  37
ENDBRANCH  34  35
ENDBRANCH  33  34
ENDBRANCH   1  33
TORSDOF 11
ENDMDL
MODEL 6
REMARK VINA RESULT:      -8.3      2.930      4.196
REMARK  11 active torsions:
REMARK  status: ('A' for Active; 'I' for Inactive)
REMARK    1  A    between atoms: C_2  and  O_3 
REMARK    2  A    between atoms: O_3  and  C_4 
REMARK    3  A    between atoms: C_4  and  C_5 
REMARK    4  A    between atoms: C_5  and  C_6 
REMARK    5  A    between atoms: C_6  and  C_7 
REMARK    6  A    between atoms: C_13  and  C_14 
REMARK    7  A    between atoms: C_14  and  N_15 
REMARK    8  A    between atoms: N_15  and  C_18 
REMARK    9  A    between atoms: N_21  and  C_23 
REMARK   10  A    between atoms: C_23  and  C_24 
REMARK   11  A    between atoms: C_32  and  O_33 
ROOT
HETATM    1  C   UNL     1      40.527 -14.369   3.054  1.00  0.00     0.025 A 
HETATM    2  C   UNL     1      40.277 -12.930   3.342  1.00  0.00     0.295 A 
HETATM    3  O   UNL     1      39.408 -12.276   2.779  1.00  0.00    -0.259 OA
HETATM    4  O   UNL     1      41.111 -12.310   4.257  1.00  0.00    -0.274 OA
HETATM    5  C   UNL     1      42.064 -13.018   5.003  1.00  0.00     0.101 A 
HETATM    6  C   UNL     1      42.236 -14.388   4.807  1.00  0.00     0.005 A 
HETATM    7  C   UNL     1      42.817 -12.272   5.923  1.00  0.00     0.035 A 
HETATM    8  C   UNL     1      43.771 -12.950   6.685  1.00  0.00     0.076 A 
HETATM    9  C   UNL     1      43.955 -14.320   6.546  1.00  0.00     0.038 A 
HETATM   10  C   UNL     1      43.190 -15.030   5.611  1.00  0.00     0.017 A 
HETATM   11  C   UNL     1      41.447 -15.072   3.756  1.00  0.00    -0.037 A 
HETATM   12  C   UNL     1      41.766 -16.530   3.516  1.00  0.00     0.050 C 
ENDROOT
BRANCH   7  13
HETATM   13  C   UNL     1      42.623 -10.793   6.084  1.00  0.00     0.276 C 
BRANCH  13  14
HETATM   14  N   UNL     1      42.197 -10.470   7.500  1.00  0.00    -0.067 N 
HETATM   15  H   UNL     1      41.167 -10.592   7.435  1.00  0.00     0.277 HD
HETATM   16  H   UNL     1      42.513 -11.253   8.083  1.00  0.00     0.277 HD
BRANCH  14  17
HETATM   17  C   UNL     1      42.542  -9.103   8.010  1.00  0.00     0.189 C 
HETATM   18  C   UNL     1      43.876  -9.081   8.759  1.00  0.00     0.060 C 
HETATM   19  C   UNL     1      43.829  -9.739  10.132  1.00  0.00     0.237 C 
HETATM   20  N   UNL     1      42.707  -9.153  10.952  1.00  0.00    -0.067 N 
HETATM   21  H   UNL     1      42.938  -8.165  11.141  1.00  0.00     0.280 HD
HETATM   22  C   UNL     1      41.365  -9.224  10.281  1.00  0.00     0.237 C 
HETATM   23  C   UNL     1      41.418  -8.574   8.903  1.00  0.00     0.060 C 
BRANCH  20  24
HETATM   24  C   UNL     1      42.632  -9.774  12.357  1.00  0.00     0.273 C 
BRANCH  24  25
HETATM   25  C   UNL     1      42.474  -8.755  13.448  1.00  0.00    -0.033 A 
HETATM   26  C   UNL     1      43.300  -7.621  13.489  1.00  0.00     0.009 A 
HETATM   27  C   UNL     1      43.168  -6.691  14.522  1.00  0.00     0.001 A 
HETATM   28  C   UNL     1      42.214  -6.884  15.519  1.00  0.00     0.000 A 
HETATM   29  C   UNL     1      41.386  -8.001  15.484  1.00  0.00     0.001 A 
HETATM   30  C   UNL     1      41.510  -8.933  14.453  1.00  0.00     0.009 A 
ENDBRANCH  24  25
ENDBRANCH  20  24
ENDBRANCH  14  17
ENDBRANCH  13  14
ENDBRANCH   7  13
BRANCH   8  31
HETATM   31  O   UNL     1      44.552 -12.220   7.541  1.00  0.00    -0.360 OA
HETATM   32  H   UNL     1      45.160 -12.848   7.989  1.00  0.00     0.217 HD
ENDBRANCH   8  31
BRANCH   1  33
HETATM   33  C   UNL     1      39.661 -14.910   1.927  1.00  0.00     0.055 C 
BRANCH  33  34
HETATM   34  C   UNL     1      40.362 -15.023   0.572  1.00  0.00     0.116 C 
BRANCH  34  35
HETATM   35  C   UNL     1      40.165 -13.801  -0.290  1.00  0.00     0.259 C 
HETATM   36  O   UNL     1      40.840 -12.781  -0.190  1.00  0.00    -0.265 OA
BRANCH  35  37
HETATM   37  O   UNL     1      39.160 -14.005  -1.179  1.00  0.00    -0.322 OA
BRANCH  37  38
HETATM   38  C   UNL     1      39.542 -14.470  -2.483  1.00  0.00     0.174 C 
HETATM   39  C   UNL     1      38.312 -14.645  -3.351  1.00  0.00     0.034 C 
ENDBRANCH  37  38
ENDBRANCH  35  37
ENDBRANCH  34  35
ENDBRANCH  33  34
ENDBRANCH   1  33
TORSDOF 11
ENDMDL
MODEL 7
REMARK VINA RESULT:      -8.1      3.050     10.569
REMARK  11 active torsions:
REMARK  status: ('A' for Active; 'I' for Inactive)
REMARK    1  A    between atoms: C_2  and  O_3 
REMARK    2  A    between atoms: O_3  and  C_4 
REMARK    3  A    between atoms: C_4  and  C_5 
REMARK    4  A    between atoms: C_5  and  C_6 
REMARK    5  A    between atoms: C_6  and  C_7 
REMARK    6  A    between atoms: C_13  and  C_14 
REMARK    7  A    between atoms: C_14  and  N_15 
REMARK    8  A    between atoms: N_15  and  C_18 
REMARK    9  A    between atoms: N_21  and  C_23 
REMARK   10  A    between atoms: C_23  and  C_24 
REMARK   11  A    between atoms: C_32  and  O_33 
ROOT
HETATM    1  C   UNL     1      43.178  -9.739  10.181  1.00  0.00     0.025 A 
HETATM    2  C   UNL     1      41.967  -9.629   9.322  1.00  0.00     0.295 A 
HETATM    3  O   UNL     1      40.885  -9.233   9.738  1.00  0.00    -0.259 OA
HETATM    4  O   UNL     1      42.079 -10.046   8.007  1.00  0.00    -0.274 OA
HETATM    5  C   UNL     1      43.306 -10.423   7.443  1.00  0.00     0.101 A 
HETATM    6  C   UNL     1      44.465 -10.435   8.219  1.00  0.00     0.005 A 
HETATM    7  C   UNL     1      43.284 -10.789   6.087  1.00  0.00     0.035 A 
HETATM    8  C   UNL     1      44.491 -11.165   5.495  1.00  0.00     0.076 A 
HETATM    9  C   UNL     1      45.675 -11.161   6.220  1.00  0.00     0.038 A 
HETATM   10  C   UNL     1      45.657 -10.798   7.574  1.00  0.00     0.017 A 
HETATM   11  C   UNL     1      44.372 -10.108   9.660  1.00  0.00    -0.037 A 
HETATM   12  C   UNL     1      45.642 -10.254  10.467  1.00  0.00     0.050 C 
ENDROOT
BRANCH   7  13
HETATM   13  C   UNL     1      42.011 -10.792   5.294  1.00  0.00     0.276 C 
BRANCH  13  14
HETATM   14  N   UNL     1      41.920 -12.045   4.449  1.00  0.00    -0.067 N 
HETATM   15  H   UNL     1      41.278 -11.734   3.693  1.00  0.00     0.277 HD
HETATM   16  H   UNL     1      42.830 -12.148   3.987  1.00  0.00     0.277 HD
BRANCH  14  17
HETATM   17  C   UNL     1      41.394 -13.274   5.125  1.00  0.00     0.189 C 
HETATM   18  C   UNL     1      42.511 -14.146   5.700  1.00  0.00     0.060 C 
HETATM   19  C   UNL     1      43.320 -14.895   4.648  1.00  0.00     0.237 C 
HETATM   20  N   UNL     1      42.399 -15.675   3.743  1.00  0.00    -0.067 N 
HETATM   21  H   UNL     1      41.954 -16.415   4.309  1.00  0.00     0.280 HD
HETATM   22  C   UNL     1      41.330 -14.838   3.099  1.00  0.00     0.237 C 
HETATM   23  C   UNL     1      40.531 -14.083   4.154  1.00  0.00     0.060 C 
BRANCH  20  24
HETATM   24  C   UNL     1      43.172 -16.465   2.674  1.00  0.00     0.273 C 
BRANCH  24  25
HETATM   25  C   UNL     1      43.405 -17.900   3.049  1.00  0.00    -0.033 A 
HETATM   26  C   UNL     1      43.992 -18.228   4.283  1.00  0.00     0.009 A 
HETATM   27  C   UNL     1      44.232 -19.561   4.614  1.00  0.00     0.001 A 
HETATM   28  C   UNL     1      43.893 -20.577   3.723  1.00  0.00     0.000 A 
HETATM   29  C   UNL     1      43.306 -20.264   2.501  1.00  0.00     0.001 A 
HETATM   30  C   UNL     1      43.060 -18.932   2.163  1.00  0.00     0.009 A 
ENDBRANCH  24  25
ENDBRANCH  20  24
ENDBRANCH  14  17
ENDBRANCH  13  14
ENDBRANCH   7  13
BRANCH   8  31
HETATM   31  O   UNL     1      44.469 -11.582   4.190  1.00  0.00    -0.360 OA
HETATM   32  H   UNL     1      43.652 -11.221   3.782  1.00  0.00     0.217 HD
ENDBRANCH   8  31
BRANCH   1  33
HETATM   33  C   UNL     1      42.908  -9.402  11.639  1.00  0.00     0.055 C 
BRANCH  33  34
HETATM   34  C   UNL     1      43.260  -7.970  12.047  1.00  0.00     0.116 C 
BRANCH  34  35
HETATM   35  C   UNL     1      42.041  -7.119  12.300  1.00  0.00     0.259 C 
HETATM   36  O   UNL     1      41.745  -6.137  11.628  1.00  0.00    -0.265 OA
BRANCH  35  37
HETATM   37  O   UNL     1      41.334  -7.605  13.352  1.00  0.00    -0.322 OA
BRANCH  37  38
HETATM   38  C   UNL     1      39.904  -7.512  13.262  1.00  0.00     0.174 C 
HETATM   39  C   UNL     1      39.331  -8.819  12.750  1.00  0.00     0.034 C 
ENDBRANCH  37  38
ENDBRANCH  35  37
ENDBRANCH  34  35
ENDBRANCH  33  34
ENDBRANCH   1  33
TORSDOF 11
ENDMDL
MODEL 8
REMARK VINA RESULT:      -8.1      3.361      8.759
REMARK  11 active torsions:
REMARK  status: ('A' for Active; 'I' for Inactive)
REMARK    1  A    between atoms: C_2  and  O_3 
REMARK    2  A    between atoms: O_3  and  C_4 
REMARK    3  A    between atoms: C_4  and  C_5 
REMARK    4  A    between atoms: C_5  and  C_6 
REMARK    5  A    between atoms: C_6  and  C_7 
REMARK    6  A    between atoms: C_13  and  C_14 
REMARK    7  A    between atoms: C_14  and  N_15 
REMARK    8  A    between atoms: N_15  and  C_18 
REMARK    9  A    between atoms: N_21  and  C_23 
REMARK   10  A    between atoms: C_23  and  C_24 
REMARK   11  A    between atoms: C_32  and  O_33 
ROOT
HETATM    1  C   UNL     1      43.388 -13.081   5.772  1.00  0.00     0.025 A 
HETATM    2  C   UNL     1      43.519 -12.733   4.331  1.00  0.00     0.295 A 
HETATM    3  O   UNL     1      43.706 -11.591   3.932  1.00  0.00    -0.259 OA
HETATM    4  O   UNL     1      43.372 -13.759   3.413  1.00  0.00    -0.274 OA
HETATM    5  C   UNL     1      43.248 -15.101   3.801  1.00  0.00     0.101 A 
HETATM    6  C   UNL     1      43.222 -15.443   5.153  1.00  0.00     0.005 A 
HETATM    7  C   UNL     1      43.143 -16.044   2.766  1.00  0.00     0.035 A 
HETATM    8  C   UNL     1      43.024 -17.389   3.121  1.00  0.00     0.076 A 
HETATM    9  C   UNL     1      43.025 -17.779   4.454  1.00  0.00     0.038 A 
HETATM   10  C   UNL     1      43.124 -16.809   5.460  1.00  0.00     0.017 A 
HETATM   11  C   UNL     1      43.261 -14.369   6.171  1.00  0.00    -0.037 A 
HETATM   12  C   UNL     1      43.110 -14.800   7.612  1.00  0.00     0.050 C 
ENDROOT
BRANCH   7  13
HETATM   13  C   UNL     1      43.146 -15.632   1.323  1.00  0.00     0.276 C 
BRANCH  13  14
HETATM   14  N   UNL     1      42.082 -14.585   1.073  1.00  0.00    -0.067 N 
HETATM   15  H   UNL     1      42.148 -14.018   1.942  1.00  0.00     0.277 HD
HETATM   16  H   UNL     1      42.449 -13.971   0.337  1.00  0.00     0.277 HD
BRANCH  14  17
HETATM   17  C   UNL     1      40.685 -15.084   0.864  1.00  0.00     0.189 C 
HETATM   18  C   UNL     1      39.936 -14.287  -0.205  1.00  0.00     0.060 C 
HETATM   19  C   UNL     1      39.526 -12.888   0.234  1.00  0.00     0.237 C 
HETATM   20  N   UNL     1      38.760 -12.954   1.532  1.00  0.00    -0.067 N 
HETATM   21  H   UNL     1      37.870 -13.445   1.348  1.00  0.00     0.280 HD
HETATM   22  C   UNL     1      39.494 -13.666   2.633  1.00  0.00     0.237 C 
HETATM   23  C   UNL     1      39.913 -15.061   2.186  1.00  0.00     0.060 C 
BRANCH  20  24
HETATM   24  C   UNL     1      38.306 -11.565   2.008  1.00  0.00     0.273 C 
BRANCH  24  25
HETATM   25  C   UNL     1      39.263 -10.925   2.971  1.00  0.00    -0.033 A 
HETATM   26  C   UNL     1      39.138 -11.144   4.352  1.00  0.00     0.009 A 
HETATM   27  C   UNL     1      40.013 -10.525   5.245  1.00  0.00     0.001 A 
HETATM   28  C   UNL     1      41.017  -9.684   4.771  1.00  0.00     0.000 A 
HETATM   29  C   UNL     1      41.155  -9.464   3.404  1.00  0.00     0.001 A 
HETATM   30  C   UNL     1      40.285 -10.083   2.505  1.00  0.00     0.009 A 
ENDBRANCH  24  25
ENDBRANCH  20  24
ENDBRANCH  14  17
ENDBRANCH  13  14
ENDBRANCH   7  13
BRANCH   8  31
HETATM   31  O   UNL     1      42.860 -18.309   2.120  1.00  0.00    -0.360 OA
HETATM   32  H   UNL     1      43.714 -18.373   1.639  1.00  0.00     0.217 HD
ENDBRANCH   8  31
BRANCH   1  33
HETATM   33  C   UNL     1      43.412 -11.864   6.684  1.00  0.00     0.055 C 
BRANCH  33  34
HETATM   34  C   UNL     1      44.793 -11.493   7.229  1.00  0.00     0.116 C 
BRANCH  34  35
HETATM   35  C   UNL     1      44.723 -10.550   8.404  1.00  0.00     0.259 C 
HETATM   36  O   UNL     1      45.154  -9.403   8.383  1.00  0.00    -0.265 OA
BRANCH  35  37
HETATM   37  O   UNL     1      44.111 -11.151   9.456  1.00  0.00    -0.322 OA
BRANCH  37  38
HETATM   38  C   UNL     1      44.085 -10.414  10.689  1.00  0.00     0.174 C 
HETATM   39  C   UNL     1      42.690  -9.879  10.943  1.00  0.00     0.034 C 
ENDBRANCH  37  38
ENDBRANCH  35  37
ENDBRANCH  34  35
ENDBRANCH  33  34
ENDBRANCH   1  33
TORSDOF 11
ENDMDL
MODEL 9
REMARK VINA RESULT:      -8.0      4.981      9.262
REMARK  11 active torsions:
REMARK  status: ('A' for Active; 'I' for Inactive)
REMARK    1  A    between atoms: C_2  and  O_3 
REMARK    2  A    between atoms: O_3  and  C_4 
REMARK    3  A    between atoms: C_4  and  C_5 
REMARK    4  A    between atoms: C_5  and  C_6 
REMARK    5  A    between atoms: C_6  and  C_7 
REMARK    6  A    between atoms: C_13  and  C_14 
REMARK    7  A    between atoms: C_14  and  N_15 
REMARK    8  A    between atoms: N_15  and  C_18 
REMARK    9  A    between atoms: N_21  and  C_23 
REMARK   10  A    between atoms: C_23  and  C_24 
REMARK   11  A    between atoms: C_32  and  O_33 
ROOT
HETATM    1  C   UNL     1      42.129 -15.564   3.548  1.00  0.00     0.025 A 
HETATM    2  C   UNL     1      42.850 -14.456   2.863  1.00  0.00     0.295 A 
HETATM    3  O   UNL     1      43.619 -14.636   1.927  1.00  0.00    -0.259 OA
HETATM    4  O   UNL     1      42.664 -13.176   3.355  1.00  0.00    -0.274 OA
HETATM    5  C   UNL     1      41.731 -12.888   4.362  1.00  0.00     0.101 A 
HETATM    6  C   UNL     1      40.981 -13.911   4.941  1.00  0.00     0.005 A 
HETATM    7  C   UNL     1      41.618 -11.541   4.742  1.00  0.00     0.035 A 
HETATM    8  C   UNL     1      40.694 -11.221   5.738  1.00  0.00     0.076 A 
HETATM    9  C   UNL     1      39.902 -12.203   6.321  1.00  0.00     0.038 A 
HETATM   10  C   UNL     1      40.049 -13.538   5.921  1.00  0.00     0.017 A 
HETATM   11  C   UNL     1      41.228 -15.311   4.527  1.00  0.00    -0.037 A 
HETATM   12  C   UNL     1      40.466 -16.380   5.276  1.00  0.00     0.050 C 
ENDROOT
BRANCH   7  13
HETATM   13  C   UNL     1      42.465 -10.473   4.115  1.00  0.00     0.276 C 
BRANCH  13  14
HETATM   14  N   UNL     1      42.266 -10.457   2.615  1.00  0.00    -0.067 N 
HETATM   15  H   UNL     1      43.041  -9.832   2.315  1.00  0.00     0.277 HD
HETATM   16  H   UNL     1      42.540 -11.387   2.278  1.00  0.00     0.277 HD
BRANCH  14  17
HETATM   17  C   UNL     1      40.947  -9.949   2.117  1.00  0.00     0.189 C 
HETATM   18  C   UNL     1      39.974 -11.082   1.787  1.00  0.00     0.060 C 
HETATM   19  C   UNL     1      40.322 -11.850   0.518  1.00  0.00     0.237 C 
HETATM   20  N   UNL     1      40.494 -10.895  -0.637  1.00  0.00    -0.067 N 
HETATM   21  H   UNL     1      39.575 -10.466  -0.831  1.00  0.00     0.280 HD
HETATM   22  C   UNL     1      41.499  -9.808  -0.379  1.00  0.00     0.237 C 
HETATM   23  C   UNL     1      41.154  -9.049   0.897  1.00  0.00     0.060 C 
BRANCH  20  24
HETATM   24  C   UNL     1      40.827 -11.626  -1.947  1.00  0.00     0.273 C 
BRANCH  24  25
HETATM   25  C   UNL     1      39.775 -12.614  -2.360  1.00  0.00    -0.033 A 
HETATM   26  C   UNL     1      38.442 -12.206  -2.529  1.00  0.00     0.009 A 
HETATM   27  C   UNL     1      37.462 -13.134  -2.886  1.00  0.00     0.001 A 
HETATM   28  C   UNL     1      37.801 -14.471  -3.076  1.00  0.00     0.000 A 
HETATM   29  C   UNL     1      39.120 -14.886  -2.917  1.00  0.00     0.001 A 
HETATM   30  C   UNL     1      40.106 -13.963  -2.563  1.00  0.00     0.009 A 
ENDBRANCH  24  25
ENDBRANCH  20  24
ENDBRANCH  14  17
ENDBRANCH  13  14
ENDBRANCH   7  13
BRANCH   8  31
HETATM   31  O   UNL     1      40.620  -9.920   6.158  1.00  0.00    -0.360 OA
HETATM   32  H   UNL     1      41.406  -9.749   6.721  1.00  0.00     0.217 HD
ENDBRANCH   8  31
BRANCH   1  33
HETATM   33  C   UNL     1      42.520 -16.940   3.030  1.00  0.00     0.055 C 
BRANCH  33  34
HETATM   34  C   UNL     1      43.915 -17.413   3.446  1.00  0.00     0.116 C 
BRANCH  34  35
HETATM   35  C   UNL     1      43.875 -18.506   4.483  1.00  0.00     0.259 C 
HETATM   36  O   UNL     1      43.397 -18.365   5.604  1.00  0.00    -0.265 OA
BRANCH  35  37
HETATM   37  O   UNL     1      44.424 -19.646   3.991  1.00  0.00    -0.322 OA
BRANCH  37  38
HETATM   38  C   UNL     1      43.527 -20.562   3.343  1.00  0.00     0.174 C 
HETATM   39  C   UNL     1      43.694 -20.474   1.839  1.00  0.00     0.034 C 
ENDBRANCH  37  38
ENDBRANCH  35  37
ENDBRANCH  34  35
ENDBRANCH  33  34
ENDBRANCH   1  33
TORSDOF 11
ENDMDL
MODEL 10
REMARK VINA RESULT:      -7.9      3.800     10.204
REMARK  11 active torsions:
REMARK  status: ('A' for Active; 'I' for Inactive)
REMARK    1  A    between atoms: C_2  and  O_3 
REMARK    2  A    between atoms: O_3  and  C_4 
REMARK    3  A    between atoms: C_4  and  C_5 
REMARK    4  A    between atoms: C_5  and  C_6 
REMARK    5  A    between atoms: C_6  and  C_7 
REMARK    6  A    between atoms: C_13  and  C_14 
REMARK    7  A    between atoms: C_14  and  N_15 
REMARK    8  A    between atoms: N_15  and  C_18 
REMARK    9  A    between atoms: N_21  and  C_23 
REMARK   10  A    between atoms: C_23  and  C_24 
REMARK   11  A    between atoms: C_32  and  O_33 
ROOT
HETATM    1  C   UNL     1      42.950 -13.016   5.526  1.00  0.00     0.025 A 
HETATM    2  C   UNL     1      42.965 -12.748   4.062  1.00  0.00     0.295 A 
HETATM    3  O   UNL     1      42.916 -11.620   3.587  1.00  0.00    -0.259 OA
HETATM    4  O   UNL     1      42.988 -13.843   3.215  1.00  0.00    -0.274 OA
HETATM    5  C   UNL     1      43.137 -15.154   3.689  1.00  0.00     0.101 A 
HETATM    6  C   UNL     1      43.221 -15.403   5.058  1.00  0.00     0.005 A 
HETATM    7  C   UNL     1      43.182 -16.168   2.718  1.00  0.00     0.035 A 
HETATM    8  C   UNL     1      43.334 -17.484   3.158  1.00  0.00     0.076 A 
HETATM    9  C   UNL     1      43.454 -17.776   4.510  1.00  0.00     0.038 A 
HETATM   10  C   UNL     1      43.397 -16.739   5.451  1.00  0.00     0.017 A 
HETATM   11  C   UNL     1      43.085 -14.275   6.007  1.00  0.00    -0.037 A 
HETATM   12  C   UNL     1      43.067 -14.628   7.477  1.00  0.00     0.050 C 
ENDROOT
BRANCH   7  13
HETATM   13  C   UNL     1      43.058 -15.862   1.254  1.00  0.00     0.276 C 
BRANCH  13  14
HETATM   14  N   UNL     1      42.021 -14.783   1.028  1.00  0.00    -0.067 N 
HETATM   15  H   UNL     1      42.249 -14.119   1.795  1.00  0.00     0.277 HD
HETATM   16  H   UNL     1      42.298 -14.291   0.171  1.00  0.00     0.277 HD
BRANCH  14  17
HETATM   17  C   UNL     1      40.586 -15.206   1.097  1.00  0.00     0.189 C 
HETATM   18  C   UNL     1      39.867 -15.049  -0.244  1.00  0.00     0.060 C 
HETATM   19  C   UNL     1      39.574 -13.605  -0.628  1.00  0.00     0.237 C 
HETATM   20  N   UNL     1      38.842 -12.908   0.493  1.00  0.00    -0.067 N 
HETATM   21  H   UNL     1      37.914 -13.350   0.586  1.00  0.00     0.280 HD
HETATM   22  C   UNL     1      39.554 -12.975   1.815  1.00  0.00     0.237 C 
HETATM   23  C   UNL     1      39.855 -14.421   2.189  1.00  0.00     0.060 C 
BRANCH  20  24
HETATM   24  C   UNL     1      38.506 -11.449   0.145  1.00  0.00     0.273 C 
BRANCH  24  25
HETATM   25  C   UNL     1      39.333 -10.901  -0.982  1.00  0.00    -0.033 A 
HETATM   26  C   UNL     1      40.645 -10.456  -0.752  1.00  0.00     0.009 A 
HETATM   27  C   UNL     1      41.400  -9.922  -1.797  1.00  0.00     0.001 A 
HETATM   28  C   UNL     1      40.855  -9.826  -3.076  1.00  0.00     0.000 A 
HETATM   29  C   UNL     1      39.558 -10.269  -3.316  1.00  0.00     0.001 A 
HETATM   30  C   UNL     1      38.799 -10.808  -2.277  1.00  0.00     0.009 A 
ENDBRANCH  24  25
ENDBRANCH  20  24
ENDBRANCH  14  17
ENDBRANCH  13  14
ENDBRANCH   7  13
BRANCH   8  31
HETATM   31  O   UNL     1      43.318 -18.484   2.223  1.00  0.00    -0.360 OA
HETATM   32  H   UNL     1      43.778 -18.145   1.424  1.00  0.00     0.217 HD
ENDBRANCH   8  31
BRANCH   1  33
HETATM   33  C   UNL     1      42.769 -11.758   6.361  1.00  0.00     0.055 C 
BRANCH  33  34
HETATM   34  C   UNL     1      43.973 -10.813   6.372  1.00  0.00     0.116 C 
BRANCH  34  35
HETATM   35  C   UNL     1      45.016 -11.210   7.385  1.00  0.00     0.259 C 
HETATM   36  O   UNL     1      46.218 -11.254   7.143  1.00  0.00    -0.265 OA
BRANCH  35  37
HETATM   37  O   UNL     1      44.435 -11.489   8.580  1.00  0.00    -0.322 OA
BRANCH  37  38
HETATM   38  C   UNL     1      44.072 -10.365   9.395  1.00  0.00     0.174 C 
HETATM   39  C   UNL     1      45.247  -9.949  10.257  1.00  0.00     0.034 C 
ENDBRANCH  37  38
ENDBRANCH  35  37
ENDBRANCH  34  35
ENDBRANCH  33  34
ENDBRANCH   1  33
TORSDOF 11
ENDMDL
