MODEL 1
REMARK VINA RESULT:     -10.6      0.000      0.000
REMARK  8 active torsions:
REMARK  status: ('A' for Active; 'I' for Inactive)
REMARK    1  A    between atoms: C_6  and  S_7 
REMARK    2  A    between atoms: S_7  and  C_8 
REMARK    3  A    between atoms: C_8  and  C_9 
REMARK       I    between atoms: C_9  and  N_10 
REMARK    4  A    between atoms: N_10  and  C_11 
REMARK    5  A    between atoms: C_24  and  C_25 
REMARK    6  A    between atoms: C_25  and  C_26 
REMARK       I    between atoms: C_26  and  N_27 
REMARK    7  A    between atoms: N_27  and  C_28 
REMARK    8  A    between atoms: C_28  and  C_29 
ROOT
HETATM    1  C   UNL     1      46.115 -10.648   7.498  1.00  0.00     0.001 A 
HETATM    2  C   UNL     1      45.081 -11.293   6.821  1.00  0.00     0.018 A 
HETATM    3  C   UNL     1      43.769 -10.840   6.986  1.00  0.00     0.039 A 
HETATM    4  C   UNL     1      43.471  -9.759   7.826  1.00  0.00     0.073 A 
HETATM    5  N   UNL     1      42.163  -9.266   7.989  1.00  0.00    -0.223 NA
HETATM    6  C   UNL     1      41.219  -9.825   7.300  1.00  0.00     0.178 A 
HETATM    7  N   UNL     1      41.419 -10.899   6.447  1.00  0.00    -0.241 N 
HETATM    8  C   UNL     1      42.649 -11.437   6.252  1.00  0.00     0.147 A 
HETATM    9  N   UNL     1      42.751 -12.434   5.420  1.00  0.00    -0.256 NA
HETATM   10  C   UNL     1      40.528 -11.625   5.692  1.00  0.00     0.257 C 
HETATM   11  O   UNL     1      39.310 -11.569   5.665  1.00  0.00    -0.270 OA
HETATM   12  C   UNL     1      41.373 -12.585   4.875  1.00  0.00     0.211 C 
HETATM   13  C   UNL     1      44.517  -9.124   8.497  1.00  0.00     0.032 A 
HETATM   14  C   UNL     1      45.834  -9.563   8.332  1.00  0.00     0.002 A 
ENDROOT
BRANCH  12  15
HETATM   15  C   UNL     1      40.811 -13.995   4.905  1.00  0.00     0.140 C 
BRANCH  15  16
HETATM   16  C   UNL     1      41.239 -14.947   3.813  1.00  0.00     0.220 C 
HETATM   17  N   UNL     1      42.602 -15.081   3.686  1.00  0.00    -0.357 N 
HETATM   18  H   UNL     1      43.126 -15.082   4.553  1.00  0.00     0.162 HD
HETATM   19  O   UNL     1      40.430 -15.461   3.048  1.00  0.00    -0.274 OA
BRANCH  17  20
HETATM   20  C   UNL     1      43.160 -15.802   2.565  1.00  0.00     0.161 C 
BRANCH  20  21
HETATM   21  C   UNL     1      43.371 -17.273   2.849  1.00  0.00    -0.038 A 
HETATM   22  C   UNL     1      43.754 -17.664   4.145  1.00  0.00     0.048 A 
HETATM   23  C   UNL     1      43.910 -19.011   4.406  1.00  0.00     0.105 A 
HETATM   24  C   UNL     1      43.697 -19.966   3.442  1.00  0.00     0.105 A 
HETATM   25  O   UNL     1      44.274 -19.551   5.600  1.00  0.00    -0.323 OA
HETATM   26  O   UNL     1      43.907 -21.227   3.903  1.00  0.00    -0.323 OA
HETATM   27  C   UNL     1      43.302 -19.630   2.167  1.00  0.00     0.040 A 
HETATM   28  C   UNL     1      44.266 -20.957   5.275  1.00  0.00     0.352 A 
HETATM   29  C   UNL     1      43.125 -18.273   1.876  1.00  0.00     0.012 A 
ENDBRANCH  20  21
ENDBRANCH  17  20
ENDBRANCH  15  16
ENDBRANCH  12  15
BRANCH   6  30
HETATM   30  S   UNL     1      39.627  -9.135   7.449  1.00  0.00    -0.082 SA
BRANCH  30  31
HETATM   31  C   UNL     1      39.115  -9.966   8.980  1.00  0.00     0.185 C 
BRANCH  31  32
HETATM   32  C   UNL     1      39.551  -9.162  10.194  1.00  0.00     0.232 C 
HETATM   33  N   UNL     1      40.716  -9.644  10.772  1.00  0.00    -0.324 N 
HETATM   34  H   UNL     1      41.294 -10.220  10.166  1.00  0.00     0.169 HD
HETATM   35  O   UNL     1      38.893  -8.199  10.573  1.00  0.00    -0.272 OA
BRANCH  33  36
HETATM   36  C   UNL     1      41.319  -9.174  11.959  1.00  0.00     0.073 A 
HETATM   37  C   UNL     1      40.868  -9.453  13.255  1.00  0.00     0.143 A 
HETATM   38  F   UNL     1      39.856 -10.301  13.483  1.00  0.00    -0.204 F 
HETATM   39  C   UNL     1      41.518  -8.928  14.373  1.00  0.00     0.044 A 
HETATM   40  C   UNL     1      42.646  -8.129  14.214  1.00  0.00     0.003 A 
HETATM   41  C   UNL     1      43.132  -7.872  12.934  1.00  0.00     0.002 A 
HETATM   42  C   UNL     1      42.478  -8.397  11.814  1.00  0.00     0.033 A 
ENDBRANCH  33  36
ENDBRANCH  31  32
ENDBRANCH  30  31
ENDBRANCH   6  30
TORSDOF 8
ENDMDL
MODEL 2
REMARK VINA RESULT:     -10.0      3.417     11.122
REMARK  8 active torsions:
REMARK  status: ('A' for Active; 'I' for Inactive)
REMARK    1  A    between atoms: C_6  and  S_7 
REMARK    2  A    between atoms: S_7  and  C_8 
REMARK    3  A    between atoms: C_8  and  C_9 
REMARK       I    between atoms: C_9  and  N_10 
REMARK    4  A    between atoms: N_10  and  C_11 
REMARK    5  A    between atoms: C_24  and  C_25 
REMARK    6  A    between atoms: C_25  and  C_26 
REMARK       I    between atoms: C_26  and  N_27 
REMARK    7  A    between atoms: N_27  and  C_28 
REMARK    8  A    between atoms: C_28  and  C_29 
ROOT
HETATM    1  C   UNL     1      38.836  -8.999   6.039  1.00  0.00     0.001 A 
HETATM    2  C   UNL     1      40.098  -8.985   6.632  1.00  0.00     0.018 A 
HETATM    3  C   UNL     1      40.918 -10.111   6.518  1.00  0.00     0.039 A 
HETATM    4  C   UNL     1      40.496 -11.256   5.831  1.00  0.00     0.073 A 
HETATM    5  N   UNL     1      41.312 -12.391   5.678  1.00  0.00    -0.223 NA
HETATM    6  C   UNL     1      42.510 -12.342   6.170  1.00  0.00     0.178 A 
HETATM    7  N   UNL     1      43.014 -11.255   6.867  1.00  0.00    -0.241 N 
HETATM    8  C   UNL     1      42.279 -10.131   7.066  1.00  0.00     0.147 A 
HETATM    9  N   UNL     1      42.835  -9.149   7.716  1.00  0.00    -0.256 NA
HETATM   10  C   UNL     1      44.228 -11.066   7.483  1.00  0.00     0.257 C 
HETATM   11  O   UNL     1      45.138 -11.859   7.660  1.00  0.00    -0.270 OA
HETATM   12  C   UNL     1      44.225  -9.625   7.958  1.00  0.00     0.211 C 
HETATM   13  C   UNL     1      39.230 -11.254   5.243  1.00  0.00     0.032 A 
HETATM   14  C   UNL     1      38.404 -10.131   5.342  1.00  0.00     0.002 A 
ENDROOT
BRANCH  12  15
HETATM   15  C   UNL     1      44.717  -9.504   9.389  1.00  0.00     0.140 C 
BRANCH  15  16
HETATM   16  C   UNL     1      43.888 -10.146  10.475  1.00  0.00     0.220 C 
HETATM   17  N   UNL     1      42.775  -9.425  10.836  1.00  0.00    -0.357 N 
HETATM   18  H   UNL     1      42.289  -8.958  10.078  1.00  0.00     0.162 HD
HETATM   19  O   UNL     1      44.252 -11.168  11.049  1.00  0.00    -0.274 OA
BRANCH  17  20
HETATM   20  C   UNL     1      41.996  -9.815  11.989  1.00  0.00     0.161 C 
BRANCH  20  21
HETATM   21  C   UNL     1      42.134  -8.859  13.153  1.00  0.00    -0.038 A 
HETATM   22  C   UNL     1      41.281  -9.015  14.261  1.00  0.00     0.048 A 
HETATM   23  C   UNL     1      41.437  -8.161  15.335  1.00  0.00     0.105 A 
HETATM   24  C   UNL     1      42.396  -7.179  15.348  1.00  0.00     0.105 A 
HETATM   25  O   UNL     1      40.698  -8.180  16.477  1.00  0.00    -0.323 OA
HETATM   26  O   UNL     1      42.379  -6.449  16.494  1.00  0.00    -0.323 OA
HETATM   27  C   UNL     1      43.264  -7.003  14.294  1.00  0.00     0.040 A 
HETATM   28  C   UNL     1      41.304  -7.094  17.209  1.00  0.00     0.352 A 
HETATM   29  C   UNL     1      43.138  -7.861  13.196  1.00  0.00     0.012 A 
ENDBRANCH  20  21
ENDBRANCH  17  20
ENDBRANCH  15  16
ENDBRANCH  12  15
BRANCH   6  30
HETATM   30  S   UNL     1      43.531 -13.724   5.886  1.00  0.00    -0.082 SA
BRANCH  30  31
HETATM   31  C   UNL     1      42.586 -14.956   6.827  1.00  0.00     0.185 C 
BRANCH  31  32
HETATM   32  C   UNL     1      42.335 -16.194   5.982  1.00  0.00     0.232 C 
HETATM   33  N   UNL     1      43.505 -16.790   5.534  1.00  0.00    -0.324 N 
HETATM   34  H   UNL     1      44.340 -16.557   6.065  1.00  0.00     0.169 HD
HETATM   35  O   UNL     1      41.190 -16.571   5.753  1.00  0.00    -0.272 OA
BRANCH  33  36
HETATM   36  C   UNL     1      43.602 -17.893   4.657  1.00  0.00     0.073 A 
HETATM   37  C   UNL     1      43.413 -17.835   3.270  1.00  0.00     0.143 A 
HETATM   38  F   UNL     1      43.220 -16.673   2.631  1.00  0.00    -0.204 F 
HETATM   39  C   UNL     1      43.509 -18.983   2.482  1.00  0.00     0.044 A 
HETATM   40  C   UNL     1      43.818 -20.207   3.067  1.00  0.00     0.003 A 
HETATM   41  C   UNL     1      44.048 -20.277   4.439  1.00  0.00     0.002 A 
HETATM   42  C   UNL     1      43.948 -19.125   5.228  1.00  0.00     0.033 A 
ENDBRANCH  33  36
ENDBRANCH  31  32
ENDBRANCH  30  31
ENDBRANCH   6  30
TORSDOF 8
ENDMDL
MODEL 3
REMARK VINA RESULT:      -9.7      1.765      2.234
REMARK  8 active torsions:
REMARK  status: ('A' for Active; 'I' for Inactive)
REMARK    1  A    between atoms: C_6  and  S_7 
REMARK    2  A    between atoms: S_7  and  C_8 
REMARK    3  A    between atoms: C_8  and  C_9 
REMARK       I    between atoms: C_9  and  N_10 
REMARK    4  A    between atoms: N_10  and  C_11 
REMARK    5  A    between atoms: C_24  and  C_25 
REMARK    6  A    between atoms: C_25  and  C_26 
REMARK       I    between atoms: C_26  and  N_27 
REMARK    7  A    between atoms: N_27  and  C_28 
REMARK    8  A    between atoms: C_28  and  C_29 
ROOT
HETATM    1  C   UNL     1      45.338 -11.553   6.317  1.00  0.00     0.001 A 
HETATM    2  C   UNL     1      44.142 -11.612   5.603  1.00  0.00     0.018 A 
HETATM    3  C   UNL     1      43.008 -10.978   6.117  1.00  0.00     0.039 A 
HETATM    4  C   UNL     1      43.045 -10.295   7.340  1.00  0.00     0.073 A 
HETATM    5  N   UNL     1      41.925  -9.626   7.867  1.00  0.00    -0.223 NA
HETATM    6  C   UNL     1      40.838  -9.624   7.161  1.00  0.00     0.178 A 
HETATM    7  N   UNL     1      40.707 -10.274   5.944  1.00  0.00    -0.241 N 
HETATM    8  C   UNL     1      41.740 -10.952   5.381  1.00  0.00     0.147 A 
HETATM    9  N   UNL     1      41.536 -11.518   4.226  1.00  0.00    -0.256 NA
HETATM   10  C   UNL     1      39.624 -10.405   5.106  1.00  0.00     0.257 C 
HETATM   11  O   UNL     1      38.466 -10.065   5.280  1.00  0.00    -0.270 OA
HETATM   12  C   UNL     1      40.148 -11.115   3.872  1.00  0.00     0.211 C 
HETATM   13  C   UNL     1      44.249 -10.246   8.042  1.00  0.00     0.032 A 
HETATM   14  C   UNL     1      45.393 -10.868   7.533  1.00  0.00     0.002 A 
ENDROOT
BRANCH  12  15
HETATM   15  C   UNL     1      39.229 -12.246   3.442  1.00  0.00     0.140 C 
BRANCH  15  16
HETATM   16  C   UNL     1      39.787 -13.286   2.500  1.00  0.00     0.220 C 
HETATM   17  N   UNL     1      39.377 -14.570   2.773  1.00  0.00    -0.357 N 
HETATM   18  H   UNL     1      38.415 -14.669   3.077  1.00  0.00     0.162 HD
HETATM   19  O   UNL     1      40.618 -13.005   1.643  1.00  0.00    -0.274 OA
BRANCH  17  20
HETATM   20  C   UNL     1      39.978 -15.688   2.083  1.00  0.00     0.161 C 
BRANCH  20  21
HETATM   21  C   UNL     1      41.179 -16.259   2.804  1.00  0.00    -0.038 A 
HETATM   22  C   UNL     1      41.210 -16.211   4.210  1.00  0.00     0.048 A 
HETATM   23  C   UNL     1      42.292 -16.766   4.863  1.00  0.00     0.105 A 
HETATM   24  C   UNL     1      43.325 -17.360   4.180  1.00  0.00     0.105 A 
HETATM   25  O   UNL     1      42.473 -16.802   6.211  1.00  0.00    -0.323 OA
HETATM   26  O   UNL     1      44.290 -17.839   5.009  1.00  0.00    -0.323 OA
HETATM   27  C   UNL     1      43.327 -17.448   2.806  1.00  0.00     0.040 A 
HETATM   28  C   UNL     1      43.740 -17.488   6.296  1.00  0.00     0.352 A 
HETATM   29  C   UNL     1      42.237 -16.903   2.117  1.00  0.00     0.012 A 
ENDBRANCH  20  21
ENDBRANCH  17  20
ENDBRANCH  15  16
ENDBRANCH  12  15
BRANCH   6  30
HETATM   30  S   UNL     1      39.496  -8.710   7.792  1.00  0.00    -0.082 SA
BRANCH  30  31
HETATM   31  C   UNL     1      39.265  -9.612   9.352  1.00  0.00     0.185 C 
BRANCH  31  32
HETATM   32  C   UNL     1      39.694  -8.753  10.531  1.00  0.00     0.232 C 
HETATM   33  N   UNL     1      40.850  -9.215  11.144  1.00  0.00    -0.324 N 
HETATM   34  H   UNL     1      41.431  -9.823  10.572  1.00  0.00     0.169 HD
HETATM   35  O   UNL     1      39.040  -7.769  10.856  1.00  0.00    -0.272 OA
BRANCH  33  36
HETATM   36  C   UNL     1      41.445  -8.693  12.314  1.00  0.00     0.073 A 
HETATM   37  C   UNL     1      42.548  -7.831  12.338  1.00  0.00     0.143 A 
HETATM   38  F   UNL     1      43.080  -7.333  11.213  1.00  0.00    -0.204 F 
HETATM   39  C   UNL     1      43.082  -7.379  13.545  1.00  0.00     0.044 A 
HETATM   40  C   UNL     1      42.508  -7.767  14.752  1.00  0.00     0.003 A 
HETATM   41  C   UNL     1      41.386  -8.593  14.747  1.00  0.00     0.002 A 
HETATM   42  C   UNL     1      40.853  -9.047  13.535  1.00  0.00     0.033 A 
ENDBRANCH  33  36
ENDBRANCH  31  32
ENDBRANCH  30  31
ENDBRANCH   6  30
TORSDOF 8
ENDMDL
MODEL 4
REMARK VINA RESULT:      -9.6      5.239      8.291
REMARK  8 active torsions:
REMARK  status: ('A' for Active; 'I' for Inactive)
REMARK    1  A    between atoms: C_6  and  S_7 
REMARK    2  A    between atoms: S_7  and  C_8 
REMARK    3  A    between atoms: C_8  and  C_9 
REMARK       I    between atoms: C_9  and  N_10 
REMARK    4  A    between atoms: N_10  and  C_11 
REMARK    5  A    between atoms: C_24  and  C_25 
REMARK    6  A    between atoms: C_25  and  C_26 
REMARK       I    between atoms: C_26  and  N_27 
REMARK    7  A    between atoms: N_27  and  C_28 
REMARK    8  A    between atoms: C_28  and  C_29 
ROOT
HETATM    1  C   UNL     1      43.390 -17.886   3.669  1.00  0.00     0.001 A 
HETATM    2  C   UNL     1      42.751 -17.137   2.681  1.00  0.00     0.018 A 
HETATM    3  C   UNL     1      42.031 -15.997   3.049  1.00  0.00     0.039 A 
HETATM    4  C   UNL     1      41.928 -15.599   4.388  1.00  0.00     0.073 A 
HETATM    5  N   UNL     1      41.232 -14.441   4.782  1.00  0.00    -0.223 NA
HETATM    6  C   UNL     1      40.703 -13.711   3.851  1.00  0.00     0.178 A 
HETATM    7  N   UNL     1      40.751 -14.026   2.502  1.00  0.00    -0.241 N 
HETATM    8  C   UNL     1      41.392 -15.134   2.050  1.00  0.00     0.147 A 
HETATM    9  N   UNL     1      41.404 -15.346   0.765  1.00  0.00    -0.256 NA
HETATM   10  C   UNL     1      40.208 -13.391   1.410  1.00  0.00     0.257 C 
HETATM   11  O   UNL     1      39.451 -12.436   1.368  1.00  0.00    -0.270 OA
HETATM   12  C   UNL     1      40.721 -14.150   0.200  1.00  0.00     0.211 C 
HETATM   13  C   UNL     1      42.573 -16.360   5.364  1.00  0.00     0.032 A 
HETATM   14  C   UNL     1      43.304 -17.496   5.007  1.00  0.00     0.002 A 
ENDROOT
BRANCH  12  15
HETATM   15  C   UNL     1      39.609 -14.441  -0.793  1.00  0.00     0.140 C 
BRANCH  15  16
HETATM   16  C   UNL     1      39.617 -13.684  -2.099  1.00  0.00     0.220 C 
HETATM   17  N   UNL     1      39.680 -12.318  -1.958  1.00  0.00    -0.357 N 
HETATM   18  H   UNL     1      40.273 -11.980  -1.208  1.00  0.00     0.162 HD
HETATM   19  O   UNL     1      39.468 -14.251  -3.177  1.00  0.00    -0.274 OA
BRANCH  17  20
HETATM   20  C   UNL     1      39.499 -11.458  -3.106  1.00  0.00     0.161 C 
BRANCH  20  21
HETATM   21  C   UNL     1      40.343 -10.204  -3.050  1.00  0.00    -0.038 A 
HETATM   22  C   UNL     1      41.200 -10.014  -1.950  1.00  0.00     0.048 A 
HETATM   23  C   UNL     1      41.994  -8.884  -1.924  1.00  0.00     0.105 A 
HETATM   24  C   UNL     1      41.969  -7.956  -2.936  1.00  0.00     0.105 A 
HETATM   25  O   UNL     1      42.872  -8.554  -0.938  1.00  0.00    -0.323 OA
HETATM   26  O   UNL     1      42.821  -6.921  -2.714  1.00  0.00    -0.323 OA
HETATM   27  C   UNL     1      41.161  -8.112  -4.039  1.00  0.00     0.040 A 
HETATM   28  C   UNL     1      43.395  -7.310  -1.449  1.00  0.00     0.352 A 
HETATM   29  C   UNL     1      40.353  -9.253  -4.099  1.00  0.00     0.012 A 
ENDBRANCH  20  21
ENDBRANCH  17  20
ENDBRANCH  15  16
ENDBRANCH  12  15
BRANCH   6  30
HETATM   30  S   UNL     1      39.928 -12.236   4.358  1.00  0.00    -0.082 SA
BRANCH  30  31
HETATM   31  C   UNL     1      40.630 -12.123   6.029  1.00  0.00     0.185 C 
BRANCH  31  32
HETATM   32  C   UNL     1      41.945 -11.360   6.003  1.00  0.00     0.232 C 
HETATM   33  N   UNL     1      42.602 -11.373   7.225  1.00  0.00    -0.324 N 
HETATM   34  H   UNL     1      42.329 -12.122   7.856  1.00  0.00     0.169 HD
HETATM   35  O   UNL     1      42.325 -10.808   4.976  1.00  0.00    -0.272 OA
BRANCH  33  36
HETATM   36  C   UNL     1      43.791 -10.681   7.546  1.00  0.00     0.073 A 
HETATM   37  C   UNL     1      45.086 -11.164   7.322  1.00  0.00     0.143 A 
HETATM   38  F   UNL     1      45.309 -12.314   6.671  1.00  0.00    -0.204 F 
HETATM   39  C   UNL     1      46.206 -10.416   7.690  1.00  0.00     0.044 A 
HETATM   40  C   UNL     1      46.049  -9.161   8.269  1.00  0.00     0.003 A 
HETATM   41  C   UNL     1      44.768  -8.648   8.464  1.00  0.00     0.002 A 
HETATM   42  C   UNL     1      43.646  -9.400   8.097  1.00  0.00     0.033 A 
ENDBRANCH  33  36
ENDBRANCH  31  32
ENDBRANCH  30  31
ENDBRANCH   6  30
TORSDOF 8
ENDMDL
MODEL 5
REMARK VINA RESULT:      -9.4      1.813      2.507
REMARK  8 active torsions:
REMARK  status: ('A' for Active; 'I' for Inactive)
REMARK    1  A    between atoms: C_6  and  S_7 
REMARK    2  A    between atoms: S_7  and  C_8 
REMARK    3  A    between atoms: C_8  and  C_9 
REMARK       I    between atoms: C_9  and  N_10 
REMARK    4  A    between atoms: N_10  and  C_11 
REMARK    5  A    between atoms: C_24  and  C_25 
REMARK    6  A    between atoms: C_25  and  C_26 
REMARK       I    between atoms: C_26  and  N_27 
REMARK    7  A    between atoms: N_27  and  C_28 
REMARK    8  A    between atoms: C_28  and  C_29 
ROOT
HETATM    1  C   UNL     1      45.846 -11.054   6.871  1.00  0.00     0.001 A 
HETATM    2  C   UNL     1      44.529 -11.114   6.416  1.00  0.00     0.018 A 
HETATM    3  C   UNL     1      43.512 -10.561   7.198  1.00  0.00     0.039 A 
HETATM    4  C   UNL     1      43.785  -9.960   8.433  1.00  0.00     0.073 A 
HETATM    5  N   UNL     1      42.782  -9.373   9.227  1.00  0.00    -0.223 NA
HETATM    6  C   UNL     1      41.572  -9.368   8.763  1.00  0.00     0.178 A 
HETATM    7  N   UNL     1      41.208  -9.940   7.554  1.00  0.00    -0.241 N 
HETATM    8  C   UNL     1      42.118 -10.537   6.743  1.00  0.00     0.147 A 
HETATM    9  N   UNL     1      41.693 -11.033   5.616  1.00  0.00    -0.256 NA
HETATM   10  C   UNL     1      39.978 -10.059   6.950  1.00  0.00     0.257 C 
HETATM   11  O   UNL     1      38.873  -9.778   7.383  1.00  0.00    -0.270 OA
HETATM   12  C   UNL     1      40.251 -10.664   5.585  1.00  0.00     0.211 C 
HETATM   13  C   UNL     1      45.108  -9.909   8.874  1.00  0.00     0.032 A 
HETATM   14  C   UNL     1      46.135 -10.450   8.097  1.00  0.00     0.002 A 
ENDROOT
BRANCH  12  15
HETATM   15  C   UNL     1      39.292 -11.799   5.272  1.00  0.00     0.140 C 
BRANCH  15  16
HETATM   16  C   UNL     1      39.573 -12.640   4.049  1.00  0.00     0.220 C 
HETATM   17  N   UNL     1      40.665 -13.465   4.172  1.00  0.00    -0.357 N 
HETATM   18  H   UNL     1      40.795 -13.891   5.082  1.00  0.00     0.162 HD
HETATM   19  O   UNL     1      38.936 -12.503   3.010  1.00  0.00    -0.274 OA
BRANCH  17  20
HETATM   20  C   UNL     1      41.169 -14.181   3.022  1.00  0.00     0.161 C 
BRANCH  20  21
HETATM   21  C   UNL     1      42.019 -15.377   3.389  1.00  0.00    -0.038 A 
HETATM   22  C   UNL     1      42.025 -16.492   2.531  1.00  0.00     0.048 A 
HETATM   23  C   UNL     1      42.831 -17.565   2.855  1.00  0.00     0.105 A 
HETATM   24  C   UNL     1      43.621 -17.568   3.978  1.00  0.00     0.105 A 
HETATM   25  O   UNL     1      42.951 -18.713   2.134  1.00  0.00    -0.323 OA
HETATM   26  O   UNL     1      44.332 -18.718   4.113  1.00  0.00    -0.323 OA
HETATM   27  C   UNL     1      43.661 -16.491   4.835  1.00  0.00     0.040 A 
HETATM   28  C   UNL     1      43.908 -19.437   2.936  1.00  0.00     0.352 A 
HETATM   29  C   UNL     1      42.863 -15.383   4.527  1.00  0.00     0.012 A 
ENDBRANCH  20  21
ENDBRANCH  17  20
ENDBRANCH  15  16
ENDBRANCH  12  15
BRANCH   6  30
HETATM   30  S   UNL     1      40.369  -8.553   9.722  1.00  0.00    -0.082 SA
BRANCH  30  31
HETATM   31  C   UNL     1      39.743  -9.986  10.645  1.00  0.00     0.185 C 
BRANCH  31  32
HETATM   32  C   UNL     1      39.733  -9.695  12.136  1.00  0.00     0.232 C 
HETATM   33  N   UNL     1      40.254  -8.448  12.448  1.00  0.00    -0.324 N 
HETATM   34  H   UNL     1      40.262  -7.778  11.683  1.00  0.00     0.169 HD
HETATM   35  O   UNL     1      39.300 -10.523  12.930  1.00  0.00    -0.272 OA
BRANCH  33  36
HETATM   36  C   UNL     1      40.467  -7.927  13.743  1.00  0.00     0.073 A 
HETATM   37  C   UNL     1      41.446  -8.375  14.638  1.00  0.00     0.143 A 
HETATM   38  F   UNL     1      42.357  -9.293  14.287  1.00  0.00    -0.204 F 
HETATM   39  C   UNL     1      41.571  -7.813  15.910  1.00  0.00     0.044 A 
HETATM   40  C   UNL     1      40.730  -6.776  16.300  1.00  0.00     0.003 A 
HETATM   41  C   UNL     1      39.775  -6.291  15.410  1.00  0.00     0.002 A 
HETATM   42  C   UNL     1      39.649  -6.858  14.136  1.00  0.00     0.033 A 
ENDBRANCH  33  36
ENDBRANCH  31  32
ENDBRANCH  30  31
ENDBRANCH   6  30
TORSDOF 8
ENDMDL
MODEL 6
REMARK VINA RESULT:      -9.4      4.675      7.804
REMARK  8 active torsions:
REMARK  status: ('A' for Active; 'I' for Inactive)
REMARK    1  A    between atoms: C_6  and  S_7 
REMARK    2  A    between atoms: S_7  and  C_8 
REMARK    3  A    between atoms: C_8  and  C_9 
REMARK       I    between atoms: C_9  and  N_10 
REMARK    4  A    between atoms: N_10  and  C_11 
REMARK    5  A    between atoms: C_24  and  C_25 
REMARK    6  A    between atoms: C_25  and  C_26 
REMARK       I    between atoms: C_26  and  N_27 
REMARK    7  A    between atoms: N_27  and  C_28 
REMARK    8  A    between atoms: C_28  and  C_29 
ROOT
HETATM    1  C   UNL     1      44.013 -18.727   3.493  1.00  0.00     0.001 A 
HETATM    2  C   UNL     1      43.274 -17.860   2.688  1.00  0.00     0.018 A 
HETATM    3  C   UNL     1      42.910 -16.608   3.190  1.00  0.00     0.039 A 
HETATM    4  C   UNL     1      43.262 -16.210   4.486  1.00  0.00     0.073 A 
HETATM    5  N   UNL     1      42.930 -14.944   5.004  1.00  0.00    -0.223 NA
HETATM    6  C   UNL     1      42.307 -14.118   4.225  1.00  0.00     0.178 A 
HETATM    7  N   UNL     1      41.917 -14.425   2.930  1.00  0.00    -0.241 N 
HETATM    8  C   UNL     1      42.188 -15.630   2.369  1.00  0.00     0.147 A 
HETATM    9  N   UNL     1      41.801 -15.828   1.141  1.00  0.00    -0.256 NA
HETATM   10  C   UNL     1      41.218 -13.687   2.004  1.00  0.00     0.257 C 
HETATM   11  O   UNL     1      40.670 -12.605   2.130  1.00  0.00    -0.270 OA
HETATM   12  C   UNL     1      41.221 -14.519   0.735  1.00  0.00     0.211 C 
HETATM   13  C   UNL     1      44.001 -17.089   5.278  1.00  0.00     0.032 A 
HETATM   14  C   UNL     1      44.379 -18.340   4.784  1.00  0.00     0.002 A 
ENDROOT
BRANCH  12  15
HETATM   15  C   UNL     1      39.842 -14.584   0.102  1.00  0.00     0.140 C 
BRANCH  15  16
HETATM   16  C   UNL     1      39.677 -14.013  -1.287  1.00  0.00     0.220 C 
HETATM   17  N   UNL     1      40.813 -13.426  -1.793  1.00  0.00    -0.357 N 
HETATM   18  H   UNL     1      41.685 -13.892  -1.570  1.00  0.00     0.162 HD
HETATM   19  O   UNL     1      38.588 -13.988  -1.851  1.00  0.00    -0.274 OA
BRANCH  17  20
HETATM   20  C   UNL     1      40.755 -12.670  -3.023  1.00  0.00     0.161 C 
BRANCH  20  21
HETATM   21  C   UNL     1      40.950 -11.184  -2.819  1.00  0.00    -0.038 A 
HETATM   22  C   UNL     1      41.300 -10.717  -1.539  1.00  0.00     0.048 A 
HETATM   23  C   UNL     1      41.512  -9.363  -1.369  1.00  0.00     0.105 A 
HETATM   24  C   UNL     1      41.395  -8.474  -2.408  1.00  0.00     0.105 A 
HETATM   25  O   UNL     1      41.855  -8.754  -0.201  1.00  0.00    -0.323 OA
HETATM   26  O   UNL     1      41.641  -7.193  -2.028  1.00  0.00    -0.323 OA
HETATM   27  C   UNL     1      41.074  -8.889  -3.681  1.00  0.00     0.040 A 
HETATM   28  C   UNL     1      41.938  -7.378  -0.629  1.00  0.00     0.352 A 
HETATM   29  C   UNL     1      40.865 -10.258  -3.887  1.00  0.00     0.012 A 
ENDBRANCH  20  21
ENDBRANCH  17  20
ENDBRANCH  15  16
ENDBRANCH  12  15
BRANCH   6  30
HETATM   30  S   UNL     1      41.993 -12.527   4.860  1.00  0.00    -0.082 SA
BRANCH  30  31
HETATM   31  C   UNL     1      43.683 -12.102   5.371  1.00  0.00     0.185 C 
BRANCH  31  32
HETATM   32  C   UNL     1      43.753 -11.920   6.878  1.00  0.00     0.232 C 
HETATM   33  N   UNL     1      43.705 -10.589   7.265  1.00  0.00    -0.324 N 
HETATM   34  H   UNL     1      43.309  -9.952   6.578  1.00  0.00     0.169 HD
HETATM   35  O   UNL     1      43.845 -12.892   7.620  1.00  0.00    -0.272 OA
BRANCH  33  36
HETATM   36  C   UNL     1      43.842 -10.092   8.580  1.00  0.00     0.073 A 
HETATM   37  C   UNL     1      42.805  -9.540   9.342  1.00  0.00     0.143 A 
HETATM   38  F   UNL     1      41.537  -9.534   8.910  1.00  0.00    -0.204 F 
HETATM   39  C   UNL     1      43.038  -9.055  10.630  1.00  0.00     0.044 A 
HETATM   40  C   UNL     1      44.311  -9.132  11.186  1.00  0.00     0.003 A 
HETATM   41  C   UNL     1      45.347  -9.713  10.457  1.00  0.00     0.002 A 
HETATM   42  C   UNL     1      45.112 -10.197   9.165  1.00  0.00     0.033 A 
ENDBRANCH  33  36
ENDBRANCH  31  32
ENDBRANCH  30  31
ENDBRANCH   6  30
TORSDOF 8
ENDMDL
MODEL 7
REMARK VINA RESULT:      -9.2     18.402     20.613
REMARK  8 active torsions:
REMARK  status: ('A' for Active; 'I' for Inactive)
REMARK    1  A    between atoms: C_6  and  S_7 
REMARK    2  A    between atoms: S_7  and  C_8 
REMARK    3  A    between atoms: C_8  and  C_9 
REMARK       I    between atoms: C_9  and  N_10 
REMARK    4  A    between atoms: N_10  and  C_11 
REMARK    5  A    between atoms: C_24  and  C_25 
REMARK    6  A    between atoms: C_25  and  C_26 
REMARK       I    between atoms: C_26  and  N_27 
REMARK    7  A    between atoms: N_27  and  C_28 
REMARK    8  A    between atoms: C_28  and  C_29 
ROOT
HETATM    1  C   UNL     1      51.299 -31.033  -2.234  1.00  0.00     0.001 A 
HETATM    2  C   UNL     1      50.172 -30.244  -2.009  1.00  0.00     0.018 A 
HETATM    3  C   UNL     1      49.690 -30.099  -0.705  1.00  0.00     0.039 A 
HETATM    4  C   UNL     1      50.308 -30.738   0.377  1.00  0.00     0.073 A 
HETATM    5  N   UNL     1      49.859 -30.587   1.702  1.00  0.00    -0.223 NA
HETATM    6  C   UNL     1      48.855 -29.794   1.911  1.00  0.00     0.178 A 
HETATM    7  N   UNL     1      48.180 -29.123   0.904  1.00  0.00    -0.241 N 
HETATM    8  C   UNL     1      48.547 -29.233  -0.399  1.00  0.00     0.147 A 
HETATM    9  N   UNL     1      47.869 -28.553  -1.279  1.00  0.00    -0.256 NA
HETATM   10  C   UNL     1      47.083 -28.295   0.954  1.00  0.00     0.257 C 
HETATM   11  O   UNL     1      46.359 -28.026   1.897  1.00  0.00    -0.270 OA
HETATM   12  C   UNL     1      46.903 -27.772  -0.459  1.00  0.00     0.211 C 
HETATM   13  C   UNL     1      51.436 -31.524   0.135  1.00  0.00     0.032 A 
HETATM   14  C   UNL     1      51.933 -31.669  -1.163  1.00  0.00     0.002 A 
ENDROOT
BRANCH  12  15
HETATM   15  C   UNL     1      45.454 -27.849  -0.907  1.00  0.00     0.140 C 
BRANCH  15  16
HETATM   16  C   UNL     1      45.087 -28.904  -1.924  1.00  0.00     0.220 C 
HETATM   17  N   UNL     1      45.319 -30.193  -1.508  1.00  0.00    -0.357 N 
HETATM   18  H   UNL     1      45.120 -30.383  -0.532  1.00  0.00     0.162 HD
HETATM   19  O   UNL     1      44.719 -28.610  -3.057  1.00  0.00    -0.274 OA
BRANCH  17  20
HETATM   20  C   UNL     1      45.201 -31.291  -2.439  1.00  0.00     0.161 C 
BRANCH  20  21
HETATM   21  C   UNL     1      44.198 -32.337  -2.004  1.00  0.00    -0.038 A 
HETATM   22  C   UNL     1      43.800 -33.319  -2.929  1.00  0.00     0.048 A 
HETATM   23  C   UNL     1      42.912 -34.292  -2.514  1.00  0.00     0.105 A 
HETATM   24  C   UNL     1      42.418 -34.324  -1.234  1.00  0.00     0.105 A 
HETATM   25  O   UNL     1      42.432 -35.307  -3.281  1.00  0.00    -0.323 OA
HETATM   26  O   UNL     1      41.558 -35.357  -1.033  1.00  0.00    -0.323 OA
HETATM   27  C   UNL     1      42.794 -33.395  -0.290  1.00  0.00     0.040 A 
HETATM   28  C   UNL     1      41.577 -35.981  -2.334  1.00  0.00     0.352 A 
HETATM   29  C   UNL     1      43.703 -32.403  -0.679  1.00  0.00     0.012 A 
ENDBRANCH  20  21
ENDBRANCH  17  20
ENDBRANCH  15  16
ENDBRANCH  12  15
BRANCH   6  30
HETATM   30  S   UNL     1      48.380 -29.553   3.569  1.00  0.00    -0.082 SA
BRANCH  30  31
HETATM   31  C   UNL     1      47.627 -31.177   3.873  1.00  0.00     0.185 C 
BRANCH  31  32
HETATM   32  C   UNL     1      46.385 -31.357   3.017  1.00  0.00     0.232 C 
HETATM   33  N   UNL     1      45.302 -30.618   3.472  1.00  0.00    -0.324 N 
HETATM   34  H   UNL     1      45.536 -29.833   4.073  1.00  0.00     0.169 HD
HETATM   35  O   UNL     1      46.404 -32.096   2.039  1.00  0.00    -0.272 OA
BRANCH  33  36
HETATM   36  C   UNL     1      43.990 -30.645   2.950  1.00  0.00     0.073 A 
HETATM   37  C   UNL     1      42.995 -31.556   3.325  1.00  0.00     0.143 A 
HETATM   38  F   UNL     1      43.182 -32.439   4.315  1.00  0.00    -0.204 F 
HETATM   39  C   UNL     1      41.728 -31.520   2.740  1.00  0.00     0.044 A 
HETATM   40  C   UNL     1      41.428 -30.555   1.783  1.00  0.00     0.003 A 
HETATM   41  C   UNL     1      42.393 -29.616   1.426  1.00  0.00     0.002 A 
HETATM   42  C   UNL     1      43.664 -29.655   2.012  1.00  0.00     0.033 A 
ENDBRANCH  33  36
ENDBRANCH  31  32
ENDBRANCH  30  31
ENDBRANCH   6  30
TORSDOF 8
ENDMDL
MODEL 8
REMARK VINA RESULT:      -9.2      2.641      4.501
REMARK  8 active torsions:
REMARK  status: ('A' for Active; 'I' for Inactive)
REMARK    1  A    between atoms: C_6  and  S_7 
REMARK    2  A    between atoms: S_7  and  C_8 
REMARK    3  A    between atoms: C_8  and  C_9 
REMARK       I    between atoms: C_9  and  N_10 
REMARK    4  A    between atoms: N_10  and  C_11 
REMARK    5  A    between atoms: C_24  and  C_25 
REMARK    6  A    between atoms: C_25  and  C_26 
REMARK       I    between atoms: C_26  and  N_27 
REMARK    7  A    between atoms: N_27  and  C_28 
REMARK    8  A    between atoms: C_28  and  C_29 
ROOT
HETATM    1  C   UNL     1      46.516 -10.431   7.678  1.00  0.00     0.001 A 
HETATM    2  C   UNL     1      45.534 -11.285   7.175  1.00  0.00     0.018 A 
HETATM    3  C   UNL     1      44.199 -10.872   7.188  1.00  0.00     0.039 A 
HETATM    4  C   UNL     1      43.826  -9.625   7.704  1.00  0.00     0.073 A 
HETATM    5  N   UNL     1      42.492  -9.174   7.705  1.00  0.00    -0.223 NA
HETATM    6  C   UNL     1      41.597  -9.943   7.170  1.00  0.00     0.178 A 
HETATM    7  N   UNL     1      41.873 -11.193   6.637  1.00  0.00    -0.241 N 
HETATM    8  C   UNL     1      43.132 -11.699   6.616  1.00  0.00     0.147 A 
HETATM    9  N   UNL     1      43.305 -12.874   6.080  1.00  0.00    -0.256 NA
HETATM   10  C   UNL     1      41.040 -12.137   6.083  1.00  0.00     0.257 C 
HETATM   11  O   UNL     1      39.823 -12.153   6.017  1.00  0.00    -0.270 OA
HETATM   12  C   UNL     1      41.954 -13.233   5.567  1.00  0.00     0.211 C 
HETATM   13  C   UNL     1      44.820  -8.782   8.204  1.00  0.00     0.032 A 
HETATM   14  C   UNL     1      46.160  -9.181   8.188  1.00  0.00     0.002 A 
ENDROOT
BRANCH  12  15
HETATM   15  C   UNL     1      41.454 -14.613   5.958  1.00  0.00     0.140 C 
BRANCH  15  16
HETATM   16  C   UNL     1      40.846 -15.474   4.877  1.00  0.00     0.220 C 
HETATM   17  N   UNL     1      40.966 -14.955   3.609  1.00  0.00    -0.357 N 
HETATM   18  H   UNL     1      41.841 -14.484   3.408  1.00  0.00     0.162 HD
HETATM   19  O   UNL     1      40.209 -16.489   5.139  1.00  0.00    -0.274 OA
BRANCH  17  20
HETATM   20  C   UNL     1      40.267 -15.567   2.503  1.00  0.00     0.161 C 
BRANCH  20  21
HETATM   21  C   UNL     1      39.964 -14.599   1.380  1.00  0.00    -0.038 A 
HETATM   22  C   UNL     1      39.700 -13.255   1.699  1.00  0.00     0.048 A 
HETATM   23  C   UNL     1      39.460 -12.369   0.667  1.00  0.00     0.105 A 
HETATM   24  C   UNL     1      39.476 -12.766  -0.647  1.00  0.00     0.105 A 
HETATM   25  O   UNL     1      39.190 -11.043   0.806  1.00  0.00    -0.323 OA
HETATM   26  O   UNL     1      39.212 -11.744  -1.503  1.00  0.00    -0.323 OA
HETATM   27  C   UNL     1      39.750 -14.066  -1.006  1.00  0.00     0.040 A 
HETATM   28  C   UNL     1      39.039 -10.652  -0.575  1.00  0.00     0.352 A 
HETATM   29  C   UNL     1      40.008 -14.984   0.018  1.00  0.00     0.012 A 
ENDBRANCH  20  21
ENDBRANCH  17  20
ENDBRANCH  15  16
ENDBRANCH  12  15
BRANCH   6  30
HETATM   30  S   UNL     1      39.972  -9.321   7.099  1.00  0.00    -0.082 SA
BRANCH  30  31
HETATM   31  C   UNL     1      39.346 -10.024   8.652  1.00  0.00     0.185 C 
BRANCH  31  32
HETATM   32  C   UNL     1      39.780  -9.173   9.834  1.00  0.00     0.232 C 
HETATM   33  N   UNL     1      40.879  -9.694  10.501  1.00  0.00    -0.324 N 
HETATM   34  H   UNL     1      41.443 -10.346   9.963  1.00  0.00     0.169 HD
HETATM   35  O   UNL     1      39.175  -8.144  10.117  1.00  0.00    -0.272 OA
BRANCH  33  36
HETATM   36  C   UNL     1      41.457  -9.188  11.686  1.00  0.00     0.073 A 
HETATM   37  C   UNL     1      42.576  -8.347  11.739  1.00  0.00     0.143 A 
HETATM   38  F   UNL     1      43.144  -7.856  10.629  1.00  0.00    -0.204 F 
HETATM   39  C   UNL     1      43.092  -7.911  12.960  1.00  0.00     0.044 A 
HETATM   40  C   UNL     1      42.484  -8.293  14.152  1.00  0.00     0.003 A 
HETATM   41  C   UNL     1      41.347  -9.097  14.118  1.00  0.00     0.002 A 
HETATM   42  C   UNL     1      40.832  -9.535  12.892  1.00  0.00     0.033 A 
ENDBRANCH  33  36
ENDBRANCH  31  32
ENDBRANCH  30  31
ENDBRANCH   6  30
TORSDOF 8
ENDMDL
MODEL 9
REMARK VINA RESULT:      -9.2      3.219     11.007
REMARK  8 active torsions:
REMARK  status: ('A' for Active; 'I' for Inactive)
REMARK    1  A    between atoms: C_6  and  S_7 
REMARK    2  A    between atoms: S_7  and  C_8 
REMARK    3  A    between atoms: C_8  and  C_9 
REMARK       I    between atoms: C_9  and  N_10 
REMARK    4  A    between atoms: N_10  and  C_11 
REMARK    5  A    between atoms: C_24  and  C_25 
REMARK    6  A    between atoms: C_25  and  C_26 
REMARK       I    between atoms: C_26  and  N_27 
REMARK    7  A    between atoms: N_27  and  C_28 
REMARK    8  A    between atoms: C_28  and  C_29 
ROOT
HETATM    1  C   UNL     1      40.421  -6.300   7.233  1.00  0.00     0.001 A 
HETATM    2  C   UNL     1      41.551  -6.901   7.786  1.00  0.00     0.018 A 
HETATM    3  C   UNL     1      41.948  -8.160   7.329  1.00  0.00     0.039 A 
HETATM    4  C   UNL     1      41.228  -8.837   6.336  1.00  0.00     0.073 A 
HETATM    5  N   UNL     1      41.621 -10.093   5.840  1.00  0.00    -0.223 NA
HETATM    6  C   UNL     1      42.713 -10.611   6.308  1.00  0.00     0.178 A 
HETATM    7  N   UNL     1      43.488 -10.017   7.291  1.00  0.00    -0.241 N 
HETATM    8  C   UNL     1      43.163  -8.813   7.827  1.00  0.00     0.147 A 
HETATM    9  N   UNL     1      43.956  -8.319   8.735  1.00  0.00    -0.256 NA
HETATM   10  C   UNL     1      44.631 -10.451   7.919  1.00  0.00     0.257 C 
HETATM   11  O   UNL     1      45.197 -11.529   7.839  1.00  0.00    -0.270 OA
HETATM   12  C   UNL     1      45.073  -9.300   8.804  1.00  0.00     0.211 C 
HETATM   13  C   UNL     1      40.099  -8.222   5.793  1.00  0.00     0.032 A 
HETATM   14  C   UNL     1      39.698  -6.959   6.235  1.00  0.00     0.002 A 
ENDROOT
BRANCH  12  15
HETATM   15  C   UNL     1      45.441  -9.773  10.199  1.00  0.00     0.140 C 
BRANCH  15  16
HETATM   16  C   UNL     1      44.333 -10.300  11.079  1.00  0.00     0.220 C 
HETATM   17  N   UNL     1      43.510  -9.326  11.593  1.00  0.00    -0.357 N 
HETATM   18  H   UNL     1      43.298  -8.556  10.969  1.00  0.00     0.162 HD
HETATM   19  O   UNL     1      44.257 -11.486  11.384  1.00  0.00    -0.274 OA
BRANCH  17  20
HETATM   20  C   UNL     1      42.530  -9.659  12.601  1.00  0.00     0.161 C 
BRANCH  20  21
HETATM   21  C   UNL     1      42.173  -8.491  13.494  1.00  0.00    -0.038 A 
HETATM   22  C   UNL     1      42.181  -7.195  12.948  1.00  0.00     0.048 A 
HETATM   23  C   UNL     1      41.819  -6.138  13.760  1.00  0.00     0.105 A 
HETATM   24  C   UNL     1      41.453  -6.321  15.070  1.00  0.00     0.105 A 
HETATM   25  O   UNL     1      41.775  -4.830  13.387  1.00  0.00    -0.323 OA
HETATM   26  O   UNL     1      41.138  -5.155  15.692  1.00  0.00    -0.323 OA
HETATM   27  C   UNL     1      41.412  -7.574  15.640  1.00  0.00     0.040 A 
HETATM   28  C   UNL     1      41.338  -4.213  14.617  1.00  0.00     0.352 A 
HETATM   29  C   UNL     1      41.762  -8.666  14.838  1.00  0.00     0.012 A 
ENDBRANCH  20  21
ENDBRANCH  17  20
ENDBRANCH  15  16
ENDBRANCH  12  15
BRANCH   6  30
HETATM   30  S   UNL     1      43.226 -12.121   5.609  1.00  0.00    -0.082 SA
BRANCH  30  31
HETATM   31  C   UNL     1      41.590 -12.810   5.224  1.00  0.00     0.185 C 
BRANCH  31  32
HETATM   32  C   UNL     1      41.679 -14.315   5.030  1.00  0.00     0.232 C 
HETATM   33  N   UNL     1      42.893 -14.720   4.494  1.00  0.00    -0.324 N 
HETATM   34  H   UNL     1      43.658 -14.061   4.607  1.00  0.00     0.169 HD
HETATM   35  O   UNL     1      40.737 -15.039   5.332  1.00  0.00    -0.272 OA
BRANCH  33  36
HETATM   36  C   UNL     1      43.244 -16.034   4.112  1.00  0.00     0.073 A 
HETATM   37  C   UNL     1      43.989 -16.926   4.894  1.00  0.00     0.143 A 
HETATM   38  F   UNL     1      44.351 -16.632   6.150  1.00  0.00    -0.204 F 
HETATM   39  C   UNL     1      44.306 -18.202   4.425  1.00  0.00     0.044 A 
HETATM   40  C   UNL     1      43.864 -18.615   3.172  1.00  0.00     0.003 A 
HETATM   41  C   UNL     1      43.089 -17.756   2.396  1.00  0.00     0.002 A 
HETATM   42  C   UNL     1      42.774 -16.476   2.867  1.00  0.00     0.033 A 
ENDBRANCH  33  36
ENDBRANCH  31  32
ENDBRANCH  30  31
ENDBRANCH   6  30
TORSDOF 8
ENDMDL
MODEL 10
REMARK VINA RESULT:      -9.2     18.394     20.709
REMARK  8 active torsions:
REMARK  status: ('A' for Active; 'I' for Inactive)
REMARK    1  A    between atoms: C_6  and  S_7 
REMARK    2  A    between atoms: S_7  and  C_8 
REMARK    3  A    between atoms: C_8  and  C_9 
REMARK       I    between atoms: C_9  and  N_10 
REMARK    4  A    between atoms: N_10  and  C_11 
REMARK    5  A    between atoms: C_24  and  C_25 
REMARK    6  A    between atoms: C_25  and  C_26 
REMARK       I    between atoms: C_26  and  N_27 
REMARK    7  A    between atoms: N_27  and  C_28 
REMARK    8  A    between atoms: C_28  and  C_29 
ROOT
HETATM    1  C   UNL     1      51.375 -31.204  -2.277  1.00  0.00     0.001 A 
HETATM    2  C   UNL     1      50.271 -30.380  -2.061  1.00  0.00     0.018 A 
HETATM    3  C   UNL     1      49.807 -30.189  -0.757  1.00  0.00     0.039 A 
HETATM    4  C   UNL     1      50.421 -30.815   0.335  1.00  0.00     0.073 A 
HETATM    5  N   UNL     1      49.991 -30.618   1.661  1.00  0.00    -0.223 NA
HETATM    6  C   UNL     1      49.011 -29.794   1.859  1.00  0.00     0.178 A 
HETATM    7  N   UNL     1      48.343 -29.131   0.842  1.00  0.00    -0.241 N 
HETATM    8  C   UNL     1      48.692 -29.284  -0.461  1.00  0.00     0.147 A 
HETATM    9  N   UNL     1      48.022 -28.610  -1.352  1.00  0.00    -0.256 NA
HETATM   10  C   UNL     1      47.269 -28.273   0.881  1.00  0.00     0.257 C 
HETATM   11  O   UNL     1      46.563 -27.959   1.825  1.00  0.00    -0.270 OA
HETATM   12  C   UNL     1      47.087 -27.781  -0.543  1.00  0.00     0.211 C 
HETATM   13  C   UNL     1      51.524 -31.637   0.102  1.00  0.00     0.032 A 
HETATM   14  C   UNL     1      52.002 -31.829  -1.197  1.00  0.00     0.002 A 
ENDROOT
BRANCH  12  15
HETATM   15  C   UNL     1      45.631 -27.831  -0.973  1.00  0.00     0.140 C 
BRANCH  15  16
HETATM   16  C   UNL     1      45.094 -29.146  -1.486  1.00  0.00     0.220 C 
HETATM   17  N   UNL     1      44.588 -29.088  -2.763  1.00  0.00    -0.357 N 
HETATM   18  H   UNL     1      45.096 -28.495  -3.410  1.00  0.00     0.162 HD
HETATM   19  O   UNL     1      45.024 -30.140  -0.771  1.00  0.00    -0.274 OA
BRANCH  17  20
HETATM   20  C   UNL     1      43.868 -30.213  -3.313  1.00  0.00     0.161 C 
BRANCH  20  21
HETATM   21  C   UNL     1      44.547 -30.827  -4.517  1.00  0.00    -0.038 A 
HETATM   22  C   UNL     1      43.864 -30.838  -5.747  1.00  0.00     0.048 A 
HETATM   23  C   UNL     1      44.505 -31.366  -6.850  1.00  0.00     0.105 A 
HETATM   24  C   UNL     1      45.780 -31.871  -6.775  1.00  0.00     0.105 A 
HETATM   25  O   UNL     1      43.985 -31.451  -8.104  1.00  0.00    -0.323 OA
HETATM   26  O   UNL     1      46.223 -32.345  -7.969  1.00  0.00    -0.323 OA
HETATM   27  C   UNL     1      46.493 -31.862  -5.598  1.00  0.00     0.040 A 
HETATM   28  C   UNL     1      45.083 -32.069  -8.810  1.00  0.00     0.352 A 
HETATM   29  C   UNL     1      45.873 -31.322  -4.465  1.00  0.00     0.012 A 
ENDBRANCH  20  21
ENDBRANCH  17  20
ENDBRANCH  15  16
ENDBRANCH  12  15
BRANCH   6  30
HETATM   30  S   UNL     1      48.560 -29.497   3.515  1.00  0.00    -0.082 SA
BRANCH  30  31
HETATM   31  C   UNL     1      47.793 -31.102   3.878  1.00  0.00     0.185 C 
BRANCH  31  32
HETATM   32  C   UNL     1      46.553 -31.305   3.023  1.00  0.00     0.232 C 
HETATM   33  N   UNL     1      45.471 -30.551   3.452  1.00  0.00    -0.324 N 
HETATM   34  H   UNL     1      45.704 -29.748   4.030  1.00  0.00     0.169 HD
HETATM   35  O   UNL     1      46.574 -32.074   2.068  1.00  0.00    -0.272 OA
BRANCH  33  36
HETATM   36  C   UNL     1      44.160 -30.590   2.926  1.00  0.00     0.073 A 
HETATM   37  C   UNL     1      43.304 -31.696   2.987  1.00  0.00     0.143 A 
HETATM   38  F   UNL     1      43.631 -32.807   3.661  1.00  0.00    -0.204 F 
HETATM   39  C   UNL     1      42.028 -31.651   2.422  1.00  0.00     0.044 A 
HETATM   40  C   UNL     1      41.580 -30.489   1.802  1.00  0.00     0.003 A 
HETATM   41  C   UNL     1      42.403 -29.366   1.766  1.00  0.00     0.002 A 
HETATM   42  C   UNL     1      43.683 -29.414   2.331  1.00  0.00     0.033 A 
ENDBRANCH  33  36
ENDBRANCH  31  32
ENDBRANCH  30  31
ENDBRANCH   6  30
TORSDOF 8
ENDMDL
