MODEL 1
REMARK VINA RESULT:      -7.4      0.000      0.000
REMARK  9 active torsions:
REMARK  status: ('A' for Active; 'I' for Inactive)
REMARK    1  A    between atoms: C_4  and  C_5 
REMARK    2  A    between atoms: C_7  and  N_8 
REMARK       I    between atoms: N_8  and  C_9 
REMARK    3  A    between atoms: C_9  and  C_10 
REMARK    4  A    between atoms: C_10  and  O_11 
REMARK    5  A    between atoms: C_18  and  C_19 
REMARK    6  A    between atoms: C_19  and  N_20 
REMARK       I    between atoms: N_20  and  C_21 
REMARK    7  A    between atoms: C_21  and  C_22 
REMARK    8  A    between atoms: C_24  and  C_25 
REMARK    9  A    between atoms: C_25  and  O_26 
ROOT
HETATM    1  C   UNL     1      43.090 -15.135   7.803  1.00  0.00     0.079 C 
HETATM    2  C   UNL     1      42.944 -14.416   6.525  1.00  0.00     0.078 A 
HETATM    3  O   UNL     1      42.165 -14.995   5.565  1.00  0.00    -0.294 OA
HETATM    4  C   UNL     1      42.223 -14.128   4.506  1.00  0.00     0.180 A 
HETATM    5  N   UNL     1      42.946 -13.046   4.736  1.00  0.00    -0.224 NA
HETATM    6  C   UNL     1      43.443 -13.237   6.011  1.00  0.00     0.084 A 
ENDROOT
BRANCH   4   7
HETATM    7  C   UNL     1      41.519 -14.523   3.290  1.00  0.00     0.019 A 
HETATM    8  C   UNL     1      41.772 -13.900   2.054  1.00  0.00     0.045 A 
HETATM    9  C   UNL     1      41.043 -14.244   0.912  1.00  0.00     0.035 A 
HETATM   10  C   UNL     1      40.067 -15.244   1.003  1.00  0.00     0.029 A 
HETATM   11  C   UNL     1      39.812 -15.880   2.218  1.00  0.00     0.003 A 
HETATM   12  C   UNL     1      40.530 -15.515   3.357  1.00  0.00     0.016 A 
BRANCH   9  13
HETATM   13  N   UNL     1      41.207 -13.625  -0.341  1.00  0.00    -0.325 N 
HETATM   14  C   UNL     1      40.638 -12.449  -0.797  1.00  0.00     0.245 C 
HETATM   15  O   UNL     1      39.929 -11.674  -0.164  1.00  0.00    -0.271 OA
HETATM   16  H   UNL     1      41.768 -14.116  -1.033  1.00  0.00     0.169 HD
BRANCH  14  17
HETATM   17  C   UNL     1      41.032 -12.157  -2.251  1.00  0.00     0.270 C 
BRANCH  17  18
HETATM   18  O   UNL     1      40.549 -13.135  -3.172  1.00  0.00    -0.387 OA
HETATM   19  C   UNL     1      39.129 -13.253  -3.123  1.00  0.00     0.202 C 
ENDBRANCH  17  18
ENDBRANCH  14  17
ENDBRANCH   9  13
ENDBRANCH   4   7
BRANCH   6  20
HETATM   20  C   UNL     1      44.399 -12.279   6.620  1.00  0.00     0.185 C 
BRANCH  20  21
HETATM   21  N   UNL     1      43.789 -11.638   7.757  1.00  0.00    -0.351 N 
HETATM   22  C   UNL     1      44.519 -10.946   8.696  1.00  0.00     0.258 C 
HETATM   23  O   UNL     1      45.744 -10.876   8.628  1.00  0.00    -0.267 OA
HETATM   24  H   UNL     1      42.796 -11.762   7.903  1.00  0.00     0.163 HD
BRANCH  22  25
HETATM   25  C   UNL     1      43.752 -10.296   9.751  1.00  0.00     0.073 A 
HETATM   26  S   UNL     1      42.369  -9.336   9.431  1.00  0.00    -0.087 SA
HETATM   27  C   UNL     1      42.164  -8.929  11.081  1.00  0.00     0.007 A 
HETATM   28  C   UNL     1      43.118  -9.542  11.870  1.00  0.00     0.018 A 
HETATM   29  C   UNL     1      44.027 -10.328  11.106  1.00  0.00     0.026 A 
BRANCH  27  30
HETATM   30  C   UNL     1      41.061  -8.016  11.510  1.00  0.00     0.213 C 
BRANCH  30  31
HETATM   31  O   UNL     1      39.855  -8.774  11.442  1.00  0.00    -0.391 OA
HETATM   32  C   UNL     1      39.567  -9.410  12.678  1.00  0.00     0.201 C 
ENDBRANCH  30  31
ENDBRANCH  27  30
ENDBRANCH  22  25
ENDBRANCH  20  21
ENDBRANCH   6  20
TORSDOF 9
ENDMDL
MODEL 2
REMARK VINA RESULT:      -7.4      3.450     10.284
REMARK  9 active torsions:
REMARK  status: ('A' for Active; 'I' for Inactive)
REMARK    1  A    between atoms: C_4  and  C_5 
REMARK    2  A    between atoms: C_7  and  N_8 
REMARK       I    between atoms: N_8  and  C_9 
REMARK    3  A    between atoms: C_9  and  C_10 
REMARK    4  A    between atoms: C_10  and  O_11 
REMARK    5  A    between atoms: C_18  and  C_19 
REMARK    6  A    between atoms: C_19  and  N_20 
REMARK       I    between atoms: N_20  and  C_21 
REMARK    7  A    between atoms: C_21  and  C_22 
REMARK    8  A    between atoms: C_24  and  C_25 
REMARK    9  A    between atoms: C_25  and  O_26 
ROOT
HETATM    1  C   UNL     1      41.642 -10.219   2.196  1.00  0.00     0.079 C 
HETATM    2  C   UNL     1      41.872 -10.926   3.468  1.00  0.00     0.078 A 
HETATM    3  O   UNL     1      42.774 -10.379   4.335  1.00  0.00    -0.294 OA
HETATM    4  C   UNL     1      42.790 -11.239   5.402  1.00  0.00     0.180 A 
HETATM    5  N   UNL     1      41.956 -12.256   5.284  1.00  0.00    -0.224 NA
HETATM    6  C   UNL     1      41.390 -12.087   4.035  1.00  0.00     0.084 A 
ENDROOT
BRANCH   4   7
HETATM    7  C   UNL     1      43.727 -10.935   6.480  1.00  0.00     0.019 A 
HETATM    8  C   UNL     1      43.292 -10.405   7.708  1.00  0.00     0.045 A 
HETATM    9  C   UNL     1      44.208 -10.057   8.707  1.00  0.00     0.035 A 
HETATM   10  C   UNL     1      45.573 -10.269   8.481  1.00  0.00     0.029 A 
HETATM   11  C   UNL     1      46.019 -10.806   7.273  1.00  0.00     0.003 A 
HETATM   12  C   UNL     1      45.100 -11.129   6.275  1.00  0.00     0.016 A 
BRANCH   9  13
HETATM   13  N   UNL     1      43.847  -9.473   9.934  1.00  0.00    -0.325 N 
HETATM   14  C   UNL     1      43.676 -10.092  11.161  1.00  0.00     0.245 C 
HETATM   15  O   UNL     1      43.878 -11.271  11.431  1.00  0.00    -0.271 OA
HETATM   16  H   UNL     1      43.628  -8.480   9.931  1.00  0.00     0.169 HD
BRANCH  14  17
HETATM   17  C   UNL     1      43.221  -9.097  12.237  1.00  0.00     0.270 C 
BRANCH  17  18
HETATM   18  O   UNL     1      42.227  -9.631  13.112  1.00  0.00    -0.387 OA
HETATM   19  C   UNL     1      42.119  -8.874  14.315  1.00  0.00     0.202 C 
ENDBRANCH  17  18
ENDBRANCH  14  17
ENDBRANCH   9  13
ENDBRANCH   4   7
BRANCH   6  20
HETATM   20  C   UNL     1      40.453 -13.089   3.469  1.00  0.00     0.185 C 
BRANCH  20  21
HETATM   21  N   UNL     1      41.051 -14.399   3.518  1.00  0.00    -0.351 N 
HETATM   22  C   UNL     1      41.932 -14.846   2.561  1.00  0.00     0.258 C 
HETATM   23  O   UNL     1      42.223 -14.154   1.587  1.00  0.00    -0.267 OA
HETATM   24  H   UNL     1      40.757 -15.034   4.248  1.00  0.00     0.163 HD
BRANCH  22  25
HETATM   25  C   UNL     1      42.505 -16.167   2.785  1.00  0.00     0.073 A 
HETATM   26  S   UNL     1      43.474 -16.536   4.149  1.00  0.00    -0.087 SA
HETATM   27  C   UNL     1      43.767 -18.135   3.615  1.00  0.00     0.007 A 
HETATM   28  C   UNL     1      43.110 -18.396   2.429  1.00  0.00     0.018 A 
HETATM   29  C   UNL     1      42.383 -17.267   1.954  1.00  0.00     0.026 A 
BRANCH  27  30
HETATM   30  C   UNL     1      44.641 -19.055   4.406  1.00  0.00     0.213 C 
BRANCH  30  31
HETATM   31  O   UNL     1      43.827 -19.599   5.442  1.00  0.00    -0.391 OA
HETATM   32  C   UNL     1      43.803 -21.018   5.400  1.00  0.00     0.201 C 
ENDBRANCH  30  31
ENDBRANCH  27  30
ENDBRANCH  22  25
ENDBRANCH  20  21
ENDBRANCH   6  20
TORSDOF 9
ENDMDL
MODEL 3
REMARK VINA RESULT:      -7.3      2.785     10.512
REMARK  9 active torsions:
REMARK  status: ('A' for Active; 'I' for Inactive)
REMARK    1  A    between atoms: C_4  and  C_5 
REMARK    2  A    between atoms: C_7  and  N_8 
REMARK       I    between atoms: N_8  and  C_9 
REMARK    3  A    between atoms: C_9  and  C_10 
REMARK    4  A    between atoms: C_10  and  O_11 
REMARK    5  A    between atoms: C_18  and  C_19 
REMARK    6  A    between atoms: C_19  and  N_20 
REMARK       I    between atoms: N_20  and  C_21 
REMARK    7  A    between atoms: C_21  and  C_22 
REMARK    8  A    between atoms: C_24  and  C_25 
REMARK    9  A    between atoms: C_25  and  O_26 
ROOT
HETATM    1  C   UNL     1      43.467 -16.368   5.144  1.00  0.00     0.079 C 
HETATM    2  C   UNL     1      43.101 -15.008   5.576  1.00  0.00     0.078 A 
HETATM    3  O   UNL     1      44.083 -14.241   6.134  1.00  0.00    -0.294 OA
HETATM    4  C   UNL     1      43.463 -13.059   6.442  1.00  0.00     0.180 A 
HETATM    5  N   UNL     1      42.188 -13.015   6.098  1.00  0.00    -0.224 NA
HETATM    6  C   UNL     1      41.936 -14.270   5.577  1.00  0.00     0.084 A 
ENDROOT
BRANCH   4   7
HETATM    7  C   UNL     1      44.269 -12.048   7.120  1.00  0.00     0.019 A 
HETATM    8  C   UNL     1      43.796 -11.366   8.255  1.00  0.00     0.045 A 
HETATM    9  C   UNL     1      44.553 -10.353   8.854  1.00  0.00     0.035 A 
HETATM   10  C   UNL     1      45.810 -10.040   8.324  1.00  0.00     0.029 A 
HETATM   11  C   UNL     1      46.299 -10.716   7.206  1.00  0.00     0.003 A 
HETATM   12  C   UNL     1      45.528 -11.709   6.603  1.00  0.00     0.016 A 
BRANCH   9  13
HETATM   13  N   UNL     1      44.118  -9.595   9.957  1.00  0.00    -0.325 N 
HETATM   14  C   UNL     1      43.808 -10.035  11.232  1.00  0.00     0.245 C 
HETATM   15  O   UNL     1      43.922 -11.174  11.671  1.00  0.00    -0.271 OA
HETATM   16  H   UNL     1      43.953  -8.603   9.803  1.00  0.00     0.169 HD
BRANCH  14  17
HETATM   17  C   UNL     1      43.315  -8.887  12.122  1.00  0.00     0.270 C 
BRANCH  17  18
HETATM   18  O   UNL     1      42.025  -9.127  12.686  1.00  0.00    -0.387 OA
HETATM   19  C   UNL     1      42.045  -9.044  14.109  1.00  0.00     0.202 C 
ENDBRANCH  17  18
ENDBRANCH  14  17
ENDBRANCH   9  13
ENDBRANCH   4   7
BRANCH   6  20
HETATM   20  C   UNL     1      40.571 -14.671   5.155  1.00  0.00     0.185 C 
BRANCH  20  21
HETATM   21  N   UNL     1      40.270 -14.100   3.867  1.00  0.00    -0.351 N 
HETATM   22  C   UNL     1      40.291 -14.838   2.706  1.00  0.00     0.258 C 
HETATM   23  O   UNL     1      40.608 -16.026   2.711  1.00  0.00    -0.267 OA
HETATM   24  H   UNL     1      40.106 -13.103   3.810  1.00  0.00     0.163 HD
BRANCH  22  25
HETATM   25  C   UNL     1      39.898 -14.134   1.493  1.00  0.00     0.073 A 
HETATM   26  S   UNL     1      39.922 -14.873  -0.054  1.00  0.00    -0.087 SA
HETATM   27  C   UNL     1      39.439 -13.433  -0.842  1.00  0.00     0.007 A 
HETATM   28  C   UNL     1      39.231 -12.411   0.063  1.00  0.00     0.018 A 
HETATM   29  C   UNL     1      39.492 -12.815   1.403  1.00  0.00     0.026 A 
BRANCH  27  30
HETATM   30  C   UNL     1      39.291 -13.391  -2.330  1.00  0.00     0.213 C 
BRANCH  30  31
HETATM   31  O   UNL     1      40.599 -13.565  -2.873  1.00  0.00    -0.391 OA
HETATM   32  C   UNL     1      41.285 -12.328  -2.992  1.00  0.00     0.201 C 
ENDBRANCH  30  31
ENDBRANCH  27  30
ENDBRANCH  22  25
ENDBRANCH  20  21
ENDBRANCH   6  20
TORSDOF 9
ENDMDL
MODEL 4
REMARK VINA RESULT:      -7.2      4.106      4.885
REMARK  9 active torsions:
REMARK  status: ('A' for Active; 'I' for Inactive)
REMARK    1  A    between atoms: C_4  and  C_5 
REMARK    2  A    between atoms: C_7  and  N_8 
REMARK       I    between atoms: N_8  and  C_9 
REMARK    3  A    between atoms: C_9  and  C_10 
REMARK    4  A    between atoms: C_10  and  O_11 
REMARK    5  A    between atoms: C_18  and  C_19 
REMARK    6  A    between atoms: C_19  and  N_20 
REMARK       I    between atoms: N_20  and  C_21 
REMARK    7  A    between atoms: C_21  and  C_22 
REMARK    8  A    between atoms: C_24  and  C_25 
REMARK    9  A    between atoms: C_25  and  O_26 
ROOT
HETATM    1  C   UNL     1      45.934 -11.027   7.085  1.00  0.00     0.079 C 
HETATM    2  C   UNL     1      44.535 -11.443   6.886  1.00  0.00     0.078 A 
HETATM    3  O   UNL     1      44.306 -12.759   6.604  1.00  0.00    -0.294 OA
HETATM    4  C   UNL     1      42.947 -12.848   6.462  1.00  0.00     0.180 A 
HETATM    5  N   UNL     1      42.310 -11.708   6.658  1.00  0.00    -0.224 NA
HETATM    6  C   UNL     1      43.318 -10.794   6.894  1.00  0.00     0.084 A 
ENDROOT
BRANCH   4   7
HETATM    7  C   UNL     1      42.406 -14.153   6.090  1.00  0.00     0.019 A 
HETATM    8  C   UNL     1      43.198 -15.127   5.455  1.00  0.00     0.045 A 
HETATM    9  C   UNL     1      42.650 -16.346   5.046  1.00  0.00     0.035 A 
HETATM   10  C   UNL     1      41.298 -16.603   5.302  1.00  0.00     0.029 A 
HETATM   11  C   UNL     1      40.502 -15.654   5.942  1.00  0.00     0.003 A 
HETATM   12  C   UNL     1      41.053 -14.432   6.327  1.00  0.00     0.016 A 
BRANCH   9  13
HETATM   13  N   UNL     1      43.369 -17.340   4.358  1.00  0.00    -0.325 N 
HETATM   14  C   UNL     1      43.180 -17.798   3.066  1.00  0.00     0.245 C 
HETATM   15  O   UNL     1      42.384 -17.369   2.237  1.00  0.00    -0.271 OA
HETATM   16  H   UNL     1      44.090 -17.836   4.877  1.00  0.00     0.169 HD
BRANCH  14  17
HETATM   17  C   UNL     1      44.147 -18.938   2.722  1.00  0.00     0.270 C 
BRANCH  17  18
HETATM   18  O   UNL     1      43.533 -20.227   2.761  1.00  0.00    -0.387 OA
HETATM   19  C   UNL     1      43.880 -20.944   3.944  1.00  0.00     0.202 C 
ENDBRANCH  17  18
ENDBRANCH  14  17
ENDBRANCH   9  13
ENDBRANCH   4   7
BRANCH   6  20
HETATM   20  C   UNL     1      43.027  -9.350   7.069  1.00  0.00     0.185 C 
BRANCH  20  21
HETATM   21  N   UNL     1      42.850  -9.054   8.469  1.00  0.00    -0.351 N 
HETATM   22  C   UNL     1      43.624  -8.132   9.135  1.00  0.00     0.258 C 
HETATM   23  O   UNL     1      44.540  -7.539   8.568  1.00  0.00    -0.267 OA
HETATM   24  H   UNL     1      42.176  -9.597   8.992  1.00  0.00     0.163 HD
BRANCH  22  25
HETATM   25  C   UNL     1      43.278  -7.895  10.530  1.00  0.00     0.073 A 
HETATM   26  S   UNL     1      42.285  -6.590  11.028  1.00  0.00    -0.087 SA
HETATM   27  C   UNL     1      42.457  -6.981  12.685  1.00  0.00     0.007 A 
HETATM   28  C   UNL     1      43.234  -8.109  12.856  1.00  0.00     0.018 A 
HETATM   29  C   UNL     1      43.703  -8.635  11.619  1.00  0.00     0.026 A 
BRANCH  27  30
HETATM   30  C   UNL     1      41.808  -6.141  13.738  1.00  0.00     0.213 C 
BRANCH  30  31
HETATM   31  O   UNL     1      41.095  -7.035  14.590  1.00  0.00    -0.391 OA
HETATM   32  C   UNL     1      41.487  -6.890  15.947  1.00  0.00     0.201 C 
ENDBRANCH  30  31
ENDBRANCH  27  30
ENDBRANCH  22  25
ENDBRANCH  20  21
ENDBRANCH   6  20
TORSDOF 9
ENDMDL
MODEL 5
REMARK VINA RESULT:      -7.2      2.910     10.111
REMARK  9 active torsions:
REMARK  status: ('A' for Active; 'I' for Inactive)
REMARK    1  A    between atoms: C_4  and  C_5 
REMARK    2  A    between atoms: C_7  and  N_8 
REMARK       I    between atoms: N_8  and  C_9 
REMARK    3  A    between atoms: C_9  and  C_10 
REMARK    4  A    between atoms: C_10  and  O_11 
REMARK    5  A    between atoms: C_18  and  C_19 
REMARK    6  A    between atoms: C_19  and  N_20 
REMARK       I    between atoms: N_20  and  C_21 
REMARK    7  A    between atoms: C_21  and  C_22 
REMARK    8  A    between atoms: C_24  and  C_25 
REMARK    9  A    between atoms: C_25  and  O_26 
ROOT
HETATM    1  C   UNL     1      43.152 -15.622   5.168  1.00  0.00     0.079 C 
HETATM    2  C   UNL     1      42.828 -14.262   5.635  1.00  0.00     0.078 A 
HETATM    3  O   UNL     1      43.851 -13.515   6.145  1.00  0.00    -0.294 OA
HETATM    4  C   UNL     1      43.266 -12.329   6.501  1.00  0.00     0.180 A 
HETATM    5  N   UNL     1      41.974 -12.265   6.232  1.00  0.00    -0.224 NA
HETATM    6  C   UNL     1      41.675 -13.509   5.711  1.00  0.00     0.084 A 
ENDROOT
BRANCH   4   7
HETATM    7  C   UNL     1      44.123 -11.337   7.143  1.00  0.00     0.019 A 
HETATM    8  C   UNL     1      43.590 -10.299   7.929  1.00  0.00     0.045 A 
HETATM    9  C   UNL     1      44.419  -9.317   8.483  1.00  0.00     0.035 A 
HETATM   10  C   UNL     1      45.800  -9.393   8.268  1.00  0.00     0.029 A 
HETATM   11  C   UNL     1      46.345 -10.423   7.502  1.00  0.00     0.003 A 
HETATM   12  C   UNL     1      45.509 -11.384   6.936  1.00  0.00     0.016 A 
BRANCH   9  13
HETATM   13  N   UNL     1      43.948  -8.224   9.233  1.00  0.00    -0.325 N 
HETATM   14  C   UNL     1      43.275  -7.101   8.783  1.00  0.00     0.245 C 
HETATM   15  O   UNL     1      42.891  -6.876   7.640  1.00  0.00    -0.271 OA
HETATM   16  H   UNL     1      44.168  -8.211  10.226  1.00  0.00     0.169 HD
BRANCH  14  17
HETATM   17  C   UNL     1      42.993  -6.116   9.924  1.00  0.00     0.270 C 
BRANCH  17  18
HETATM   18  O   UNL     1      41.600  -5.885  10.137  1.00  0.00    -0.387 OA
HETATM   19  C   UNL     1      41.010  -6.905  10.940  1.00  0.00     0.202 C 
ENDBRANCH  17  18
ENDBRANCH  14  17
ENDBRANCH   9  13
ENDBRANCH   4   7
BRANCH   6  20
HETATM   20  C   UNL     1      40.284 -13.888   5.364  1.00  0.00     0.185 C 
BRANCH  20  21
HETATM   21  N   UNL     1      40.184 -14.137   3.948  1.00  0.00    -0.351 N 
HETATM   22  C   UNL     1      39.766 -13.177   3.055  1.00  0.00     0.258 C 
HETATM   23  O   UNL     1      39.416 -12.061   3.435  1.00  0.00    -0.267 OA
HETATM   24  H   UNL     1      40.364 -15.073   3.611  1.00  0.00     0.163 HD
BRANCH  22  25
HETATM   25  C   UNL     1      39.783 -13.559   1.649  1.00  0.00     0.073 A 
HETATM   26  S   UNL     1      39.341 -12.481   0.392  1.00  0.00    -0.087 SA
HETATM   27  C   UNL     1      39.547 -13.674  -0.818  1.00  0.00     0.007 A 
HETATM   28  C   UNL     1      39.978 -14.868  -0.276  1.00  0.00     0.018 A 
HETATM   29  C   UNL     1      40.116 -14.801   1.139  1.00  0.00     0.026 A 
BRANCH  27  30
HETATM   30  C   UNL     1      39.268 -13.359  -2.253  1.00  0.00     0.213 C 
BRANCH  30  31
HETATM   31  O   UNL     1      40.496 -13.541  -2.955  1.00  0.00    -0.391 OA
HETATM   32  C   UNL     1      41.205 -12.320  -3.097  1.00  0.00     0.201 C 
ENDBRANCH  30  31
ENDBRANCH  27  30
ENDBRANCH  22  25
ENDBRANCH  20  21
ENDBRANCH   6  20
TORSDOF 9
ENDMDL
MODEL 6
REMARK VINA RESULT:      -7.1      3.941      4.859
REMARK  9 active torsions:
REMARK  status: ('A' for Active; 'I' for Inactive)
REMARK    1  A    between atoms: C_4  and  C_5 
REMARK    2  A    between atoms: C_7  and  N_8 
REMARK       I    between atoms: N_8  and  C_9 
REMARK    3  A    between atoms: C_9  and  C_10 
REMARK    4  A    between atoms: C_10  and  O_11 
REMARK    5  A    between atoms: C_18  and  C_19 
REMARK    6  A    between atoms: C_19  and  N_20 
REMARK       I    between atoms: N_20  and  C_21 
REMARK    7  A    between atoms: C_21  and  C_22 
REMARK    8  A    between atoms: C_24  and  C_25 
REMARK    9  A    between atoms: C_25  and  O_26 
ROOT
HETATM    1  C   UNL     1      41.910  -9.120   6.177  1.00  0.00     0.079 C 
HETATM    2  C   UNL     1      42.494 -10.431   6.510  1.00  0.00     0.078 A 
HETATM    3  O   UNL     1      41.864 -11.540   6.021  1.00  0.00    -0.294 OA
HETATM    4  C   UNL     1      42.606 -12.591   6.491  1.00  0.00     0.180 A 
HETATM    5  N   UNL     1      43.658 -12.230   7.205  1.00  0.00    -0.224 NA
HETATM    6  C   UNL     1      43.576 -10.852   7.255  1.00  0.00     0.084 A 
ENDROOT
BRANCH   4   7
HETATM    7  C   UNL     1      42.126 -13.932   6.172  1.00  0.00     0.019 A 
HETATM    8  C   UNL     1      42.969 -14.901   5.598  1.00  0.00     0.045 A 
HETATM    9  C   UNL     1      42.478 -16.160   5.236  1.00  0.00     0.035 A 
HETATM   10  C   UNL     1      41.133 -16.460   5.478  1.00  0.00     0.029 A 
HETATM   11  C   UNL     1      40.287 -15.515   6.058  1.00  0.00     0.003 A 
HETATM   12  C   UNL     1      40.780 -14.255   6.395  1.00  0.00     0.016 A 
BRANCH   9  13
HETATM   13  N   UNL     1      43.252 -17.154   4.610  1.00  0.00    -0.325 N 
HETATM   14  C   UNL     1      43.207 -17.573   3.292  1.00  0.00     0.245 C 
HETATM   15  O   UNL     1      42.525 -17.102   2.387  1.00  0.00    -0.271 OA
HETATM   16  H   UNL     1      43.894 -17.682   5.196  1.00  0.00     0.169 HD
BRANCH  14  17
HETATM   17  C   UNL     1      44.181 -18.729   3.032  1.00  0.00     0.270 C 
BRANCH  17  18
HETATM   18  O   UNL     1      44.364 -19.576   4.167  1.00  0.00    -0.387 OA
HETATM   19  C   UNL     1      43.947 -20.914   3.903  1.00  0.00     0.202 C 
ENDBRANCH  17  18
ENDBRANCH  14  17
ENDBRANCH   9  13
ENDBRANCH   4   7
BRANCH   6  20
HETATM   20  C   UNL     1      44.531 -10.049   8.057  1.00  0.00     0.185 C 
BRANCH  20  21
HETATM   21  N   UNL     1      43.839  -9.415   9.150  1.00  0.00    -0.351 N 
HETATM   22  C   UNL     1      43.610 -10.049  10.349  1.00  0.00     0.258 C 
HETATM   23  O   UNL     1      43.956 -11.215  10.531  1.00  0.00    -0.267 OA
HETATM   24  H   UNL     1      43.448  -8.494   9.001  1.00  0.00     0.163 HD
BRANCH  22  25
HETATM   25  C   UNL     1      42.957  -9.253  11.380  1.00  0.00     0.073 A 
HETATM   26  S   UNL     1      41.255  -9.212  11.578  1.00  0.00    -0.087 SA
HETATM   27  C   UNL     1      41.344  -8.064  12.843  1.00  0.00     0.007 A 
HETATM   28  C   UNL     1      42.655  -7.739  13.134  1.00  0.00     0.018 A 
HETATM   29  C   UNL     1      43.579  -8.424  12.296  1.00  0.00     0.026 A 
BRANCH  27  30
HETATM   30  C   UNL     1      40.100  -7.540  13.487  1.00  0.00     0.213 C 
BRANCH  30  31
HETATM   31  O   UNL     1      39.005  -8.049  12.728  1.00  0.00    -0.391 OA
HETATM   32  C   UNL     1      37.965  -7.092  12.602  1.00  0.00     0.201 C 
ENDBRANCH  30  31
ENDBRANCH  27  30
ENDBRANCH  22  25
ENDBRANCH  20  21
ENDBRANCH   6  20
TORSDOF 9
ENDMDL
MODEL 7
REMARK VINA RESULT:      -7.0      2.156      3.548
REMARK  9 active torsions:
REMARK  status: ('A' for Active; 'I' for Inactive)
REMARK    1  A    between atoms: C_4  and  C_5 
REMARK    2  A    between atoms: C_7  and  N_8 
REMARK       I    between atoms: N_8  and  C_9 
REMARK    3  A    between atoms: C_9  and  C_10 
REMARK    4  A    between atoms: C_10  and  O_11 
REMARK    5  A    between atoms: C_18  and  C_19 
REMARK    6  A    between atoms: C_19  and  N_20 
REMARK       I    between atoms: N_20  and  C_21 
REMARK    7  A    between atoms: C_21  and  C_22 
REMARK    8  A    between atoms: C_24  and  C_25 
REMARK    9  A    between atoms: C_25  and  O_26 
ROOT
HETATM    1  C   UNL     1      42.421  -9.259   7.122  1.00  0.00     0.079 C 
HETATM    2  C   UNL     1      43.157 -10.534   7.177  1.00  0.00     0.078 A 
HETATM    3  O   UNL     1      42.685 -11.564   6.414  1.00  0.00    -0.294 OA
HETATM    4  C   UNL     1      43.542 -12.602   6.670  1.00  0.00     0.180 A 
HETATM    5  N   UNL     1      44.521 -12.298   7.503  1.00  0.00    -0.224 NA
HETATM    6  C   UNL     1      44.264 -10.988   7.862  1.00  0.00     0.084 A 
ENDROOT
BRANCH   4   7
HETATM    7  C   UNL     1      43.243 -13.878   6.027  1.00  0.00     0.019 A 
HETATM    8  C   UNL     1      42.375 -13.964   4.923  1.00  0.00     0.045 A 
HETATM    9  C   UNL     1      42.046 -15.201   4.359  1.00  0.00     0.035 A 
HETATM   10  C   UNL     1      42.616 -16.363   4.892  1.00  0.00     0.029 A 
HETATM   11  C   UNL     1      43.489 -16.294   5.977  1.00  0.00     0.003 A 
HETATM   12  C   UNL     1      43.793 -15.058   6.547  1.00  0.00     0.016 A 
BRANCH   9  13
HETATM   13  N   UNL     1      41.145 -15.363   3.292  1.00  0.00    -0.325 N 
HETATM   14  C   UNL     1      41.359 -15.127   1.945  1.00  0.00     0.245 C 
HETATM   15  O   UNL     1      42.411 -14.797   1.408  1.00  0.00    -0.271 OA
HETATM   16  H   UNL     1      40.193 -15.636   3.524  1.00  0.00     0.169 HD
BRANCH  14  17
HETATM   17  C   UNL     1      40.090 -15.375   1.119  1.00  0.00     0.270 C 
BRANCH  17  18
HETATM   18  O   UNL     1      40.142 -14.788  -0.182  1.00  0.00    -0.387 OA
HETATM   19  C   UNL     1      39.654 -13.449  -0.180  1.00  0.00     0.202 C 
ENDBRANCH  17  18
ENDBRANCH  14  17
ENDBRANCH   9  13
ENDBRANCH   4   7
BRANCH   6  20
HETATM   20  C   UNL     1      45.091 -10.289   8.877  1.00  0.00     0.185 C 
BRANCH  20  21
HETATM   21  N   UNL     1      44.238  -9.596   9.808  1.00  0.00    -0.351 N 
HETATM   22  C   UNL     1      43.840 -10.151  11.002  1.00  0.00     0.258 C 
HETATM   23  O   UNL     1      44.167 -11.294  11.315  1.00  0.00    -0.267 OA
HETATM   24  H   UNL     1      43.863  -8.696   9.538  1.00  0.00     0.163 HD
BRANCH  22  25
HETATM   25  C   UNL     1      43.033  -9.300  11.867  1.00  0.00     0.073 A 
HETATM   26  S   UNL     1      41.328  -9.438  11.970  1.00  0.00    -0.087 SA
HETATM   27  C   UNL     1      41.201  -8.117  13.051  1.00  0.00     0.007 A 
HETATM   28  C   UNL     1      42.444  -7.597  13.354  1.00  0.00     0.018 A 
HETATM   29  C   UNL     1      43.495  -8.278  12.676  1.00  0.00     0.026 A 
BRANCH  27  30
HETATM   30  C   UNL     1      39.865  -7.662  13.544  1.00  0.00     0.213 C 
BRANCH  30  31
HETATM   31  O   UNL     1      39.369  -6.737  12.578  1.00  0.00    -0.391 OA
HETATM   32  C   UNL     1      37.979  -6.913  12.350  1.00  0.00     0.201 C 
ENDBRANCH  30  31
ENDBRANCH  27  30
ENDBRANCH  22  25
ENDBRANCH  20  21
ENDBRANCH   6  20
TORSDOF 9
ENDMDL
MODEL 8
REMARK VINA RESULT:      -7.0      2.662     10.477
REMARK  9 active torsions:
REMARK  status: ('A' for Active; 'I' for Inactive)
REMARK    1  A    between atoms: C_4  and  C_5 
REMARK    2  A    between atoms: C_7  and  N_8 
REMARK       I    between atoms: N_8  and  C_9 
REMARK    3  A    between atoms: C_9  and  C_10 
REMARK    4  A    between atoms: C_10  and  O_11 
REMARK    5  A    between atoms: C_18  and  C_19 
REMARK    6  A    between atoms: C_19  and  N_20 
REMARK       I    between atoms: N_20  and  C_21 
REMARK    7  A    between atoms: C_21  and  C_22 
REMARK    8  A    between atoms: C_24  and  C_25 
REMARK    9  A    between atoms: C_25  and  O_26 
ROOT
HETATM    1  C   UNL     1      39.732 -12.609   4.662  1.00  0.00     0.079 C 
HETATM    2  C   UNL     1      41.124 -12.923   5.029  1.00  0.00     0.078 A 
HETATM    3  O   UNL     1      41.770 -12.042   5.848  1.00  0.00    -0.294 OA
HETATM    4  C   UNL     1      43.022 -12.574   6.005  1.00  0.00     0.180 A 
HETATM    5  N   UNL     1      43.200 -13.724   5.378  1.00  0.00    -0.224 NA
HETATM    6  C   UNL     1      42.005 -13.938   4.720  1.00  0.00     0.084 A 
ENDROOT
BRANCH   4   7
HETATM    7  C   UNL     1      43.973 -11.802   6.799  1.00  0.00     0.019 A 
HETATM    8  C   UNL     1      43.580 -11.122   7.966  1.00  0.00     0.045 A 
HETATM    9  C   UNL     1      44.488 -10.332   8.680  1.00  0.00     0.035 A 
HETATM   10  C   UNL     1      45.811 -10.244   8.232  1.00  0.00     0.029 A 
HETATM   11  C   UNL     1      46.220 -10.923   7.084  1.00  0.00     0.003 A 
HETATM   12  C   UNL     1      45.303 -11.691   6.368  1.00  0.00     0.016 A 
BRANCH   9  13
HETATM   13  N   UNL     1      44.149  -9.583   9.821  1.00  0.00    -0.325 N 
HETATM   14  C   UNL     1      43.861 -10.043  11.095  1.00  0.00     0.245 C 
HETATM   15  O   UNL     1      43.916 -11.201  11.494  1.00  0.00    -0.271 OA
HETATM   16  H   UNL     1      44.045  -8.578   9.705  1.00  0.00     0.169 HD
BRANCH  14  17
HETATM   17  C   UNL     1      43.482  -8.895  12.039  1.00  0.00     0.270 C 
BRANCH  17  18
HETATM   18  O   UNL     1      42.244  -8.270  11.695  1.00  0.00    -0.387 OA
HETATM   19  C   UNL     1      42.400  -6.869  11.478  1.00  0.00     0.202 C 
ENDBRANCH  17  18
ENDBRANCH  14  17
ENDBRANCH   9  13
ENDBRANCH   4   7
BRANCH   6  20
HETATM   20  C   UNL     1      41.821 -15.093   3.807  1.00  0.00     0.185 C 
BRANCH  20  21
HETATM   21  N   UNL     1      41.590 -14.622   2.465  1.00  0.00    -0.351 N 
HETATM   22  C   UNL     1      40.423 -14.877   1.782  1.00  0.00     0.258 C 
HETATM   23  O   UNL     1      39.529 -15.560   2.278  1.00  0.00    -0.267 OA
HETATM   24  H   UNL     1      42.343 -14.146   1.986  1.00  0.00     0.163 HD
BRANCH  22  25
HETATM   25  C   UNL     1      40.311 -14.276   0.459  1.00  0.00     0.073 A 
HETATM   26  S   UNL     1      40.894 -12.704   0.105  1.00  0.00    -0.087 SA
HETATM   27  C   UNL     1      40.322 -12.762  -1.506  1.00  0.00     0.007 A 
HETATM   28  C   UNL     1      39.722 -13.976  -1.782  1.00  0.00     0.018 A 
HETATM   29  C   UNL     1      39.719 -14.845  -0.654  1.00  0.00     0.026 A 
BRANCH  27  30
HETATM   30  C   UNL     1      40.497 -11.592  -2.421  1.00  0.00     0.213 C 
BRANCH  30  31
HETATM   31  O   UNL     1      39.578 -10.593  -1.984  1.00  0.00    -0.391 OA
HETATM   32  C   UNL     1      38.374 -10.624  -2.737  1.00  0.00     0.201 C 
ENDBRANCH  30  31
ENDBRANCH  27  30
ENDBRANCH  22  25
ENDBRANCH  20  21
ENDBRANCH   6  20
TORSDOF 9
ENDMDL
MODEL 9
REMARK VINA RESULT:      -6.9      3.686     10.680
REMARK  9 active torsions:
REMARK  status: ('A' for Active; 'I' for Inactive)
REMARK    1  A    between atoms: C_4  and  C_5 
REMARK    2  A    between atoms: C_7  and  N_8 
REMARK       I    between atoms: N_8  and  C_9 
REMARK    3  A    between atoms: C_9  and  C_10 
REMARK    4  A    between atoms: C_10  and  O_11 
REMARK    5  A    between atoms: C_18  and  C_19 
REMARK    6  A    between atoms: C_19  and  N_20 
REMARK       I    between atoms: N_20  and  C_21 
REMARK    7  A    between atoms: C_21  and  C_22 
REMARK    8  A    between atoms: C_24  and  C_25 
REMARK    9  A    between atoms: C_25  and  O_26 
ROOT
HETATM    1  C   UNL     1      42.489 -15.244   7.209  1.00  0.00     0.079 C 
HETATM    2  C   UNL     1      43.111 -13.977   6.788  1.00  0.00     0.078 A 
HETATM    3  O   UNL     1      43.643 -13.185   7.766  1.00  0.00    -0.294 OA
HETATM    4  C   UNL     1      44.129 -12.093   7.096  1.00  0.00     0.180 A 
HETATM    5  N   UNL     1      43.971 -12.152   5.786  1.00  0.00    -0.224 NA
HETATM    6  C   UNL     1      43.288 -13.335   5.581  1.00  0.00     0.084 A 
ENDROOT
BRANCH   4   7
HETATM    7  C   UNL     1      44.713 -11.028   7.907  1.00  0.00     0.019 A 
HETATM    8  C   UNL     1      44.204 -10.704   9.178  1.00  0.00     0.045 A 
HETATM    9  C   UNL     1      44.731  -9.638   9.914  1.00  0.00     0.035 A 
HETATM   10  C   UNL     1      45.799  -8.907   9.381  1.00  0.00     0.029 A 
HETATM   11  C   UNL     1      46.324  -9.223   8.129  1.00  0.00     0.003 A 
HETATM   12  C   UNL     1      45.777 -10.274   7.393  1.00  0.00     0.016 A 
BRANCH   9  13
HETATM   13  N   UNL     1      44.236  -9.226  11.164  1.00  0.00    -0.325 N 
HETATM   14  C   UNL     1      43.298  -8.245  11.435  1.00  0.00     0.245 C 
HETATM   15  O   UNL     1      42.657  -7.588  10.621  1.00  0.00    -0.271 OA
HETATM   16  H   UNL     1      44.646  -9.654  11.991  1.00  0.00     0.169 HD
BRANCH  14  17
HETATM   17  C   UNL     1      43.082  -8.069  12.943  1.00  0.00     0.270 C 
BRANCH  17  18
HETATM   18  O   UNL     1      41.704  -8.069  13.318  1.00  0.00    -0.387 OA
HETATM   19  C   UNL     1      41.158  -9.386  13.330  1.00  0.00     0.202 C 
ENDBRANCH  17  18
ENDBRANCH  14  17
ENDBRANCH   9  13
ENDBRANCH   4   7
BRANCH   6  20
HETATM   20  C   UNL     1      42.822 -13.734   4.230  1.00  0.00     0.185 C 
BRANCH  20  21
HETATM   21  N   UNL     1      42.967 -15.158   4.065  1.00  0.00    -0.351 N 
HETATM   22  C   UNL     1      42.700 -15.796   2.875  1.00  0.00     0.258 C 
HETATM   23  O   UNL     1      42.282 -15.177   1.898  1.00  0.00    -0.267 OA
HETATM   24  H   UNL     1      43.207 -15.713   4.875  1.00  0.00     0.163 HD
BRANCH  22  25
HETATM   25  C   UNL     1      42.959 -17.230   2.846  1.00  0.00     0.073 A 
HETATM   26  S   UNL     1      43.871 -18.030   4.056  1.00  0.00    -0.087 SA
HETATM   27  C   UNL     1      43.763 -19.540   3.259  1.00  0.00     0.007 A 
HETATM   28  C   UNL     1      43.015 -19.444   2.102  1.00  0.00     0.018 A 
HETATM   29  C   UNL     1      42.552 -18.119   1.867  1.00  0.00     0.026 A 
BRANCH  27  30
HETATM   30  C   UNL     1      44.432 -20.751   3.826  1.00  0.00     0.213 C 
BRANCH  30  31
HETATM   31  O   UNL     1      44.712 -20.458   5.194  1.00  0.00    -0.391 OA
HETATM   32  C   UNL     1      43.581 -20.686   6.020  1.00  0.00     0.201 C 
ENDBRANCH  30  31
ENDBRANCH  27  30
ENDBRANCH  22  25
ENDBRANCH  20  21
ENDBRANCH   6  20
TORSDOF 9
ENDMDL
MODEL 10
REMARK VINA RESULT:      -6.9      5.093      7.549
REMARK  9 active torsions:
REMARK  status: ('A' for Active; 'I' for Inactive)
REMARK    1  A    between atoms: C_4  and  C_5 
REMARK    2  A    between atoms: C_7  and  N_8 
REMARK       I    between atoms: N_8  and  C_9 
REMARK    3  A    between atoms: C_9  and  C_10 
REMARK    4  A    between atoms: C_10  and  O_11 
REMARK    5  A    between atoms: C_18  and  C_19 
REMARK    6  A    between atoms: C_19  and  N_20 
REMARK       I    between atoms: N_20  and  C_21 
REMARK    7  A    between atoms: C_21  and  C_22 
REMARK    8  A    between atoms: C_24  and  C_25 
REMARK    9  A    between atoms: C_25  and  O_26 
ROOT
HETATM    1  C   UNL     1      41.334 -10.230   2.445  1.00  0.00     0.079 C 
HETATM    2  C   UNL     1      40.665 -11.481   2.051  1.00  0.00     0.078 A 
HETATM    3  O   UNL     1      40.288 -11.607   0.744  1.00  0.00    -0.294 OA
HETATM    4  C   UNL     1      39.693 -12.839   0.675  1.00  0.00     0.180 A 
HETATM    5  N   UNL     1      39.694 -13.501   1.819  1.00  0.00    -0.224 NA
HETATM    6  C   UNL     1      40.280 -12.628   2.715  1.00  0.00     0.084 A 
ENDROOT
BRANCH   4   7
HETATM    7  C   UNL     1      39.128 -13.227  -0.613  1.00  0.00     0.019 A 
HETATM    8  C   UNL     1      38.171 -12.432  -1.270  1.00  0.00     0.045 A 
HETATM    9  C   UNL     1      37.589 -12.849  -2.471  1.00  0.00     0.035 A 
HETATM   10  C   UNL     1      37.992 -14.066  -3.035  1.00  0.00     0.029 A 
HETATM   11  C   UNL     1      38.949 -14.860  -2.404  1.00  0.00     0.003 A 
HETATM   12  C   UNL     1      39.507 -14.445  -1.195  1.00  0.00     0.016 A 
BRANCH   9  13
HETATM   13  N   UNL     1      36.589 -12.131  -3.151  1.00  0.00    -0.325 N 
HETATM   14  C   UNL     1      36.466 -10.760  -3.297  1.00  0.00     0.245 C 
HETATM   15  O   UNL     1      37.255  -9.901  -2.918  1.00  0.00    -0.271 OA
HETATM   16  H   UNL     1      35.820 -12.665  -3.548  1.00  0.00     0.169 HD
BRANCH  14  17
HETATM   17  C   UNL     1      35.192 -10.385  -4.065  1.00  0.00     0.270 C 
BRANCH  17  18
HETATM   18  O   UNL     1      34.224 -11.434  -4.094  1.00  0.00    -0.387 OA
HETATM   19  C   UNL     1      32.982 -11.024  -3.525  1.00  0.00     0.202 C 
ENDBRANCH  17  18
ENDBRANCH  14  17
ENDBRANCH   9  13
ENDBRANCH   4   7
BRANCH   6  20
HETATM   20  C   UNL     1      40.385 -12.956   4.158  1.00  0.00     0.185 C 
BRANCH  20  21
HETATM   21  N   UNL     1      41.267 -14.080   4.339  1.00  0.00    -0.351 N 
HETATM   22  C   UNL     1      41.239 -14.869   5.466  1.00  0.00     0.258 C 
HETATM   23  O   UNL     1      40.476 -14.624   6.398  1.00  0.00    -0.267 OA
HETATM   24  H   UNL     1      41.979 -14.250   3.641  1.00  0.00     0.163 HD
BRANCH  22  25
HETATM   25  C   UNL     1      42.146 -16.009   5.472  1.00  0.00     0.073 A 
HETATM   26  S   UNL     1      42.706 -16.754   4.034  1.00  0.00    -0.087 SA
HETATM   27  C   UNL     1      43.574 -17.953   4.892  1.00  0.00     0.007 A 
HETATM   28  C   UNL     1      43.466 -17.771   6.256  1.00  0.00     0.018 A 
HETATM   29  C   UNL     1      42.649 -16.654   6.589  1.00  0.00     0.026 A 
BRANCH  27  30
HETATM   30  C   UNL     1      44.323 -19.022   4.161  1.00  0.00     0.213 C 
BRANCH  30  31
HETATM   31  O   UNL     1      43.957 -18.908   2.787  1.00  0.00    -0.391 OA
HETATM   32  C   UNL     1      43.642 -20.171   2.222  1.00  0.00     0.201 C 
ENDBRANCH  30  31
ENDBRANCH  27  30
ENDBRANCH  22  25
ENDBRANCH  20  21
ENDBRANCH   6  20
TORSDOF 9
ENDMDL
