MODEL 1
REMARK VINA RESULT:      -8.3      0.000      0.000
REMARK  4 active torsions:
REMARK  status: ('A' for Active; 'I' for Inactive)
REMARK    1  A    between atoms: C_8  and  N_9 
REMARK       I    between atoms: N_9  and  C_10 
REMARK       I    between atoms: C_10  and  N_11 
REMARK    2  A    between atoms: N_11  and  C_12 
REMARK    3  A    between atoms: C_15  and  C_16 
REMARK       I    between atoms: C_16  and  N_17 
REMARK    4  A    between atoms: N_17  and  C_18 
ROOT
HETATM    1  C   UNL     1      41.968 -30.136   1.951  1.00  0.00     0.036 A 
HETATM    2  C   UNL     1      42.073 -29.849   3.314  1.00  0.00     0.030 A 
HETATM    3  C   UNL     1      41.303 -30.549   4.250  1.00  0.00     0.019 A 
HETATM    4  C   UNL     1      40.407 -31.535   3.828  1.00  0.00     0.032 A 
HETATM    5  C   UNL     1      40.333 -31.859   2.471  1.00  0.00     0.019 A 
HETATM    6  C   UNL     1      41.106 -31.161   1.538  1.00  0.00     0.030 A 
ENDROOT
BRANCH   1   7
HETATM    7  N   UNL     1      42.635 -29.410   0.944  1.00  0.00    -0.309 N 
HETATM    8  C   UNL     1      43.943 -29.575   0.509  1.00  0.00     0.325 C 
HETATM    9  N   UNL     1      44.333 -28.474  -0.235  1.00  0.00    -0.305 N 
HETATM   10  O   UNL     1      44.655 -30.531   0.780  1.00  0.00    -0.247 OA
HETATM   11  H   UNL     1      43.816 -27.626  -0.066  1.00  0.00     0.171 HD
HETATM   12  H   UNL     1      42.079 -28.754   0.419  1.00  0.00     0.170 HD
BRANCH   9  13
HETATM   13  C   UNL     1      45.548 -28.310  -0.880  1.00  0.00     0.086 A 
HETATM   14  C   UNL     1      45.654 -28.345  -2.258  1.00  0.00     0.052 A 
HETATM   15  C   UNL     1      44.653 -28.518  -3.336  1.00  0.00     0.072 C 
HETATM   16  N   UNL     1      46.975 -28.134  -2.534  1.00  0.00    -0.280 N 
HETATM   17  H   UNL     1      47.424 -28.074  -3.442  1.00  0.00     0.189 HD
HETATM   18  N   UNL     1      47.740 -28.003  -1.448  1.00  0.00    -0.177 NA
HETATM   19  C   UNL     1      46.884 -28.112  -0.422  1.00  0.00     0.079 A 
HETATM   20  C   UNL     1      47.429 -28.059   0.959  1.00  0.00     0.075 C 
ENDBRANCH   9  13
ENDBRANCH   1   7
BRANCH   4  21
HETATM   21  C   UNL     1      39.501 -32.239   4.776  1.00  0.00     0.252 C 
HETATM   22  N   UNL     1      38.326 -32.721   4.235  1.00  0.00    -0.352 N 
HETATM   23  H   UNL     1      38.172 -32.636   3.241  1.00  0.00     0.163 HD
HETATM   24  O   UNL     1      39.837 -32.412   5.942  1.00  0.00    -0.268 OA
BRANCH  22  25
HETATM   25  C   UNL     1      37.369 -33.498   5.016  1.00  0.00     0.084 C 
HETATM   26  C   UNL     1      35.925 -33.212   4.583  1.00  0.00     0.025 C 
HETATM   27  C   UNL     1      35.599 -33.792   3.208  1.00  0.00     0.002 C 
HETATM   28  C   UNL     1      35.908 -35.284   3.139  1.00  0.00     0.000 C 
HETATM   29  C   UNL     1      37.348 -35.582   3.542  1.00  0.00     0.002 C 
HETATM   30  C   UNL     1      37.684 -34.998   4.914  1.00  0.00     0.025 C 
ENDBRANCH  22  25
ENDBRANCH   4  21
TORSDOF 4
ENDMDL
MODEL 2
REMARK VINA RESULT:      -7.9     23.374     25.004
REMARK  4 active torsions:
REMARK  status: ('A' for Active; 'I' for Inactive)
REMARK    1  A    between atoms: C_8  and  N_9 
REMARK       I    between atoms: N_9  and  C_10 
REMARK       I    between atoms: C_10  and  N_11 
REMARK    2  A    between atoms: N_11  and  C_12 
REMARK    3  A    between atoms: C_15  and  C_16 
REMARK       I    between atoms: C_16  and  N_17 
REMARK    4  A    between atoms: N_17  and  C_18 
ROOT
HETATM    1  C   UNL     1      42.466  -9.135  12.377  1.00  0.00     0.036 A 
HETATM    2  C   UNL     1      43.336  -8.121  12.786  1.00  0.00     0.030 A 
HETATM    3  C   UNL     1      43.140  -7.464  14.007  1.00  0.00     0.019 A 
HETATM    4  C   UNL     1      42.060  -7.806  14.824  1.00  0.00     0.032 A 
HETATM    5  C   UNL     1      41.215  -8.852  14.443  1.00  0.00     0.019 A 
HETATM    6  C   UNL     1      41.415  -9.509  13.224  1.00  0.00     0.030 A 
ENDROOT
BRANCH   1   7
HETATM    7  N   UNL     1      42.542  -9.772  11.122  1.00  0.00    -0.309 N 
HETATM    8  C   UNL     1      43.686 -10.157  10.438  1.00  0.00     0.325 C 
HETATM    9  N   UNL     1      43.373 -10.432   9.118  1.00  0.00    -0.305 N 
HETATM   10  O   UNL     1      44.808 -10.205  10.922  1.00  0.00    -0.247 OA
HETATM   11  H   UNL     1      42.531 -10.003   8.768  1.00  0.00     0.171 HD
HETATM   12  H   UNL     1      41.668 -10.060  10.711  1.00  0.00     0.170 HD
BRANCH   9  13
HETATM   13  C   UNL     1      44.246 -10.902   8.150  1.00  0.00     0.086 A 
HETATM   14  C   UNL     1      45.346 -10.171   7.742  1.00  0.00     0.052 A 
HETATM   15  C   UNL     1      45.886  -8.855   8.158  1.00  0.00     0.072 C 
HETATM   16  N   UNL     1      45.976 -10.939   6.804  1.00  0.00    -0.280 N 
HETATM   17  H   UNL     1      46.831 -10.735   6.298  1.00  0.00     0.189 HD
HETATM   18  N   UNL     1      45.354 -12.092   6.543  1.00  0.00    -0.177 NA
HETATM   19  C   UNL     1      44.288 -12.086   7.356  1.00  0.00     0.079 A 
HETATM   20  C   UNL     1      43.340 -13.227   7.281  1.00  0.00     0.075 C 
ENDBRANCH   9  13
ENDBRANCH   1   7
BRANCH   4  21
HETATM   21  C   UNL     1      41.757  -7.073  16.084  1.00  0.00     0.252 C 
HETATM   22  N   UNL     1      41.797  -7.827  17.239  1.00  0.00    -0.352 N 
HETATM   23  H   UNL     1      42.086  -8.794  17.186  1.00  0.00     0.163 HD
HETATM   24  O   UNL     1      41.550  -5.866  16.064  1.00  0.00    -0.268 OA
BRANCH  22  25
HETATM   25  C   UNL     1      41.598  -7.242  18.560  1.00  0.00     0.084 C 
HETATM   26  C   UNL     1      40.108  -7.138  18.912  1.00  0.00     0.025 C 
HETATM   27  C   UNL     1      39.474  -8.501  19.185  1.00  0.00     0.002 C 
HETATM   28  C   UNL     1      40.238  -9.273  20.255  1.00  0.00     0.000 C 
HETATM   29  C   UNL     1      41.717  -9.407  19.908  1.00  0.00     0.002 C 
HETATM   30  C   UNL     1      42.357  -8.047  19.625  1.00  0.00     0.025 C 
ENDBRANCH  22  25
ENDBRANCH   4  21
TORSDOF 4
ENDMDL
MODEL 3
REMARK VINA RESULT:      -7.8     23.106     24.759
REMARK  4 active torsions:
REMARK  status: ('A' for Active; 'I' for Inactive)
REMARK    1  A    between atoms: C_8  and  N_9 
REMARK       I    between atoms: N_9  and  C_10 
REMARK       I    between atoms: C_10  and  N_11 
REMARK    2  A    between atoms: N_11  and  C_12 
REMARK    3  A    between atoms: C_15  and  C_16 
REMARK       I    between atoms: C_16  and  N_17 
REMARK    4  A    between atoms: N_17  and  C_18 
ROOT
HETATM    1  C   UNL     1      42.798  -9.688  11.958  1.00  0.00     0.036 A 
HETATM    2  C   UNL     1      43.544  -8.555  12.290  1.00  0.00     0.030 A 
HETATM    3  C   UNL     1      43.139  -7.716  13.335  1.00  0.00     0.019 A 
HETATM    4  C   UNL     1      41.970  -7.995  14.048  1.00  0.00     0.032 A 
HETATM    5  C   UNL     1      41.246  -9.153  13.752  1.00  0.00     0.019 A 
HETATM    6  C   UNL     1      41.656  -9.992  12.710  1.00  0.00     0.030 A 
ENDROOT
BRANCH   1   7
HETATM    7  N   UNL     1      43.088 -10.522  10.860  1.00  0.00    -0.309 N 
HETATM    8  C   UNL     1      43.630 -10.151   9.637  1.00  0.00     0.325 C 
HETATM    9  N   UNL     1      43.451 -11.170   8.716  1.00  0.00    -0.305 N 
HETATM   10  O   UNL     1      44.149  -9.070   9.400  1.00  0.00    -0.247 OA
HETATM   11  H   UNL     1      42.704 -11.816   8.916  1.00  0.00     0.171 HD
HETATM   12  H   UNL     1      42.973 -11.513  11.005  1.00  0.00     0.170 HD
BRANCH   9  13
HETATM   13  C   UNL     1      43.912 -11.183   7.409  1.00  0.00     0.086 A 
HETATM   14  C   UNL     1      43.068 -11.415   6.339  1.00  0.00     0.052 A 
HETATM   15  C   UNL     1      41.611 -11.665   6.247  1.00  0.00     0.072 C 
HETATM   16  N   UNL     1      43.853 -11.339   5.224  1.00  0.00    -0.280 N 
HETATM   17  H   UNL     1      43.575 -11.436   4.253  1.00  0.00     0.189 HD
HETATM   18  N   UNL     1      45.143 -11.113   5.485  1.00  0.00    -0.177 NA
HETATM   19  C   UNL     1      45.201 -11.018   6.822  1.00  0.00     0.079 A 
HETATM   20  C   UNL     1      46.528 -10.813   7.456  1.00  0.00     0.075 C 
ENDBRANCH   9  13
ENDBRANCH   1   7
BRANCH   4  21
HETATM   21  C   UNL     1      41.450  -7.084  15.103  1.00  0.00     0.252 C 
HETATM   22  N   UNL     1      41.768  -7.427  16.402  1.00  0.00    -0.352 N 
HETATM   23  H   UNL     1      42.376  -8.218  16.566  1.00  0.00     0.163 HD
HETATM   24  O   UNL     1      40.833  -6.070  14.798  1.00  0.00    -0.268 OA
BRANCH  22  25
HETATM   25  C   UNL     1      41.396  -6.597  17.541  1.00  0.00     0.084 C 
HETATM   26  C   UNL     1      39.954  -6.868  17.990  1.00  0.00     0.025 C 
HETATM   27  C   UNL     1      39.794  -8.232  18.659  1.00  0.00     0.002 C 
HETATM   28  C   UNL     1      40.771  -8.410  19.816  1.00  0.00     0.000 C 
HETATM   29  C   UNL     1      42.213  -8.168  19.380  1.00  0.00     0.002 C 
HETATM   30  C   UNL     1      42.379  -6.808  18.703  1.00  0.00     0.025 C 
ENDBRANCH  22  25
ENDBRANCH   4  21
TORSDOF 4
ENDMDL
MODEL 4
REMARK VINA RESULT:      -7.5     18.787     20.997
REMARK  4 active torsions:
REMARK  status: ('A' for Active; 'I' for Inactive)
REMARK    1  A    between atoms: C_8  and  N_9 
REMARK       I    between atoms: N_9  and  C_10 
REMARK       I    between atoms: C_10  and  N_11 
REMARK    2  A    between atoms: N_11  and  C_12 
REMARK    3  A    between atoms: C_15  and  C_16 
REMARK       I    between atoms: C_16  and  N_17 
REMARK    4  A    between atoms: N_17  and  C_18 
ROOT
HETATM    1  C   UNL     1      43.162 -11.377   5.452  1.00  0.00     0.036 A 
HETATM    2  C   UNL     1      42.482 -10.349   6.109  1.00  0.00     0.030 A 
HETATM    3  C   UNL     1      42.797 -10.019   7.432  1.00  0.00     0.019 A 
HETATM    4  C   UNL     1      43.787 -10.728   8.118  1.00  0.00     0.032 A 
HETATM    5  C   UNL     1      44.503 -11.726   7.450  1.00  0.00     0.019 A 
HETATM    6  C   UNL     1      44.189 -12.050   6.126  1.00  0.00     0.030 A 
ENDROOT
BRANCH   1   7
HETATM    7  N   UNL     1      42.835 -11.829   4.157  1.00  0.00    -0.309 N 
HETATM    8  C   UNL     1      41.802 -12.683   3.796  1.00  0.00     0.325 C 
HETATM    9  N   UNL     1      42.010 -13.154   2.511  1.00  0.00    -0.305 N 
HETATM   10  O   UNL     1      40.872 -13.003   4.523  1.00  0.00    -0.247 OA
HETATM   11  H   UNL     1      42.961 -13.125   2.181  1.00  0.00     0.171 HD
HETATM   12  H   UNL     1      43.352 -11.421   3.394  1.00  0.00     0.170 HD
BRANCH   9  13
HETATM   13  C   UNL     1      41.159 -13.979   1.793  1.00  0.00     0.086 A 
HETATM   14  C   UNL     1      40.427 -13.515   0.716  1.00  0.00     0.052 A 
HETATM   15  C   UNL     1      40.343 -12.191   0.058  1.00  0.00     0.072 C 
HETATM   16  N   UNL     1      39.726 -14.592   0.252  1.00  0.00    -0.280 N 
HETATM   17  H   UNL     1      39.096 -14.635  -0.542  1.00  0.00     0.189 HD
HETATM   18  N   UNL     1      39.913 -15.706   0.964  1.00  0.00    -0.177 NA
HETATM   19  C   UNL     1      40.786 -15.350   1.917  1.00  0.00     0.079 A 
HETATM   20  C   UNL     1      41.177 -16.366   2.928  1.00  0.00     0.075 C 
ENDBRANCH   9  13
ENDBRANCH   1   7
BRANCH   4  21
HETATM   21  C   UNL     1      44.091 -10.477   9.553  1.00  0.00     0.252 C 
HETATM   22  N   UNL     1      43.017 -10.105  10.336  1.00  0.00    -0.352 N 
HETATM   23  H   UNL     1      42.093 -10.088   9.927  1.00  0.00     0.163 HD
HETATM   24  O   UNL     1      45.222 -10.656   9.987  1.00  0.00    -0.268 OA
BRANCH  22  25
HETATM   25  C   UNL     1      43.136  -9.896  11.774  1.00  0.00     0.084 C 
HETATM   26  C   UNL     1      43.597  -8.469  12.100  1.00  0.00     0.025 C 
HETATM   27  C   UNL     1      42.515  -7.426  11.822  1.00  0.00     0.002 C 
HETATM   28  C   UNL     1      41.213  -7.760  12.541  1.00  0.00     0.000 C 
HETATM   29  C   UNL     1      40.728  -9.167  12.207  1.00  0.00     0.002 C 
HETATM   30  C   UNL     1      41.808 -10.216  12.476  1.00  0.00     0.025 C 
ENDBRANCH  22  25
ENDBRANCH   4  21
TORSDOF 4
ENDMDL
MODEL 5
REMARK VINA RESULT:      -7.5     18.502     20.814
REMARK  4 active torsions:
REMARK  status: ('A' for Active; 'I' for Inactive)
REMARK    1  A    between atoms: C_8  and  N_9 
REMARK       I    between atoms: N_9  and  C_10 
REMARK       I    between atoms: C_10  and  N_11 
REMARK    2  A    between atoms: N_11  and  C_12 
REMARK    3  A    between atoms: C_15  and  C_16 
REMARK       I    between atoms: C_16  and  N_17 
REMARK    4  A    between atoms: N_17  and  C_18 
ROOT
HETATM    1  C   UNL     1      43.174 -12.143   4.878  1.00  0.00     0.036 A 
HETATM    2  C   UNL     1      43.629 -13.073   5.815  1.00  0.00     0.030 A 
HETATM    3  C   UNL     1      43.908 -12.681   7.130  1.00  0.00     0.019 A 
HETATM    4  C   UNL     1      43.748 -11.347   7.515  1.00  0.00     0.032 A 
HETATM    5  C   UNL     1      43.247 -10.422   6.594  1.00  0.00     0.019 A 
HETATM    6  C   UNL     1      42.965 -10.819   5.282  1.00  0.00     0.030 A 
ENDROOT
BRANCH   1   7
HETATM    7  N   UNL     1      42.966 -12.443   3.516  1.00  0.00    -0.309 N 
HETATM    8  C   UNL     1      41.762 -12.723   2.886  1.00  0.00     0.325 C 
HETATM    9  N   UNL     1      42.001 -13.291   1.646  1.00  0.00    -0.305 N 
HETATM   10  O   UNL     1      40.657 -12.536   3.374  1.00  0.00    -0.247 OA
HETATM   11  H   UNL     1      42.902 -13.728   1.530  1.00  0.00     0.171 HD
HETATM   12  H   UNL     1      43.768 -12.359   2.910  1.00  0.00     0.170 HD
BRANCH   9  13
HETATM   13  C   UNL     1      41.044 -13.648   0.710  1.00  0.00     0.086 A 
HETATM   14  C   UNL     1      40.359 -14.846   0.786  1.00  0.00     0.052 A 
HETATM   15  C   UNL     1      40.399 -15.964   1.757  1.00  0.00     0.072 C 
HETATM   16  N   UNL     1      39.499 -14.850  -0.275  1.00  0.00    -0.280 N 
HETATM   17  H   UNL     1      38.822 -15.561  -0.531  1.00  0.00     0.189 HD
HETATM   18  N   UNL     1      39.596 -13.769  -1.054  1.00  0.00    -0.177 NA
HETATM   19  C   UNL     1      40.542 -13.020  -0.468  1.00  0.00     0.079 A 
HETATM   20  C   UNL     1      40.935 -11.746  -1.121  1.00  0.00     0.075 C 
ENDBRANCH   9  13
ENDBRANCH   1   7
BRANCH   4  21
HETATM   21  C   UNL     1      44.120 -10.865   8.873  1.00  0.00     0.252 C 
HETATM   22  N   UNL     1      43.076 -10.418   9.657  1.00  0.00    -0.352 N 
HETATM   23  H   UNL     1      42.131 -10.500   9.309  1.00  0.00     0.163 HD
HETATM   24  O   UNL     1      45.282 -10.931   9.257  1.00  0.00    -0.268 OA
BRANCH  22  25
HETATM   25  C   UNL     1      43.266  -9.984  11.036  1.00  0.00     0.084 C 
HETATM   26  C   UNL     1      43.917  -8.596  11.106  1.00  0.00     0.025 C 
HETATM   27  C   UNL     1      42.971  -7.482  10.660  1.00  0.00     0.002 C 
HETATM   28  C   UNL     1      41.659  -7.513  11.437  1.00  0.00     0.000 C 
HETATM   29  C   UNL     1      40.986  -8.880  11.356  1.00  0.00     0.002 C 
HETATM   30  C   UNL     1      41.930 -10.001  11.793  1.00  0.00     0.025 C 
ENDBRANCH  22  25
ENDBRANCH   4  21
TORSDOF 4
ENDMDL
MODEL 6
REMARK VINA RESULT:      -7.4     18.125     20.402
REMARK  4 active torsions:
REMARK  status: ('A' for Active; 'I' for Inactive)
REMARK    1  A    between atoms: C_8  and  N_9 
REMARK       I    between atoms: N_9  and  C_10 
REMARK       I    between atoms: C_10  and  N_11 
REMARK    2  A    between atoms: N_11  and  C_12 
REMARK    3  A    between atoms: C_15  and  C_16 
REMARK       I    between atoms: C_16  and  N_17 
REMARK    4  A    between atoms: N_17  and  C_18 
ROOT
HETATM    1  C   UNL     1      40.903 -12.705   4.722  1.00  0.00     0.036 A 
HETATM    2  C   UNL     1      39.657 -12.433   4.153  1.00  0.00     0.030 A 
HETATM    3  C   UNL     1      39.286 -13.021   2.937  1.00  0.00     0.019 A 
HETATM    4  C   UNL     1      40.168 -13.875   2.271  1.00  0.00     0.032 A 
HETATM    5  C   UNL     1      41.397 -14.188   2.860  1.00  0.00     0.019 A 
HETATM    6  C   UNL     1      41.763 -13.603   4.077  1.00  0.00     0.030 A 
ENDROOT
BRANCH   1   7
HETATM    7  N   UNL     1      41.383 -12.077   5.889  1.00  0.00    -0.309 N 
HETATM    8  C   UNL     1      42.158 -10.928   5.973  1.00  0.00     0.325 C 
HETATM    9  N   UNL     1      42.704 -10.822   7.241  1.00  0.00    -0.305 N 
HETATM   10  O   UNL     1      42.360 -10.152   5.051  1.00  0.00    -0.247 OA
HETATM   11  H   UNL     1      42.774 -11.682   7.762  1.00  0.00     0.171 HD
HETATM   12  H   UNL     1      41.058 -12.451   6.767  1.00  0.00     0.170 HD
BRANCH   9  13
HETATM   13  C   UNL     1      43.483  -9.778   7.713  1.00  0.00     0.086 A 
HETATM   14  C   UNL     1      44.853  -9.895   7.857  1.00  0.00     0.052 A 
HETATM   15  C   UNL     1      45.799 -10.999   7.575  1.00  0.00     0.072 C 
HETATM   16  N   UNL     1      45.283  -8.684   8.321  1.00  0.00    -0.280 N 
HETATM   17  H   UNL     1      46.232  -8.392   8.526  1.00  0.00     0.189 HD
HETATM   18  N   UNL     1      44.299  -7.804   8.526  1.00  0.00    -0.177 NA
HETATM   19  C   UNL     1      43.186  -8.457   8.162  1.00  0.00     0.079 A 
HETATM   20  C   UNL     1      41.882  -7.764   8.315  1.00  0.00     0.075 C 
ENDBRANCH   9  13
ENDBRANCH   1   7
BRANCH   4  21
HETATM   21  C   UNL     1      39.857 -14.449   0.933  1.00  0.00     0.252 C 
HETATM   22  N   UNL     1      39.414 -13.549  -0.015  1.00  0.00    -0.352 N 
HETATM   23  H   UNL     1      39.387 -12.566   0.215  1.00  0.00     0.163 HD
HETATM   24  O   UNL     1      40.050 -15.637   0.708  1.00  0.00    -0.268 OA
BRANCH  22  25
HETATM   25  C   UNL     1      39.138 -13.940  -1.392  1.00  0.00     0.084 C 
HETATM   26  C   UNL     1      37.883 -13.245  -1.937  1.00  0.00     0.025 C 
HETATM   27  C   UNL     1      38.098 -11.752  -2.178  1.00  0.00     0.002 C 
HETATM   28  C   UNL     1      39.301 -11.495  -3.079  1.00  0.00     0.000 C 
HETATM   29  C   UNL     1      40.564 -12.159  -2.538  1.00  0.00     0.002 C 
HETATM   30  C   UNL     1      40.353 -13.652  -2.287  1.00  0.00     0.025 C 
ENDBRANCH  22  25
ENDBRANCH   4  21
TORSDOF 4
ENDMDL
MODEL 7
REMARK VINA RESULT:      -7.4     15.787     18.857
REMARK  4 active torsions:
REMARK  status: ('A' for Active; 'I' for Inactive)
REMARK    1  A    between atoms: C_8  and  N_9 
REMARK       I    between atoms: N_9  and  C_10 
REMARK       I    between atoms: C_10  and  N_11 
REMARK    2  A    between atoms: N_11  and  C_12 
REMARK    3  A    between atoms: C_15  and  C_16 
REMARK       I    between atoms: C_16  and  N_17 
REMARK    4  A    between atoms: N_17  and  C_18 
ROOT
HETATM    1  C   UNL     1      41.597 -14.608   1.010  1.00  0.00     0.036 A 
HETATM    2  C   UNL     1      41.872 -13.341   1.529  1.00  0.00     0.030 A 
HETATM    3  C   UNL     1      41.102 -12.234   1.153  1.00  0.00     0.019 A 
HETATM    4  C   UNL     1      40.057 -12.383   0.238  1.00  0.00     0.032 A 
HETATM    5  C   UNL     1      39.746 -13.657  -0.248  1.00  0.00     0.019 A 
HETATM    6  C   UNL     1      40.515 -14.761   0.134  1.00  0.00     0.030 A 
ENDROOT
BRANCH   1   7
HETATM    7  N   UNL     1      42.386 -15.747   1.267  1.00  0.00    -0.309 N 
HETATM    8  C   UNL     1      42.329 -16.583   2.373  1.00  0.00     0.325 C 
HETATM    9  N   UNL     1      43.466 -17.371   2.425  1.00  0.00    -0.305 N 
HETATM   10  O   UNL     1      41.427 -16.591   3.198  1.00  0.00    -0.247 OA
HETATM   11  H   UNL     1      44.270 -17.015   1.932  1.00  0.00     0.171 HD
HETATM   12  H   UNL     1      43.004 -16.042   0.526  1.00  0.00     0.170 HD
BRANCH   9  13
HETATM   13  C   UNL     1      43.733 -18.364   3.354  1.00  0.00     0.086 A 
HETATM   14  C   UNL     1      43.700 -19.705   3.018  1.00  0.00     0.052 A 
HETATM   15  C   UNL     1      43.435 -20.414   1.745  1.00  0.00     0.072 C 
HETATM   16  N   UNL     1      44.025 -20.381   4.160  1.00  0.00    -0.280 N 
HETATM   17  H   UNL     1      44.120 -21.383   4.290  1.00  0.00     0.189 HD
HETATM   18  N   UNL     1      44.227 -19.591   5.217  1.00  0.00    -0.177 NA
HETATM   19  C   UNL     1      44.049 -18.349   4.744  1.00  0.00     0.079 A 
HETATM   20  C   UNL     1      44.156 -17.212   5.694  1.00  0.00     0.075 C 
ENDBRANCH   9  13
ENDBRANCH   1   7
BRANCH   4  21
HETATM   21  C   UNL     1      39.272 -11.222  -0.264  1.00  0.00     0.252 C 
HETATM   22  N   UNL     1      39.950 -10.356  -1.097  1.00  0.00    -0.352 N 
HETATM   23  H   UNL     1      40.896 -10.579  -1.372  1.00  0.00     0.163 HD
HETATM   24  O   UNL     1      38.085 -11.108   0.018  1.00  0.00    -0.268 OA
BRANCH  22  25
HETATM   25  C   UNL     1      39.301  -9.213  -1.729  1.00  0.00     0.084 C 
HETATM   26  C   UNL     1      40.075  -7.912  -1.475  1.00  0.00     0.025 C 
HETATM   27  C   UNL     1      41.396  -7.857  -2.239  1.00  0.00     0.002 C 
HETATM   28  C   UNL     1      41.193  -8.091  -3.732  1.00  0.00     0.000 C 
HETATM   29  C   UNL     1      40.447  -9.394  -4.004  1.00  0.00     0.002 C 
HETATM   30  C   UNL     1      39.127  -9.460  -3.235  1.00  0.00     0.025 C 
ENDBRANCH  22  25
ENDBRANCH   4  21
TORSDOF 4
ENDMDL
MODEL 8
REMARK VINA RESULT:      -7.4      2.292      3.684
REMARK  4 active torsions:
REMARK  status: ('A' for Active; 'I' for Inactive)
REMARK    1  A    between atoms: C_8  and  N_9 
REMARK       I    between atoms: N_9  and  C_10 
REMARK       I    between atoms: C_10  and  N_11 
REMARK    2  A    between atoms: N_11  and  C_12 
REMARK    3  A    between atoms: C_15  and  C_16 
REMARK       I    between atoms: C_16  and  N_17 
REMARK    4  A    between atoms: N_17  and  C_18 
ROOT
HETATM    1  C   UNL     1      41.796 -30.073   1.953  1.00  0.00     0.036 A 
HETATM    2  C   UNL     1      40.964 -31.166   1.705  1.00  0.00     0.030 A 
HETATM    3  C   UNL     1      40.352 -31.851   2.761  1.00  0.00     0.019 A 
HETATM    4  C   UNL     1      40.583 -31.457   4.082  1.00  0.00     0.032 A 
HETATM    5  C   UNL     1      41.376 -30.334   4.334  1.00  0.00     0.019 A 
HETATM    6  C   UNL     1      41.982 -29.649   3.275  1.00  0.00     0.030 A 
ENDROOT
BRANCH   1   7
HETATM    7  N   UNL     1      42.521 -29.397   0.951  1.00  0.00    -0.309 N 
HETATM    8  C   UNL     1      43.864 -29.543   0.636  1.00  0.00     0.325 C 
HETATM    9  N   UNL     1      44.278 -28.485  -0.156  1.00  0.00    -0.305 N 
HETATM   10  O   UNL     1      44.583 -30.448   1.035  1.00  0.00    -0.247 OA
HETATM   11  H   UNL     1      43.722 -27.647  -0.095  1.00  0.00     0.171 HD
HETATM   12  H   UNL     1      41.988 -28.803   0.334  1.00  0.00     0.170 HD
BRANCH   9  13
HETATM   13  C   UNL     1      45.537 -28.322  -0.713  1.00  0.00     0.086 A 
HETATM   14  C   UNL     1      45.735 -28.318  -2.081  1.00  0.00     0.052 A 
HETATM   15  C   UNL     1      44.807 -28.442  -3.229  1.00  0.00     0.072 C 
HETATM   16  N   UNL     1      47.075 -28.120  -2.261  1.00  0.00    -0.280 N 
HETATM   17  H   UNL     1      47.585 -28.040  -3.134  1.00  0.00     0.189 HD
HETATM   18  N   UNL     1      47.766 -28.034  -1.122  1.00  0.00    -0.177 NA
HETATM   19  C   UNL     1      46.841 -28.159  -0.160  1.00  0.00     0.079 A 
HETATM   20  C   UNL     1      47.292 -28.156   1.255  1.00  0.00     0.075 C 
ENDBRANCH   9  13
ENDBRANCH   1   7
BRANCH   4  21
HETATM   21  C   UNL     1      40.031 -32.210   5.241  1.00  0.00     0.252 C 
HETATM   22  N   UNL     1      40.964 -32.749   6.103  1.00  0.00    -0.352 N 
HETATM   23  H   UNL     1      41.944 -32.557   5.950  1.00  0.00     0.163 HD
HETATM   24  O   UNL     1      38.821 -32.276   5.418  1.00  0.00    -0.268 OA
BRANCH  22  25
HETATM   25  C   UNL     1      40.585 -33.451   7.324  1.00  0.00     0.084 C 
HETATM   26  C   UNL     1      41.569 -34.581   7.655  1.00  0.00     0.025 C 
HETATM   27  C   UNL     1      42.926 -34.058   8.123  1.00  0.00     0.002 C 
HETATM   28  C   UNL     1      42.783 -33.093   9.296  1.00  0.00     0.000 C 
HETATM   29  C   UNL     1      41.827 -31.950   8.973  1.00  0.00     0.002 C 
HETATM   30  C   UNL     1      40.469 -32.466   8.497  1.00  0.00     0.025 C 
ENDBRANCH  22  25
ENDBRANCH   4  21
TORSDOF 4
ENDMDL
MODEL 9
REMARK VINA RESULT:      -7.3     15.970     19.194
REMARK  4 active torsions:
REMARK  status: ('A' for Active; 'I' for Inactive)
REMARK    1  A    between atoms: C_8  and  N_9 
REMARK       I    between atoms: N_9  and  C_10 
REMARK       I    between atoms: C_10  and  N_11 
REMARK    2  A    between atoms: N_11  and  C_12 
REMARK    3  A    between atoms: C_15  and  C_16 
REMARK       I    between atoms: C_16  and  N_17 
REMARK    4  A    between atoms: N_17  and  C_18 
ROOT
HETATM    1  C   UNL     1      40.755 -14.474   0.804  1.00  0.00     0.036 A 
HETATM    2  C   UNL     1      39.844 -14.976  -0.127  1.00  0.00     0.030 A 
HETATM    3  C   UNL     1      39.391 -14.176  -1.183  1.00  0.00     0.019 A 
HETATM    4  C   UNL     1      39.835 -12.857  -1.307  1.00  0.00     0.032 A 
HETATM    5  C   UNL     1      40.784 -12.365  -0.405  1.00  0.00     0.019 A 
HETATM    6  C   UNL     1      41.238 -13.169   0.646  1.00  0.00     0.030 A 
ENDROOT
BRANCH   1   7
HETATM    7  N   UNL     1      41.180 -15.185   1.945  1.00  0.00    -0.309 N 
HETATM    8  C   UNL     1      42.294 -16.004   2.064  1.00  0.00     0.325 C 
HETATM    9  N   UNL     1      42.188 -16.779   3.207  1.00  0.00    -0.305 N 
HETATM   10  O   UNL     1      43.210 -16.061   1.256  1.00  0.00    -0.247 OA
HETATM   11  H   UNL     1      41.254 -16.912   3.561  1.00  0.00     0.171 HD
HETATM   12  H   UNL     1      40.669 -15.014   2.797  1.00  0.00     0.170 HD
BRANCH   9  13
HETATM   13  C   UNL     1      43.136 -17.669   3.684  1.00  0.00     0.086 A 
HETATM   14  C   UNL     1      43.886 -17.403   4.814  1.00  0.00     0.052 A 
HETATM   15  C   UNL     1      43.904 -16.261   5.758  1.00  0.00     0.072 C 
HETATM   16  N   UNL     1      44.691 -18.492   4.991  1.00  0.00    -0.280 N 
HETATM   17  H   UNL     1      45.363 -18.660   5.731  1.00  0.00     0.189 HD
HETATM   18  N   UNL     1      44.551 -19.426   4.047  1.00  0.00    -0.177 NA
HETATM   19  C   UNL     1      43.604 -18.939   3.233  1.00  0.00     0.079 A 
HETATM   20  C   UNL     1      43.238 -19.727   2.029  1.00  0.00     0.075 C 
ENDBRANCH   9  13
ENDBRANCH   1   7
BRANCH   4  21
HETATM   21  C   UNL     1      39.311 -11.941  -2.356  1.00  0.00     0.252 C 
HETATM   22  N   UNL     1      40.017 -10.768  -2.532  1.00  0.00    -0.352 N 
HETATM   23  H   UNL     1      40.866 -10.621  -2.006  1.00  0.00     0.163 HD
HETATM   24  O   UNL     1      38.349 -12.267  -3.040  1.00  0.00    -0.268 OA
BRANCH  22  25
HETATM   25  C   UNL     1      39.675  -9.801  -3.569  1.00  0.00     0.084 C 
HETATM   26  C   UNL     1      38.760  -8.693  -3.030  1.00  0.00     0.025 C 
HETATM   27  C   UNL     1      39.489  -7.741  -2.082  1.00  0.00     0.002 C 
HETATM   28  C   UNL     1      40.740  -7.154  -2.726  1.00  0.00     0.000 C 
HETATM   29  C   UNL     1      41.672  -8.243  -3.246  1.00  0.00     0.002 C 
HETATM   30  C   UNL     1      40.948  -9.205  -4.189  1.00  0.00     0.025 C 
ENDBRANCH  22  25
ENDBRANCH   4  21
TORSDOF 4
ENDMDL
MODEL 10
REMARK VINA RESULT:      -7.2     23.074     25.460
REMARK  4 active torsions:
REMARK  status: ('A' for Active; 'I' for Inactive)
REMARK    1  A    between atoms: C_8  and  N_9 
REMARK       I    between atoms: N_9  and  C_10 
REMARK       I    between atoms: C_10  and  N_11 
REMARK    2  A    between atoms: N_11  and  C_12 
REMARK    3  A    between atoms: C_15  and  C_16 
REMARK       I    between atoms: C_16  and  N_17 
REMARK    4  A    between atoms: N_17  and  C_18 
ROOT
HETATM    1  C   UNL     1      42.409  -7.967  11.498  1.00  0.00     0.036 A 
HETATM    2  C   UNL     1      41.838  -8.332  10.277  1.00  0.00     0.030 A 
HETATM    3  C   UNL     1      42.477  -9.253   9.438  1.00  0.00     0.019 A 
HETATM    4  C   UNL     1      43.706  -9.805   9.807  1.00  0.00     0.032 A 
HETATM    5  C   UNL     1      44.259  -9.480  11.050  1.00  0.00     0.019 A 
HETATM    6  C   UNL     1      43.615  -8.563  11.888  1.00  0.00     0.030 A 
ENDROOT
BRANCH   1   7
HETATM    7  N   UNL     1      41.874  -6.977  12.347  1.00  0.00    -0.309 N 
HETATM    8  C   UNL     1      40.637  -6.982  12.976  1.00  0.00     0.325 C 
HETATM    9  N   UNL     1      40.340  -5.710  13.437  1.00  0.00    -0.305 N 
HETATM   10  O   UNL     1      39.903  -7.955  13.069  1.00  0.00    -0.247 OA
HETATM   11  H   UNL     1      40.824  -4.954  12.980  1.00  0.00     0.171 HD
HETATM   12  H   UNL     1      42.491  -6.220  12.599  1.00  0.00     0.170 HD
BRANCH   9  13
HETATM   13  C   UNL     1      39.220  -5.344  14.165  1.00  0.00     0.086 A 
HETATM   14  C   UNL     1      39.275  -5.122  15.529  1.00  0.00     0.052 A 
HETATM   15  C   UNL     1      40.385  -5.172  16.508  1.00  0.00     0.072 C 
HETATM   16  N   UNL     1      38.009  -4.768  15.899  1.00  0.00    -0.280 N 
HETATM   17  H   UNL     1      37.673  -4.512  16.821  1.00  0.00     0.189 HD
HETATM   18  N   UNL     1      37.129  -4.779  14.894  1.00  0.00    -0.177 NA
HETATM   19  C   UNL     1      37.852  -5.134  13.822  1.00  0.00     0.079 A 
HETATM   20  C   UNL     1      37.152  -5.290  12.521  1.00  0.00     0.075 C 
ENDBRANCH   9  13
ENDBRANCH   1   7
BRANCH   4  21
HETATM   21  C   UNL     1      44.468 -10.714   8.908  1.00  0.00     0.252 C 
HETATM   22  N   UNL     1      43.713 -11.424   7.996  1.00  0.00    -0.352 N 
HETATM   23  H   UNL     1      42.720 -11.249   7.938  1.00  0.00     0.163 HD
HETATM   24  O   UNL     1      45.691 -10.758   8.963  1.00  0.00    -0.268 OA
BRANCH  22  25
HETATM   25  C   UNL     1      44.317 -12.299   6.998  1.00  0.00     0.084 C 
HETATM   26  C   UNL     1      43.467 -13.555   6.760  1.00  0.00     0.025 C 
HETATM   27  C   UNL     1      42.167 -13.251   6.019  1.00  0.00     0.002 C 
HETATM   28  C   UNL     1      42.424 -12.508   4.713  1.00  0.00     0.000 C 
HETATM   29  C   UNL     1      43.246 -11.242   4.935  1.00  0.00     0.002 C 
HETATM   30  C   UNL     1      44.546 -11.537   5.683  1.00  0.00     0.025 C 
ENDBRANCH  22  25
ENDBRANCH   4  21
TORSDOF 4
ENDMDL
