MODEL 1
REMARK VINA RESULT:      -7.7      0.000      0.000
REMARK  2 active torsions:
REMARK  status: ('A' for Active; 'I' for Inactive)
REMARK    1  A    between atoms: C_7  and  N_8 
REMARK       I    between atoms: N_8  and  C_9 
REMARK       I    between atoms: C_9  and  N_10 
REMARK    2  A    between atoms: N_10  and  C_11 
ROOT
HETATM    1  C   UNL     1      43.548 -19.034   2.653  1.00  0.00     0.025 A 
HETATM    2  C   UNL     1      43.853 -18.864   4.005  1.00  0.00     0.044 A 
HETATM    3  C   UNL     1      44.297 -19.978   4.792  1.00  0.00     0.099 C 
HETATM    4  N   UNL     1      44.654 -20.880   5.427  1.00  0.00    -0.191 NA
HETATM    5  C   UNL     1      43.719 -17.600   4.585  1.00  0.00     0.025 A 
HETATM    6  C   UNL     1      43.274 -16.513   3.821  1.00  0.00     0.031 A 
HETATM    7  C   UNL     1      42.956 -16.679   2.471  1.00  0.00     0.036 A 
HETATM    8  C   UNL     1      43.104 -17.947   1.893  1.00  0.00     0.031 A 
ENDROOT
BRANCH   7   9
HETATM    9  N   UNL     1      42.479 -15.645   1.639  1.00  0.00    -0.309 N 
HETATM   10  C   UNL     1      41.174 -15.369   1.302  1.00  0.00     0.321 C 
HETATM   11  N   UNL     1      41.104 -14.305   0.421  1.00  0.00    -0.338 N 
HETATM   12  O   UNL     1      40.170 -15.969   1.665  1.00  0.00    -0.247 OA
HETATM   13  H   UNL     1      41.877 -13.654   0.447  1.00  0.00     0.164 HD
HETATM   14  H   UNL     1      43.186 -15.119   1.148  1.00  0.00     0.170 HD
BRANCH  11  15
HETATM   15  C   UNL     1      39.850 -13.845  -0.167  1.00  0.00     0.089 C 
HETATM   16  C   UNL     1      39.597 -12.350   0.117  1.00  0.00     0.058 C 
HETATM   17  C   UNL     1      38.302 -11.909  -0.531  1.00  0.00     0.190 C 
HETATM   18  N   UNL     1      38.379 -12.201  -2.005  1.00  0.00    -0.067 N 
HETATM   19  C   UNL     1      38.007 -10.423  -0.538  1.00  0.00     0.035 C 
HETATM   20  H   UNL     1      39.247 -11.768  -2.363  1.00  0.00     0.280 HD
HETATM   21  C   UNL     1      38.464 -13.662  -2.300  1.00  0.00     0.237 C 
HETATM   22  C   UNL     1      37.239 -11.437  -2.627  1.00  0.00     0.235 C 
HETATM   23  C   UNL     1      39.740 -14.200  -1.663  1.00  0.00     0.053 C 
HETATM   24  C   UNL     1      36.974 -10.288  -1.654  1.00  0.00     0.030 C 
ENDBRANCH  11  15
ENDBRANCH   7   9
TORSDOF 2
ENDMDL
MODEL 2
REMARK VINA RESULT:      -7.5      5.531      7.717
REMARK  2 active torsions:
REMARK  status: ('A' for Active; 'I' for Inactive)
REMARK    1  A    between atoms: C_7  and  N_8 
REMARK       I    between atoms: N_8  and  C_9 
REMARK       I    between atoms: C_9  and  N_10 
REMARK    2  A    between atoms: N_10  and  C_11 
ROOT
HETATM    1  C   UNL     1      44.102 -18.181   4.307  1.00  0.00     0.025 A 
HETATM    2  C   UNL     1      43.574 -18.713   3.129  1.00  0.00     0.044 A 
HETATM    3  C   UNL     1      43.764 -20.098   2.811  1.00  0.00     0.099 C 
HETATM    4  N   UNL     1      43.921 -21.218   2.556  1.00  0.00    -0.191 NA
HETATM    5  C   UNL     1      42.860 -17.882   2.260  1.00  0.00     0.025 A 
HETATM    6  C   UNL     1      42.683 -16.525   2.562  1.00  0.00     0.031 A 
HETATM    7  C   UNL     1      43.219 -15.984   3.733  1.00  0.00     0.036 A 
HETATM    8  C   UNL     1      43.923 -16.826   4.606  1.00  0.00     0.031 A 
ENDROOT
BRANCH   7   9
HETATM    9  N   UNL     1      43.108 -14.627   4.100  1.00  0.00    -0.309 N 
HETATM   10  C   UNL     1      43.152 -14.091   5.366  1.00  0.00     0.321 C 
HETATM   11  N   UNL     1      42.955 -12.722   5.331  1.00  0.00    -0.338 N 
HETATM   12  O   UNL     1      43.300 -14.691   6.423  1.00  0.00    -0.247 OA
HETATM   13  H   UNL     1      43.196 -12.259   4.465  1.00  0.00     0.164 HD
HETATM   14  H   UNL     1      42.856 -13.993   3.356  1.00  0.00     0.170 HD
BRANCH  11  15
HETATM   15  C   UNL     1      42.873 -11.902   6.536  1.00  0.00     0.089 C 
HETATM   16  C   UNL     1      44.257 -11.690   7.182  1.00  0.00     0.058 C 
HETATM   17  C   UNL     1      44.128 -10.815   8.412  1.00  0.00     0.190 C 
HETATM   18  N   UNL     1      43.484  -9.517   8.011  1.00  0.00    -0.067 N 
HETATM   19  C   UNL     1      45.414 -10.325   9.045  1.00  0.00     0.035 C 
HETATM   20  H   UNL     1      44.028  -9.129   7.222  1.00  0.00     0.280 HD
HETATM   21  C   UNL     1      42.081  -9.692   7.531  1.00  0.00     0.237 C 
HETATM   22  C   UNL     1      43.703  -8.583   9.173  1.00  0.00     0.235 C 
HETATM   23  C   UNL     1      42.111 -10.584   6.295  1.00  0.00     0.053 C 
HETATM   24  C   UNL     1      44.951  -9.127   9.869  1.00  0.00     0.030 C 
ENDBRANCH  11  15
ENDBRANCH   7   9
TORSDOF 2
ENDMDL
MODEL 3
REMARK VINA RESULT:      -7.4      0.986      2.108
REMARK  2 active torsions:
REMARK  status: ('A' for Active; 'I' for Inactive)
REMARK    1  A    between atoms: C_7  and  N_8 
REMARK       I    between atoms: N_8  and  C_9 
REMARK       I    between atoms: C_9  and  N_10 
REMARK    2  A    between atoms: N_10  and  C_11 
ROOT
HETATM    1  C   UNL     1      43.667 -17.599   4.952  1.00  0.00     0.025 A 
HETATM    2  C   UNL     1      43.829 -18.804   4.267  1.00  0.00     0.044 A 
HETATM    3  C   UNL     1      44.153 -20.005   4.981  1.00  0.00     0.099 C 
HETATM    4  N   UNL     1      44.417 -20.974   5.561  1.00  0.00    -0.191 NA
HETATM    5  C   UNL     1      43.676 -18.829   2.878  1.00  0.00     0.025 A 
HETATM    6  C   UNL     1      43.371 -17.656   2.176  1.00  0.00     0.031 A 
HETATM    7  C   UNL     1      43.219 -16.444   2.855  1.00  0.00     0.036 A 
HETATM    8  C   UNL     1      43.362 -16.428   4.249  1.00  0.00     0.031 A 
ENDROOT
BRANCH   7   9
HETATM    9  N   UNL     1      42.937 -15.215   2.224  1.00  0.00    -0.309 N 
HETATM   10  C   UNL     1      41.803 -14.867   1.528  1.00  0.00     0.321 C 
HETATM   11  N   UNL     1      41.912 -13.589   1.008  1.00  0.00    -0.338 N 
HETATM   12  O   UNL     1      40.814 -15.559   1.324  1.00  0.00    -0.247 OA
HETATM   13  H   UNL     1      42.548 -12.966   1.489  1.00  0.00     0.164 HD
HETATM   14  H   UNL     1      43.702 -14.558   2.186  1.00  0.00     0.170 HD
BRANCH  11  15
HETATM   15  C   UNL     1      40.890 -12.989   0.157  1.00  0.00     0.089 C 
HETATM   16  C   UNL     1      40.434 -13.952  -0.958  1.00  0.00     0.058 C 
HETATM   17  C   UNL     1      39.357 -13.301  -1.800  1.00  0.00     0.190 C 
HETATM   18  N   UNL     1      38.222 -12.898  -0.899  1.00  0.00    -0.067 N 
HETATM   19  C   UNL     1      38.641 -14.181  -2.803  1.00  0.00     0.035 C 
HETATM   20  H   UNL     1      37.943 -13.732  -0.356  1.00  0.00     0.280 HD
HETATM   21  C   UNL     1      38.613 -11.845   0.085  1.00  0.00     0.237 C 
HETATM   22  C   UNL     1      37.069 -12.588  -1.818  1.00  0.00     0.235 C 
HETATM   23  C   UNL     1      39.716 -12.412   0.972  1.00  0.00     0.053 C 
HETATM   24  C   UNL     1      37.355 -13.405  -3.078  1.00  0.00     0.030 C 
ENDBRANCH  11  15
ENDBRANCH   7   9
TORSDOF 2
ENDMDL
MODEL 4
REMARK VINA RESULT:      -7.1      2.130      2.732
REMARK  2 active torsions:
REMARK  status: ('A' for Active; 'I' for Inactive)
REMARK    1  A    between atoms: C_7  and  N_8 
REMARK       I    between atoms: N_8  and  C_9 
REMARK       I    between atoms: C_9  and  N_10 
REMARK    2  A    between atoms: N_10  and  C_11 
ROOT
HETATM    1  C   UNL     1      41.092 -16.227   4.591  1.00  0.00     0.025 A 
HETATM    2  C   UNL     1      42.329 -16.868   4.516  1.00  0.00     0.044 A 
HETATM    3  C   UNL     1      42.980 -17.327   5.709  1.00  0.00     0.099 C 
HETATM    4  N   UNL     1      43.505 -17.695   6.675  1.00  0.00    -0.191 NA
HETATM    5  C   UNL     1      42.930 -17.057   3.268  1.00  0.00     0.025 A 
HETATM    6  C   UNL     1      42.303 -16.600   2.102  1.00  0.00     0.031 A 
HETATM    7  C   UNL     1      41.070 -15.947   2.171  1.00  0.00     0.036 A 
HETATM    8  C   UNL     1      40.467 -15.771   3.425  1.00  0.00     0.031 A 
ENDROOT
BRANCH   7   9
HETATM    9  N   UNL     1      40.383 -15.434   1.051  1.00  0.00    -0.309 N 
HETATM   10  C   UNL     1      40.229 -14.117   0.688  1.00  0.00     0.321 C 
HETATM   11  N   UNL     1      39.447 -14.003  -0.448  1.00  0.00    -0.338 N 
HETATM   12  O   UNL     1      40.664 -13.130   1.269  1.00  0.00    -0.247 OA
HETATM   13  H   UNL     1      39.429 -14.809  -1.058  1.00  0.00     0.164 HD
HETATM   14  H   UNL     1      39.852 -16.108   0.519  1.00  0.00     0.170 HD
BRANCH  11  15
HETATM   15  C   UNL     1      39.052 -12.717  -1.013  1.00  0.00     0.089 C 
HETATM   16  C   UNL     1      40.190 -12.078  -1.836  1.00  0.00     0.058 C 
HETATM   17  C   UNL     1      39.730 -10.761  -2.424  1.00  0.00     0.190 C 
HETATM   18  N   UNL     1      38.500 -11.010  -3.253  1.00  0.00    -0.067 N 
HETATM   19  C   UNL     1      40.643 -10.103  -3.438  1.00  0.00     0.035 C 
HETATM   20  H   UNL     1      38.724 -11.763  -3.925  1.00  0.00     0.280 HD
HETATM   21  C   UNL     1      37.339 -11.478  -2.439  1.00  0.00     0.237 C 
HETATM   22  C   UNL     1      38.307  -9.759  -4.072  1.00  0.00     0.235 C 
HETATM   23  C   UNL     1      37.723 -12.803  -1.788  1.00  0.00     0.053 C 
HETATM   24  C   UNL     1      39.704  -9.148  -4.170  1.00  0.00     0.030 C 
ENDBRANCH  11  15
ENDBRANCH   7   9
TORSDOF 2
ENDMDL
MODEL 5
REMARK VINA RESULT:      -7.1      1.522      9.156
REMARK  2 active torsions:
REMARK  status: ('A' for Active; 'I' for Inactive)
REMARK    1  A    between atoms: C_7  and  N_8 
REMARK       I    between atoms: N_8  and  C_9 
REMARK       I    between atoms: C_9  and  N_10 
REMARK    2  A    between atoms: N_10  and  C_11 
ROOT
HETATM    1  C   UNL     1      38.917 -12.202  -2.953  1.00  0.00     0.025 A 
HETATM    2  C   UNL     1      37.990 -11.372  -2.320  1.00  0.00     0.044 A 
HETATM    3  C   UNL     1      36.997 -10.678  -3.087  1.00  0.00     0.099 C 
HETATM    4  N   UNL     1      36.196 -10.117  -3.711  1.00  0.00    -0.191 NA
HETATM    5  C   UNL     1      38.040 -11.222  -0.931  1.00  0.00     0.025 A 
HETATM    6  C   UNL     1      39.016 -11.889  -0.180  1.00  0.00     0.031 A 
HETATM    7  C   UNL     1      39.954 -12.711  -0.809  1.00  0.00     0.036 A 
HETATM    8  C   UNL     1      39.891 -12.868  -2.201  1.00  0.00     0.031 A 
ENDROOT
BRANCH   7   9
HETATM    9  N   UNL     1      40.983 -13.399  -0.132  1.00  0.00    -0.309 N 
HETATM   10  C   UNL     1      40.853 -14.351   0.853  1.00  0.00     0.321 C 
HETATM   11  N   UNL     1      42.091 -14.760   1.313  1.00  0.00    -0.338 N 
HETATM   12  O   UNL     1      39.814 -14.788   1.331  1.00  0.00    -0.247 OA
HETATM   13  H   UNL     1      42.864 -14.651   0.669  1.00  0.00     0.164 HD
HETATM   14  H   UNL     1      41.920 -13.072  -0.315  1.00  0.00     0.170 HD
BRANCH  11  15
HETATM   15  C   UNL     1      42.256 -15.705   2.413  1.00  0.00     0.089 C 
HETATM   16  C   UNL     1      42.930 -17.013   1.952  1.00  0.00     0.058 C 
HETATM   17  C   UNL     1      43.103 -17.952   3.127  1.00  0.00     0.190 C 
HETATM   18  N   UNL     1      43.901 -17.247   4.189  1.00  0.00    -0.067 N 
HETATM   19  C   UNL     1      43.943 -19.192   2.899  1.00  0.00     0.035 C 
HETATM   20  H   UNL     1      44.767 -16.894   3.747  1.00  0.00     0.280 HD
HETATM   21  C   UNL     1      43.187 -16.066   4.759  1.00  0.00     0.237 C 
HETATM   22  C   UNL     1      44.329 -18.324   5.152  1.00  0.00     0.235 C 
HETATM   23  C   UNL     1      42.951 -15.067   3.632  1.00  0.00     0.053 C 
HETATM   24  C   UNL     1      44.330 -19.604   4.317  1.00  0.00     0.030 C 
ENDBRANCH  11  15
ENDBRANCH   7   9
TORSDOF 2
ENDMDL
MODEL 6
REMARK VINA RESULT:      -7.0      4.147      5.409
REMARK  2 active torsions:
REMARK  status: ('A' for Active; 'I' for Inactive)
REMARK    1  A    between atoms: C_7  and  N_8 
REMARK       I    between atoms: N_8  and  C_9 
REMARK       I    between atoms: C_9  and  N_10 
REMARK    2  A    between atoms: N_10  and  C_11 
ROOT
HETATM    1  C   UNL     1      42.854 -10.881   6.759  1.00  0.00     0.025 A 
HETATM    2  C   UNL     1      43.945 -11.603   7.248  1.00  0.00     0.044 A 
HETATM    3  C   UNL     1      44.798 -11.035   8.251  1.00  0.00     0.099 C 
HETATM    4  N   UNL     1      45.487 -10.573   9.061  1.00  0.00    -0.191 NA
HETATM    5  C   UNL     1      44.199 -12.883   6.748  1.00  0.00     0.025 A 
HETATM    6  C   UNL     1      43.375 -13.435   5.759  1.00  0.00     0.031 A 
HETATM    7  C   UNL     1      42.289 -12.713   5.257  1.00  0.00     0.036 A 
HETATM    8  C   UNL     1      42.032 -11.435   5.772  1.00  0.00     0.031 A 
ENDROOT
BRANCH   7   9
HETATM    9  N   UNL     1      41.426 -13.185   4.247  1.00  0.00    -0.309 N 
HETATM   10  C   UNL     1      41.365 -12.778   2.934  1.00  0.00     0.321 C 
HETATM   11  N   UNL     1      40.353 -13.435   2.258  1.00  0.00    -0.338 N 
HETATM   12  O   UNL     1      42.054 -11.926   2.387  1.00  0.00    -0.247 OA
HETATM   13  H   UNL     1      40.081 -14.336   2.630  1.00  0.00     0.164 HD
HETATM   14  H   UNL     1      40.698 -13.812   4.553  1.00  0.00     0.170 HD
BRANCH  11  15
HETATM   15  C   UNL     1      40.007 -13.144   0.870  1.00  0.00     0.089 C 
HETATM   16  C   UNL     1      39.813 -14.431   0.044  1.00  0.00     0.058 C 
HETATM   17  C   UNL     1      39.431 -14.084  -1.379  1.00  0.00     0.190 C 
HETATM   18  N   UNL     1      38.189 -13.236  -1.349  1.00  0.00    -0.067 N 
HETATM   19  C   UNL     1      38.989 -15.225  -2.272  1.00  0.00     0.035 C 
HETATM   20  H   UNL     1      37.480 -13.741  -0.790  1.00  0.00     0.280 HD
HETATM   21  C   UNL     1      38.408 -11.915  -0.689  1.00  0.00     0.237 C 
HETATM   22  C   UNL     1      37.676 -13.222  -2.766  1.00  0.00     0.235 C 
HETATM   23  C   UNL     1      38.818 -12.170   0.757  1.00  0.00     0.053 C 
HETATM   24  C   UNL     1      38.223 -14.510  -3.382  1.00  0.00     0.030 C 
ENDBRANCH  11  15
ENDBRANCH   7   9
TORSDOF 2
ENDMDL
MODEL 7
REMARK VINA RESULT:      -6.9      5.764      9.367
REMARK  2 active torsions:
REMARK  status: ('A' for Active; 'I' for Inactive)
REMARK    1  A    between atoms: C_7  and  N_8 
REMARK       I    between atoms: N_8  and  C_9 
REMARK       I    between atoms: C_9  and  N_10 
REMARK    2  A    between atoms: N_10  and  C_11 
ROOT
HETATM    1  C   UNL     1      42.458  -9.674   7.544  1.00  0.00     0.025 A 
HETATM    2  C   UNL     1      43.459  -9.465   8.494  1.00  0.00     0.044 A 
HETATM    3  C   UNL     1      43.385  -8.346   9.389  1.00  0.00     0.099 C 
HETATM    4  N   UNL     1      43.324  -7.440  10.109  1.00  0.00    -0.191 NA
HETATM    5  C   UNL     1      44.535 -10.353   8.564  1.00  0.00     0.025 A 
HETATM    6  C   UNL     1      44.616 -11.441   7.684  1.00  0.00     0.031 A 
HETATM    7  C   UNL     1      43.624 -11.649   6.723  1.00  0.00     0.036 A 
HETATM    8  C   UNL     1      42.541 -10.761   6.666  1.00  0.00     0.031 A 
ENDROOT
BRANCH   7   9
HETATM    9  N   UNL     1      43.641 -12.702   5.785  1.00  0.00    -0.309 N 
HETATM   10  C   UNL     1      43.239 -14.004   5.973  1.00  0.00     0.321 C 
HETATM   11  N   UNL     1      43.454 -14.759   4.834  1.00  0.00    -0.338 N 
HETATM   12  O   UNL     1      42.784 -14.501   6.996  1.00  0.00    -0.247 OA
HETATM   13  H   UNL     1      43.480 -14.249   3.961  1.00  0.00     0.164 HD
HETATM   14  H   UNL     1      44.105 -12.501   4.912  1.00  0.00     0.170 HD
BRANCH  11  15
HETATM   15  C   UNL     1      43.195 -16.194   4.774  1.00  0.00     0.089 C 
HETATM   16  C   UNL     1      43.295 -16.735   3.333  1.00  0.00     0.058 C 
HETATM   17  C   UNL     1      43.045 -18.228   3.319  1.00  0.00     0.190 C 
HETATM   18  N   UNL     1      44.033 -18.888   4.243  1.00  0.00    -0.067 N 
HETATM   19  C   UNL     1      43.319 -18.960   2.021  1.00  0.00     0.035 C 
HETATM   20  H   UNL     1      44.978 -18.574   3.965  1.00  0.00     0.280 HD
HETATM   21  C   UNL     1      43.841 -18.492   5.670  1.00  0.00     0.237 C 
HETATM   22  C   UNL     1      43.965 -20.358   3.921  1.00  0.00     0.235 C 
HETATM   23  C   UNL     1      44.057 -16.986   5.776  1.00  0.00     0.053 C 
HETATM   24  C   UNL     1      43.470 -20.410   2.475  1.00  0.00     0.030 C 
ENDBRANCH  11  15
ENDBRANCH   7   9
TORSDOF 2
ENDMDL
MODEL 8
REMARK VINA RESULT:      -6.9      5.046      5.988
REMARK  2 active torsions:
REMARK  status: ('A' for Active; 'I' for Inactive)
REMARK    1  A    between atoms: C_7  and  N_8 
REMARK       I    between atoms: N_8  and  C_9 
REMARK       I    between atoms: C_9  and  N_10 
REMARK    2  A    between atoms: N_10  and  C_11 
ROOT
HETATM    1  C   UNL     1      43.771 -18.058   4.260  1.00  0.00     0.025 A 
HETATM    2  C   UNL     1      43.508 -18.483   2.956  1.00  0.00     0.044 A 
HETATM    3  C   UNL     1      43.726 -19.850   2.582  1.00  0.00     0.099 C 
HETATM    4  N   UNL     1      43.906 -20.955   2.282  1.00  0.00    -0.191 NA
HETATM    5  C   UNL     1      43.032 -17.563   2.019  1.00  0.00     0.025 A 
HETATM    6  C   UNL     1      42.828 -16.224   2.378  1.00  0.00     0.031 A 
HETATM    7  C   UNL     1      43.101 -15.790   3.677  1.00  0.00     0.036 A 
HETATM    8  C   UNL     1      43.567 -16.721   4.616  1.00  0.00     0.031 A 
ENDROOT
BRANCH   7   9
HETATM    9  N   UNL     1      42.948 -14.458   4.115  1.00  0.00    -0.309 N 
HETATM   10  C   UNL     1      41.898 -13.920   4.822  1.00  0.00     0.321 C 
HETATM   11  N   UNL     1      42.080 -12.564   5.025  1.00  0.00    -0.338 N 
HETATM   12  O   UNL     1      40.891 -14.497   5.213  1.00  0.00    -0.247 OA
HETATM   13  H   UNL     1      43.037 -12.236   5.011  1.00  0.00     0.164 HD
HETATM   14  H   UNL     1      43.635 -13.804   3.772  1.00  0.00     0.170 HD
BRANCH  11  15
HETATM   15  C   UNL     1      41.084 -11.719   5.677  1.00  0.00     0.089 C 
HETATM   16  C   UNL     1      41.740 -10.615   6.532  1.00  0.00     0.058 C 
HETATM   17  C   UNL     1      40.674  -9.748   7.168  1.00  0.00     0.190 C 
HETATM   18  N   UNL     1      39.804  -9.182   6.080  1.00  0.00    -0.067 N 
HETATM   19  C   UNL     1      41.139  -8.485   7.863  1.00  0.00     0.035 C 
HETATM   20  H   UNL     1      40.424  -8.722   5.392  1.00  0.00     0.280 HD
HETATM   21  C   UNL     1      39.038 -10.234   5.347  1.00  0.00     0.237 C 
HETATM   22  C   UNL     1      39.009  -8.080   6.732  1.00  0.00     0.235 C 
HETATM   23  C   UNL     1      40.041 -11.172   4.684  1.00  0.00     0.053 C 
HETATM   24  C   UNL     1      39.868  -7.641   7.918  1.00  0.00     0.030 C 
ENDBRANCH  11  15
ENDBRANCH   7   9
TORSDOF 2
ENDMDL
MODEL 9
REMARK VINA RESULT:      -6.7      2.776      3.637
REMARK  2 active torsions:
REMARK  status: ('A' for Active; 'I' for Inactive)
REMARK    1  A    between atoms: C_7  and  N_8 
REMARK       I    between atoms: N_8  and  C_9 
REMARK       I    between atoms: C_9  and  N_10 
REMARK    2  A    between atoms: N_10  and  C_11 
ROOT
HETATM    1  C   UNL     1      42.363 -17.134   2.519  1.00  0.00     0.025 A 
HETATM    2  C   UNL     1      42.842 -17.306   3.819  1.00  0.00     0.044 A 
HETATM    3  C   UNL     1      43.907 -18.229   4.081  1.00  0.00     0.099 C 
HETATM    4  N   UNL     1      44.768 -18.978   4.291  1.00  0.00    -0.191 NA
HETATM    5  C   UNL     1      42.271 -16.573   4.862  1.00  0.00     0.025 A 
HETATM    6  C   UNL     1      41.222 -15.679   4.611  1.00  0.00     0.031 A 
HETATM    7  C   UNL     1      40.731 -15.511   3.314  1.00  0.00     0.036 A 
HETATM    8  C   UNL     1      41.316 -16.241   2.270  1.00  0.00     0.031 A 
ENDROOT
BRANCH   7   9
HETATM    9  N   UNL     1      39.664 -14.652   2.978  1.00  0.00    -0.309 N 
HETATM   10  C   UNL     1      39.738 -13.373   2.476  1.00  0.00     0.321 C 
HETATM   11  N   UNL     1      38.477 -12.828   2.320  1.00  0.00    -0.338 N 
HETATM   12  O   UNL     1      40.750 -12.733   2.220  1.00  0.00    -0.247 OA
HETATM   13  H   UNL     1      37.719 -13.486   2.199  1.00  0.00     0.164 HD
HETATM   14  H   UNL     1      38.745 -14.974   3.242  1.00  0.00     0.170 HD
BRANCH  11  15
HETATM   15  C   UNL     1      38.256 -11.454   1.880  1.00  0.00     0.089 C 
HETATM   16  C   UNL     1      36.896 -11.289   1.171  1.00  0.00     0.058 C 
HETATM   17  C   UNL     1      36.698  -9.847   0.755  1.00  0.00     0.190 C 
HETATM   18  N   UNL     1      36.810  -8.976   1.976  1.00  0.00    -0.067 N 
HETATM   19  C   UNL     1      35.326  -9.462   0.241  1.00  0.00     0.035 C 
HETATM   20  H   UNL     1      36.156  -9.347   2.685  1.00  0.00     0.280 HD
HETATM   21  C   UNL     1      38.175  -9.004   2.581  1.00  0.00     0.237 C 
HETATM   22  C   UNL     1      36.266  -7.632   1.564  1.00  0.00     0.235 C 
HETATM   23  C   UNL     1      38.470 -10.435   3.016  1.00  0.00     0.053 C 
HETATM   24  C   UNL     1      35.315  -7.944   0.408  1.00  0.00     0.030 C 
ENDBRANCH  11  15
ENDBRANCH   7   9
TORSDOF 2
ENDMDL
MODEL 10
REMARK VINA RESULT:      -6.6     14.971     17.008
REMARK  2 active torsions:
REMARK  status: ('A' for Active; 'I' for Inactive)
REMARK    1  A    between atoms: C_7  and  N_8 
REMARK       I    between atoms: N_8  and  C_9 
REMARK       I    between atoms: C_9  and  N_10 
REMARK    2  A    between atoms: N_10  and  C_11 
ROOT
HETATM    1  C   UNL     1      49.763 -32.628   6.058  1.00  0.00     0.025 A 
HETATM    2  C   UNL     1      51.096 -32.261   6.248  1.00  0.00     0.044 A 
HETATM    3  C   UNL     1      51.915 -32.969   7.189  1.00  0.00     0.099 C 
HETATM    4  N   UNL     1      52.574 -33.541   7.952  1.00  0.00    -0.191 NA
HETATM    5  C   UNL     1      51.626 -31.196   5.514  1.00  0.00     0.025 A 
HETATM    6  C   UNL     1      50.826 -30.495   4.602  1.00  0.00     0.031 A 
HETATM    7  C   UNL     1      49.487 -30.849   4.417  1.00  0.00     0.036 A 
HETATM    8  C   UNL     1      48.966 -31.926   5.147  1.00  0.00     0.031 A 
ENDROOT
BRANCH   7   9
HETATM    9  N   UNL     1      48.608 -30.182   3.539  1.00  0.00    -0.309 N 
HETATM   10  C   UNL     1      48.475 -30.364   2.182  1.00  0.00     0.321 C 
HETATM   11  N   UNL     1      47.542 -29.489   1.654  1.00  0.00    -0.338 N 
HETATM   12  O   UNL     1      49.095 -31.145   1.472  1.00  0.00    -0.247 OA
HETATM   13  H   UNL     1      46.837 -29.149   2.295  1.00  0.00     0.164 HD
HETATM   14  H   UNL     1      48.099 -29.407   3.937  1.00  0.00     0.170 HD
BRANCH  11  15
HETATM   15  C   UNL     1      47.255 -29.403   0.225  1.00  0.00     0.089 C 
HETATM   16  C   UNL     1      45.812 -29.843  -0.098  1.00  0.00     0.058 C 
HETATM   17  C   UNL     1      45.550 -29.714  -1.584  1.00  0.00     0.190 C 
HETATM   18  N   UNL     1      45.816 -28.292  -1.996  1.00  0.00    -0.067 N 
HETATM   19  C   UNL     1      44.120 -29.895  -2.048  1.00  0.00     0.035 C 
HETATM   20  H   UNL     1      45.263 -27.679  -1.374  1.00  0.00     0.280 HD
HETATM   21  C   UNL     1      47.248 -27.903  -1.836  1.00  0.00     0.237 C 
HETATM   22  C   UNL     1      45.212 -28.152  -3.370  1.00  0.00     0.235 C 
HETATM   23  C   UNL     1      47.609 -28.022  -0.360  1.00  0.00     0.053 C 
HETATM   24  C   UNL     1      44.120 -29.220  -3.417  1.00  0.00     0.030 C 
ENDBRANCH  11  15
ENDBRANCH   7   9
TORSDOF 2
ENDMDL
