MODEL 1
REMARK VINA RESULT:      -7.8      0.000      0.000
REMARK  8 active torsions:
REMARK  status: ('A' for Active; 'I' for Inactive)
REMARK    1  A    between atoms: C_2  and  O_3 
REMARK    2  A    between atoms: O_3  and  C_4 
REMARK    3  A    between atoms: C_5  and  O_6 
REMARK    4  A    between atoms: C_9  and  C_10 
REMARK    5  A    between atoms: C_10  and  N_11 
REMARK       I    between atoms: N_11  and  C_12 
REMARK    6  A    between atoms: C_12  and  C_13 
REMARK    7  A    between atoms: C_14  and  N_15 
REMARK       I    between atoms: N_15  and  C_16 
REMARK    8  A    between atoms: C_16  and  C_17 
ROOT
HETATM    1  C   UNL     1      43.765 -18.381   4.386  1.00  0.00     0.058 A 
HETATM    2  C   UNL     1      43.269 -17.982   3.120  1.00  0.00     0.050 A 
HETATM    3  C   UNL     1      43.165 -18.944   2.108  1.00  0.00     0.030 A 
HETATM    4  C   UNL     1      43.521 -20.275   2.340  1.00  0.00     0.002 A 
HETATM    5  C   UNL     1      43.981 -20.669   3.591  1.00  0.00     0.001 A 
HETATM    6  C   UNL     1      44.098 -19.729   4.613  1.00  0.00     0.019 A 
ENDROOT
BRANCH   1   7
HETATM    7  C   UNL     1      43.886 -17.390   5.502  1.00  0.00     0.254 C 
HETATM    8  N   UNL     1      42.790 -17.222   6.322  1.00  0.00    -0.353 N 
HETATM    9  H   UNL     1      41.995 -17.839   6.250  1.00  0.00     0.163 HD
HETATM   10  O   UNL     1      44.942 -16.787   5.676  1.00  0.00    -0.268 OA
BRANCH   8  11
HETATM   11  C   UNL     1      42.778 -16.242   7.384  1.00  0.00     0.161 C 
BRANCH  11  12
HETATM   12  C   UNL     1      42.315 -14.899   6.884  1.00  0.00    -0.038 A 
HETATM   13  C   UNL     1      43.207 -13.818   6.786  1.00  0.00     0.048 A 
HETATM   14  C   UNL     1      42.782 -12.552   6.343  1.00  0.00     0.102 A 
HETATM   15  C   UNL     1      41.432 -12.374   5.990  1.00  0.00     0.102 A 
HETATM   16  C   UNL     1      40.550 -13.462   6.074  1.00  0.00     0.040 A 
HETATM   17  C   UNL     1      40.981 -14.709   6.520  1.00  0.00     0.012 A 
BRANCH  14  18
HETATM   18  O   UNL     1      43.632 -11.487   6.209  1.00  0.00    -0.353 OA
HETATM   19  C   UNL     1      45.016 -11.693   6.456  1.00  0.00     0.210 C 
ENDBRANCH  14  18
BRANCH  15  20
HETATM   20  O   UNL     1      40.810 -11.242   5.534  1.00  0.00    -0.349 OA
BRANCH  20  21
HETATM   21  C   UNL     1      39.482 -11.343   5.032  1.00  0.00     0.171 C 
HETATM   22  C   UNL     1      38.610 -10.387   5.829  1.00  0.00     0.034 C 
ENDBRANCH  20  21
ENDBRANCH  15  20
ENDBRANCH  11  12
ENDBRANCH   8  11
ENDBRANCH   1   7
BRANCH   2  23
HETATM   23  N   UNL     1      42.909 -16.629   2.907  1.00  0.00    -0.321 N 
HETATM   24  C   UNL     1      41.731 -15.989   3.227  1.00  0.00     0.265 C 
HETATM   25  O   UNL     1      40.765 -16.461   3.816  1.00  0.00    -0.267 OA
HETATM   26  H   UNL     1      43.647 -16.040   2.513  1.00  0.00     0.169 HD
BRANCH  24  27
HETATM   27  C   UNL     1      41.728 -14.548   2.799  1.00  0.00     0.097 C 
HETATM   28  S   UNL     1      43.263 -13.739   2.928  1.00  0.00    -0.120 SA
HETATM   29  C   UNL     1      42.743 -12.046   2.554  1.00  0.00     0.106 C 
HETATM   30  C   UNL     1      41.726 -12.079   1.430  1.00  0.00     0.185 C 
HETATM   31  O   UNL     1      40.498 -12.681   1.850  1.00  0.00    -0.353 OA
HETATM   32  C   UNL     1      40.595 -13.977   2.336  1.00  0.00     0.064 C 
HETATM   33  C   UNL     1      39.255 -14.665   2.324  1.00  0.00     0.078 C 
ENDBRANCH  24  27
ENDBRANCH   2  23
TORSDOF 8
ENDMDL
MODEL 2
REMARK VINA RESULT:      -7.7      2.987      6.819
REMARK  8 active torsions:
REMARK  status: ('A' for Active; 'I' for Inactive)
REMARK    1  A    between atoms: C_2  and  O_3 
REMARK    2  A    between atoms: O_3  and  C_4 
REMARK    3  A    between atoms: C_5  and  O_6 
REMARK    4  A    between atoms: C_9  and  C_10 
REMARK    5  A    between atoms: C_10  and  N_11 
REMARK       I    between atoms: N_11  and  C_12 
REMARK    6  A    between atoms: C_12  and  C_13 
REMARK    7  A    between atoms: C_14  and  N_15 
REMARK       I    between atoms: N_15  and  C_16 
REMARK    8  A    between atoms: C_16  and  C_17 
ROOT
HETATM    1  C   UNL     1      40.004 -13.417   3.612  1.00  0.00     0.058 A 
HETATM    2  C   UNL     1      39.251 -12.430   2.928  1.00  0.00     0.050 A 
HETATM    3  C   UNL     1      38.848 -11.288   3.630  1.00  0.00     0.030 A 
HETATM    4  C   UNL     1      39.193 -11.109   4.973  1.00  0.00     0.002 A 
HETATM    5  C   UNL     1      39.955 -12.066   5.634  1.00  0.00     0.001 A 
HETATM    6  C   UNL     1      40.364 -13.214   4.957  1.00  0.00     0.019 A 
ENDROOT
BRANCH   1   7
HETATM    7  C   UNL     1      40.465 -14.652   2.901  1.00  0.00     0.254 C 
HETATM    8  N   UNL     1      41.730 -14.631   2.354  1.00  0.00    -0.353 N 
HETATM    9  H   UNL     1      42.362 -13.867   2.545  1.00  0.00     0.163 HD
HETATM   10  O   UNL     1      39.736 -15.639   2.848  1.00  0.00    -0.268 OA
BRANCH   8  11
HETATM   11  C   UNL     1      42.246 -15.743   1.587  1.00  0.00     0.161 C 
BRANCH  11  12
HETATM   12  C   UNL     1      42.926 -16.752   2.475  1.00  0.00    -0.038 A 
HETATM   13  C   UNL     1      43.463 -16.376   3.717  1.00  0.00     0.048 A 
HETATM   14  C   UNL     1      44.121 -17.303   4.545  1.00  0.00     0.102 A 
HETATM   15  C   UNL     1      44.237 -18.637   4.113  1.00  0.00     0.102 A 
HETATM   16  C   UNL     1      43.683 -19.010   2.880  1.00  0.00     0.040 A 
HETATM   17  C   UNL     1      43.039 -18.081   2.065  1.00  0.00     0.012 A 
BRANCH  14  18
HETATM   18  O   UNL     1      44.630 -16.974   5.773  1.00  0.00    -0.353 OA
HETATM   19  C   UNL     1      44.087 -15.849   6.450  1.00  0.00     0.210 C 
ENDBRANCH  14  18
BRANCH  15  20
HETATM   20  O   UNL     1      44.826 -19.695   4.754  1.00  0.00    -0.349 OA
BRANCH  20  21
HETATM   21  C   UNL     1      43.994 -20.679   5.359  1.00  0.00     0.171 C 
HETATM   22  C   UNL     1      43.322 -20.042   6.564  1.00  0.00     0.034 C 
ENDBRANCH  20  21
ENDBRANCH  15  20
ENDBRANCH  11  12
ENDBRANCH   8  11
ENDBRANCH   1   7
BRANCH   2  23
HETATM   23  N   UNL     1      38.916 -12.629   1.566  1.00  0.00    -0.321 N 
HETATM   24  C   UNL     1      39.692 -12.418   0.447  1.00  0.00     0.265 C 
HETATM   25  O   UNL     1      40.864 -12.058   0.412  1.00  0.00    -0.267 OA
HETATM   26  H   UNL     1      37.993 -13.037   1.402  1.00  0.00     0.169 HD
BRANCH  24  27
HETATM   27  C   UNL     1      38.952 -12.715  -0.827  1.00  0.00     0.097 C 
HETATM   28  S   UNL     1      39.236 -14.299  -1.491  1.00  0.00    -0.120 SA
HETATM   29  C   UNL     1      38.372 -14.122  -3.071  1.00  0.00     0.106 C 
HETATM   30  C   UNL     1      37.085 -13.352  -2.846  1.00  0.00     0.185 C 
HETATM   31  O   UNL     1      37.342 -11.990  -2.495  1.00  0.00    -0.353 OA
HETATM   32  C   UNL     1      38.124 -11.794  -1.366  1.00  0.00     0.064 C 
HETATM   33  C   UNL     1      37.967 -10.394  -0.831  1.00  0.00     0.078 C 
ENDBRANCH  24  27
ENDBRANCH   2  23
TORSDOF 8
ENDMDL
MODEL 3
REMARK VINA RESULT:      -7.6      2.943      4.512
REMARK  8 active torsions:
REMARK  status: ('A' for Active; 'I' for Inactive)
REMARK    1  A    between atoms: C_2  and  O_3 
REMARK    2  A    between atoms: O_3  and  C_4 
REMARK    3  A    between atoms: C_5  and  O_6 
REMARK    4  A    between atoms: C_9  and  C_10 
REMARK    5  A    between atoms: C_10  and  N_11 
REMARK       I    between atoms: N_11  and  C_12 
REMARK    6  A    between atoms: C_12  and  C_13 
REMARK    7  A    between atoms: C_14  and  N_15 
REMARK       I    between atoms: N_15  and  C_16 
REMARK    8  A    between atoms: C_16  and  C_17 
ROOT
HETATM    1  C   UNL     1      42.811 -14.992   3.189  1.00  0.00     0.058 A 
HETATM    2  C   UNL     1      42.522 -15.442   1.876  1.00  0.00     0.050 A 
HETATM    3  C   UNL     1      42.780 -16.779   1.554  1.00  0.00     0.030 A 
HETATM    4  C   UNL     1      43.294 -17.664   2.506  1.00  0.00     0.002 A 
HETATM    5  C   UNL     1      43.551 -17.227   3.801  1.00  0.00     0.001 A 
HETATM    6  C   UNL     1      43.306 -15.899   4.145  1.00  0.00     0.019 A 
ENDROOT
BRANCH   1   7
HETATM    7  C   UNL     1      42.543 -13.573   3.584  1.00  0.00     0.254 C 
HETATM    8  N   UNL     1      43.581 -12.675   3.460  1.00  0.00    -0.353 N 
HETATM    9  H   UNL     1      44.438 -12.939   2.996  1.00  0.00     0.163 HD
HETATM   10  O   UNL     1      41.425 -13.244   3.971  1.00  0.00    -0.268 OA
BRANCH   8  11
HETATM   11  C   UNL     1      43.450 -11.297   3.879  1.00  0.00     0.161 C 
BRANCH  11  12
HETATM   12  C   UNL     1      43.637 -11.157   5.367  1.00  0.00    -0.038 A 
HETATM   13  C   UNL     1      42.710 -10.449   6.148  1.00  0.00     0.048 A 
HETATM   14  C   UNL     1      42.885 -10.291   7.535  1.00  0.00     0.102 A 
HETATM   15  C   UNL     1      44.017 -10.861   8.145  1.00  0.00     0.102 A 
HETATM   16  C   UNL     1      44.930 -11.582   7.362  1.00  0.00     0.040 A 
HETATM   17  C   UNL     1      44.750 -11.727   5.988  1.00  0.00     0.012 A 
BRANCH  14  18
HETATM   18  O   UNL     1      41.986  -9.630   8.328  1.00  0.00    -0.353 OA
HETATM   19  C   UNL     1      41.982  -8.209   8.306  1.00  0.00     0.210 C 
ENDBRANCH  14  18
BRANCH  15  20
HETATM   20  O   UNL     1      44.380 -10.835   9.466  1.00  0.00    -0.349 OA
BRANCH  20  21
HETATM   21  C   UNL     1      45.060  -9.689   9.969  1.00  0.00     0.171 C 
HETATM   22  C   UNL     1      44.233  -9.124  11.112  1.00  0.00     0.034 C 
ENDBRANCH  20  21
ENDBRANCH  15  20
ENDBRANCH  11  12
ENDBRANCH   8  11
ENDBRANCH   1   7
BRANCH   2  23
HETATM   23  N   UNL     1      41.997 -14.530   0.928  1.00  0.00    -0.321 N 
HETATM   24  C   UNL     1      40.687 -14.156   0.724  1.00  0.00     0.265 C 
HETATM   25  O   UNL     1      39.705 -14.505   1.370  1.00  0.00    -0.267 OA
HETATM   26  H   UNL     1      42.696 -14.047   0.357  1.00  0.00     0.169 HD
BRANCH  24  27
HETATM   27  C   UNL     1      40.539 -13.186  -0.414  1.00  0.00     0.097 C 
HETATM   28  S   UNL     1      40.148 -13.907  -1.950  1.00  0.00    -0.120 SA
HETATM   29  C   UNL     1      40.305 -12.452  -3.014  1.00  0.00     0.106 C 
HETATM   30  C   UNL     1      39.716 -11.251  -2.298  1.00  0.00     0.185 C 
HETATM   31  O   UNL     1      40.504 -10.876  -1.166  1.00  0.00    -0.353 OA
HETATM   32  C   UNL     1      40.688 -11.860  -0.205  1.00  0.00     0.064 C 
HETATM   33  C   UNL     1      41.122 -11.264   1.109  1.00  0.00     0.078 C 
ENDBRANCH  24  27
ENDBRANCH   2  23
TORSDOF 8
ENDMDL
MODEL 4
REMARK VINA RESULT:      -7.5      3.855      8.282
REMARK  8 active torsions:
REMARK  status: ('A' for Active; 'I' for Inactive)
REMARK    1  A    between atoms: C_2  and  O_3 
REMARK    2  A    between atoms: O_3  and  C_4 
REMARK    3  A    between atoms: C_5  and  O_6 
REMARK    4  A    between atoms: C_9  and  C_10 
REMARK    5  A    between atoms: C_10  and  N_11 
REMARK       I    between atoms: N_11  and  C_12 
REMARK    6  A    between atoms: C_12  and  C_13 
REMARK    7  A    between atoms: C_14  and  N_15 
REMARK       I    between atoms: N_15  and  C_16 
REMARK    8  A    between atoms: C_16  and  C_17 
ROOT
HETATM    1  C   UNL     1      44.398 -11.407   7.219  1.00  0.00     0.058 A 
HETATM    2  C   UNL     1      44.509 -10.583   8.367  1.00  0.00     0.050 A 
HETATM    3  C   UNL     1      45.742  -9.982   8.645  1.00  0.00     0.030 A 
HETATM    4  C   UNL     1      46.841 -10.170   7.802  1.00  0.00     0.002 A 
HETATM    5  C   UNL     1      46.722 -10.957   6.662  1.00  0.00     0.001 A 
HETATM    6  C   UNL     1      45.506 -11.569   6.367  1.00  0.00     0.019 A 
ENDROOT
BRANCH   1   7
HETATM    7  C   UNL     1      43.097 -12.064   6.876  1.00  0.00     0.254 C 
HETATM    8  N   UNL     1      43.072 -13.442   6.847  1.00  0.00    -0.353 N 
HETATM    9  H   UNL     1      43.862 -13.978   7.175  1.00  0.00     0.163 HD
HETATM   10  O   UNL     1      42.101 -11.378   6.663  1.00  0.00    -0.268 OA
BRANCH   8  11
HETATM   11  C   UNL     1      41.887 -14.173   6.459  1.00  0.00     0.161 C 
BRANCH  11  12
HETATM   12  C   UNL     1      42.184 -15.146   5.347  1.00  0.00    -0.038 A 
HETATM   13  C   UNL     1      41.325 -15.264   4.242  1.00  0.00     0.048 A 
HETATM   14  C   UNL     1      41.577 -16.185   3.209  1.00  0.00     0.102 A 
HETATM   15  C   UNL     1      42.721 -17.000   3.292  1.00  0.00     0.102 A 
HETATM   16  C   UNL     1      43.584 -16.865   4.389  1.00  0.00     0.040 A 
HETATM   17  C   UNL     1      43.320 -15.954   5.409  1.00  0.00     0.012 A 
BRANCH  14  18
HETATM   18  O   UNL     1      40.775 -16.304   2.107  1.00  0.00    -0.353 OA
HETATM   19  C   UNL     1      39.797 -15.301   1.871  1.00  0.00     0.210 C 
ENDBRANCH  14  18
BRANCH  15  20
HETATM   20  O   UNL     1      43.158 -17.950   2.406  1.00  0.00    -0.349 OA
BRANCH  20  21
HETATM   21  C   UNL     1      43.865 -19.080   2.907  1.00  0.00     0.171 C 
HETATM   22  C   UNL     1      43.520 -20.270   2.026  1.00  0.00     0.034 C 
ENDBRANCH  20  21
ENDBRANCH  15  20
ENDBRANCH  11  12
ENDBRANCH   8  11
ENDBRANCH   1   7
BRANCH   2  23
HETATM   23  N   UNL     1      43.381 -10.402   9.205  1.00  0.00    -0.321 N 
HETATM   24  C   UNL     1      42.794  -9.226   9.620  1.00  0.00     0.265 C 
HETATM   25  O   UNL     1      43.106  -8.085   9.297  1.00  0.00    -0.267 OA
HETATM   26  H   UNL     1      42.912 -11.264   9.494  1.00  0.00     0.169 HD
BRANCH  24  27
HETATM   27  C   UNL     1      41.631  -9.461  10.542  1.00  0.00     0.097 C 
HETATM   28  S   UNL     1      42.058  -9.778  12.200  1.00  0.00    -0.120 SA
HETATM   29  C   UNL     1      40.428 -10.221  12.851  1.00  0.00     0.106 C 
HETATM   30  C   UNL     1      39.389  -9.295  12.249  1.00  0.00     0.185 C 
HETATM   31  O   UNL     1      39.222  -9.531  10.848  1.00  0.00    -0.353 OA
HETATM   32  C   UNL     1      40.365  -9.400  10.073  1.00  0.00     0.064 C 
HETATM   33  C   UNL     1      40.020  -9.222   8.618  1.00  0.00     0.078 C 
ENDBRANCH  24  27
ENDBRANCH   2  23
TORSDOF 8
ENDMDL
MODEL 5
REMARK VINA RESULT:      -7.4      4.036      8.026
REMARK  8 active torsions:
REMARK  status: ('A' for Active; 'I' for Inactive)
REMARK    1  A    between atoms: C_2  and  O_3 
REMARK    2  A    between atoms: O_3  and  C_4 
REMARK    3  A    between atoms: C_5  and  O_6 
REMARK    4  A    between atoms: C_9  and  C_10 
REMARK    5  A    between atoms: C_10  and  N_11 
REMARK       I    between atoms: N_11  and  C_12 
REMARK    6  A    between atoms: C_12  and  C_13 
REMARK    7  A    between atoms: C_14  and  N_15 
REMARK       I    between atoms: N_15  and  C_16 
REMARK    8  A    between atoms: C_16  and  C_17 
ROOT
HETATM    1  C   UNL     1      43.600 -11.136   6.840  1.00  0.00     0.058 A 
HETATM    2  C   UNL     1      43.993 -10.712   8.133  1.00  0.00     0.050 A 
HETATM    3  C   UNL     1      45.360 -10.596   8.414  1.00  0.00     0.030 A 
HETATM    4  C   UNL     1      46.321 -10.873   7.438  1.00  0.00     0.002 A 
HETATM    5  C   UNL     1      45.932 -11.263   6.162  1.00  0.00     0.001 A 
HETATM    6  C   UNL     1      44.578 -11.390   5.860  1.00  0.00     0.019 A 
ENDROOT
BRANCH   1   7
HETATM    7  C   UNL     1      42.150 -11.267   6.490  1.00  0.00     0.254 C 
HETATM    8  N   UNL     1      41.625 -12.540   6.430  1.00  0.00    -0.353 N 
HETATM    9  H   UNL     1      42.164 -13.334   6.741  1.00  0.00     0.163 HD
HETATM   10  O   UNL     1      41.471 -10.261   6.298  1.00  0.00    -0.268 OA
BRANCH   8  11
HETATM   11  C   UNL     1      40.256 -12.781   6.033  1.00  0.00     0.161 C 
BRANCH  11  12
HETATM   12  C   UNL     1      40.186 -13.454   4.688  1.00  0.00    -0.038 A 
HETATM   13  C   UNL     1      40.832 -14.680   4.459  1.00  0.00     0.048 A 
HETATM   14  C   UNL     1      40.794 -15.308   3.201  1.00  0.00     0.102 A 
HETATM   15  C   UNL     1      40.088 -14.688   2.154  1.00  0.00     0.102 A 
HETATM   16  C   UNL     1      39.430 -13.473   2.393  1.00  0.00     0.040 A 
HETATM   17  C   UNL     1      39.480 -12.857   3.642  1.00  0.00     0.012 A 
BRANCH  14  18
HETATM   18  O   UNL     1      41.390 -16.515   2.954  1.00  0.00    -0.353 OA
HETATM   19  C   UNL     1      42.521 -16.883   3.732  1.00  0.00     0.210 C 
ENDBRANCH  14  18
BRANCH  15  20
HETATM   20  O   UNL     1      39.918 -15.120   0.865  1.00  0.00    -0.349 OA
BRANCH  20  21
HETATM   21  C   UNL     1      40.208 -14.223  -0.203  1.00  0.00     0.171 C 
HETATM   22  C   UNL     1      39.329 -14.607  -1.382  1.00  0.00     0.034 C 
ENDBRANCH  20  21
ENDBRANCH  15  20
ENDBRANCH  11  12
ENDBRANCH   8  11
ENDBRANCH   1   7
BRANCH   2  23
HETATM   23  N   UNL     1      43.003 -10.432   9.106  1.00  0.00    -0.321 N 
HETATM   24  C   UNL     1      42.624  -9.213   9.627  1.00  0.00     0.265 C 
HETATM   25  O   UNL     1      43.042  -8.106   9.306  1.00  0.00    -0.267 OA
HETATM   26  H   UNL     1      42.461 -11.242   9.420  1.00  0.00     0.169 HD
BRANCH  24  27
HETATM   27  C   UNL     1      41.554  -9.345  10.673  1.00  0.00     0.097 C 
HETATM   28  S   UNL     1      42.121  -9.805  12.253  1.00  0.00    -0.120 SA
HETATM   29  C   UNL     1      40.533 -10.066  13.079  1.00  0.00     0.106 C 
HETATM   30  C   UNL     1      39.566  -8.982  12.644  1.00  0.00     0.185 C 
HETATM   31  O   UNL     1      39.209  -9.117  11.266  1.00  0.00    -0.353 OA
HETATM   32  C   UNL     1      40.263  -9.095  10.364  1.00  0.00     0.064 C 
HETATM   33  C   UNL     1      39.779  -8.795   8.969  1.00  0.00     0.078 C 
ENDBRANCH  24  27
ENDBRANCH   2  23
TORSDOF 8
ENDMDL
MODEL 6
REMARK VINA RESULT:      -7.4      1.736      2.180
REMARK  8 active torsions:
REMARK  status: ('A' for Active; 'I' for Inactive)
REMARK    1  A    between atoms: C_2  and  O_3 
REMARK    2  A    between atoms: O_3  and  C_4 
REMARK    3  A    between atoms: C_5  and  O_6 
REMARK    4  A    between atoms: C_9  and  C_10 
REMARK    5  A    between atoms: C_10  and  N_11 
REMARK       I    between atoms: N_11  and  C_12 
REMARK    6  A    between atoms: C_12  and  C_13 
REMARK    7  A    between atoms: C_14  and  N_15 
REMARK       I    between atoms: N_15  and  C_16 
REMARK    8  A    between atoms: C_16  and  C_17 
ROOT
HETATM    1  C   UNL     1      43.111 -17.837   4.839  1.00  0.00     0.058 A 
HETATM    2  C   UNL     1      42.961 -17.687   3.438  1.00  0.00     0.050 A 
HETATM    3  C   UNL     1      43.458 -18.692   2.599  1.00  0.00     0.030 A 
HETATM    4  C   UNL     1      44.072 -19.832   3.126  1.00  0.00     0.002 A 
HETATM    5  C   UNL     1      44.194 -19.989   4.502  1.00  0.00     0.001 A 
HETATM    6  C   UNL     1      43.712 -19.000   5.357  1.00  0.00     0.019 A 
ENDROOT
BRANCH   1   7
HETATM    7  C   UNL     1      42.589 -16.793   5.776  1.00  0.00     0.254 C 
HETATM    8  N   UNL     1      43.515 -16.037   6.462  1.00  0.00    -0.353 N 
HETATM    9  H   UNL     1      44.497 -16.098   6.237  1.00  0.00     0.163 HD
HETATM   10  O   UNL     1      41.378 -16.618   5.888  1.00  0.00    -0.268 OA
BRANCH   8  11
HETATM   11  C   UNL     1      43.118 -15.052   7.443  1.00  0.00     0.161 C 
BRANCH  11  12
HETATM   12  C   UNL     1      43.026 -13.678   6.832  1.00  0.00    -0.038 A 
HETATM   13  C   UNL     1      44.143 -12.826   6.798  1.00  0.00     0.048 A 
HETATM   14  C   UNL     1      44.064 -11.532   6.252  1.00  0.00     0.102 A 
HETATM   15  C   UNL     1      42.836 -11.090   5.727  1.00  0.00     0.102 A 
HETATM   16  C   UNL     1      41.730 -11.952   5.747  1.00  0.00     0.040 A 
HETATM   17  C   UNL     1      41.818 -13.229   6.297  1.00  0.00     0.012 A 
BRANCH  14  18
HETATM   18  O   UNL     1      45.140 -10.689   6.179  1.00  0.00    -0.353 OA
HETATM   19  C   UNL     1      46.006 -10.599   7.303  1.00  0.00     0.210 C 
ENDBRANCH  14  18
BRANCH  15  20
HETATM   20  O   UNL     1      42.539  -9.885   5.149  1.00  0.00    -0.349 OA
BRANCH  20  21
HETATM   21  C   UNL     1      41.173  -9.499   5.029  1.00  0.00     0.171 C 
HETATM   22  C   UNL     1      40.949  -9.023   3.603  1.00  0.00     0.034 C 
ENDBRANCH  20  21
ENDBRANCH  15  20
ENDBRANCH  11  12
ENDBRANCH   8  11
ENDBRANCH   1   7
BRANCH   2  23
HETATM   23  N   UNL     1      42.331 -16.527   2.925  1.00  0.00    -0.321 N 
HETATM   24  C   UNL     1      42.746 -15.699   1.904  1.00  0.00     0.265 C 
HETATM   25  O   UNL     1      43.735 -15.835   1.192  1.00  0.00    -0.267 OA
HETATM   26  H   UNL     1      41.419 -16.312   3.335  1.00  0.00     0.169 HD
BRANCH  24  27
HETATM   27  C   UNL     1      41.810 -14.544   1.687  1.00  0.00     0.097 C 
HETATM   28  S   UNL     1      40.357 -14.930   0.808  1.00  0.00    -0.120 SA
HETATM   29  C   UNL     1      39.688 -13.263   0.587  1.00  0.00     0.106 C 
HETATM   30  C   UNL     1      39.900 -12.473   1.864  1.00  0.00     0.185 C 
HETATM   31  O   UNL     1      41.286 -12.207   2.094  1.00  0.00    -0.353 OA
HETATM   32  C   UNL     1      42.110 -13.321   2.176  1.00  0.00     0.064 C 
HETATM   33  C   UNL     1      43.415 -12.985   2.848  1.00  0.00     0.078 C 
ENDBRANCH  24  27
ENDBRANCH   2  23
TORSDOF 8
ENDMDL
MODEL 7
REMARK VINA RESULT:      -7.3      4.060      7.406
REMARK  8 active torsions:
REMARK  status: ('A' for Active; 'I' for Inactive)
REMARK    1  A    between atoms: C_2  and  O_3 
REMARK    2  A    between atoms: O_3  and  C_4 
REMARK    3  A    between atoms: C_5  and  O_6 
REMARK    4  A    between atoms: C_9  and  C_10 
REMARK    5  A    between atoms: C_10  and  N_11 
REMARK       I    between atoms: N_11  and  C_12 
REMARK    6  A    between atoms: C_12  and  C_13 
REMARK    7  A    between atoms: C_14  and  N_15 
REMARK       I    between atoms: N_15  and  C_16 
REMARK    8  A    between atoms: C_16  and  C_17 
ROOT
HETATM    1  C   UNL     1      39.954 -13.681  -0.951  1.00  0.00     0.058 A 
HETATM    2  C   UNL     1      39.825 -12.728  -1.991  1.00  0.00     0.050 A 
HETATM    3  C   UNL     1      39.207 -13.118  -3.185  1.00  0.00     0.030 A 
HETATM    4  C   UNL     1      38.708 -14.413  -3.348  1.00  0.00     0.002 A 
HETATM    5  C   UNL     1      38.812 -15.339  -2.316  1.00  0.00     0.001 A 
HETATM    6  C   UNL     1      39.427 -14.975  -1.119  1.00  0.00     0.019 A 
ENDROOT
BRANCH   1   7
HETATM    7  C   UNL     1      40.599 -13.308   0.348  1.00  0.00     0.254 C 
HETATM    8  N   UNL     1      41.797 -13.916   0.657  1.00  0.00    -0.353 N 
HETATM    9  H   UNL     1      42.278 -14.483  -0.026  1.00  0.00     0.163 HD
HETATM   10  O   UNL     1      40.075 -12.469   1.075  1.00  0.00    -0.268 OA
BRANCH   8  11
HETATM   11  C   UNL     1      42.468 -13.680   1.916  1.00  0.00     0.161 C 
BRANCH  11  12
HETATM   12  C   UNL     1      42.789 -14.975   2.616  1.00  0.00    -0.038 A 
HETATM   13  C   UNL     1      43.004 -15.012   4.004  1.00  0.00     0.048 A 
HETATM   14  C   UNL     1      43.328 -16.209   4.666  1.00  0.00     0.102 A 
HETATM   15  C   UNL     1      43.434 -17.394   3.914  1.00  0.00     0.102 A 
HETATM   16  C   UNL     1      43.201 -17.353   2.532  1.00  0.00     0.040 A 
HETATM   17  C   UNL     1      42.888 -16.160   1.886  1.00  0.00     0.012 A 
BRANCH  14  18
HETATM   18  O   UNL     1      43.516 -16.283   6.020  1.00  0.00    -0.353 OA
HETATM   19  C   UNL     1      42.370 -16.315   6.861  1.00  0.00     0.210 C 
ENDBRANCH  14  18
BRANCH  15  20
HETATM   20  O   UNL     1      43.730 -18.658   4.350  1.00  0.00    -0.349 OA
BRANCH  20  21
HETATM   21  C   UNL     1      43.994 -19.672   3.385  1.00  0.00     0.171 C 
HETATM   22  C   UNL     1      43.888 -21.017   4.085  1.00  0.00     0.034 C 
ENDBRANCH  20  21
ENDBRANCH  15  20
ENDBRANCH  11  12
ENDBRANCH   8  11
ENDBRANCH   1   7
BRANCH   2  23
HETATM   23  N   UNL     1      40.334 -11.419  -1.804  1.00  0.00    -0.321 N 
HETATM   24  C   UNL     1      39.667 -10.215  -1.878  1.00  0.00     0.265 C 
HETATM   25  O   UNL     1      38.469 -10.040  -2.074  1.00  0.00    -0.267 OA
HETATM   26  H   UNL     1      41.316 -11.372  -1.521  1.00  0.00     0.169 HD
BRANCH  24  27
HETATM   27  C   UNL     1      40.577  -9.042  -1.651  1.00  0.00     0.097 C 
HETATM   28  S   UNL     1      40.719  -8.530   0.007  1.00  0.00    -0.120 SA
HETATM   29  C   UNL     1      41.675  -7.012  -0.227  1.00  0.00     0.106 C 
HETATM   30  C   UNL     1      42.731  -7.253  -1.289  1.00  0.00     0.185 C 
HETATM   31  O   UNL     1      42.145  -7.436  -2.581  1.00  0.00    -0.353 OA
HETATM   32  C   UNL     1      41.230  -8.474  -2.688  1.00  0.00     0.064 C 
HETATM   33  C   UNL     1      41.019  -8.867  -4.127  1.00  0.00     0.078 C 
ENDBRANCH  24  27
ENDBRANCH   2  23
TORSDOF 8
ENDMDL
MODEL 8
REMARK VINA RESULT:      -7.3      3.636      7.178
REMARK  8 active torsions:
REMARK  status: ('A' for Active; 'I' for Inactive)
REMARK    1  A    between atoms: C_2  and  O_3 
REMARK    2  A    between atoms: O_3  and  C_4 
REMARK    3  A    between atoms: C_5  and  O_6 
REMARK    4  A    between atoms: C_9  and  C_10 
REMARK    5  A    between atoms: C_10  and  N_11 
REMARK       I    between atoms: N_11  and  C_12 
REMARK    6  A    between atoms: C_12  and  C_13 
REMARK    7  A    between atoms: C_14  and  N_15 
REMARK       I    between atoms: N_15  and  C_16 
REMARK    8  A    between atoms: C_16  and  C_17 
ROOT
HETATM    1  C   UNL     1      39.413 -13.617  -0.497  1.00  0.00     0.058 A 
HETATM    2  C   UNL     1      38.712 -12.462  -0.923  1.00  0.00     0.050 A 
HETATM    3  C   UNL     1      38.036 -12.501  -2.148  1.00  0.00     0.030 A 
HETATM    4  C   UNL     1      38.033 -13.658  -2.933  1.00  0.00     0.002 A 
HETATM    5  C   UNL     1      38.699 -14.799  -2.500  1.00  0.00     0.001 A 
HETATM    6  C   UNL     1      39.382 -14.783  -1.286  1.00  0.00     0.019 A 
ENDROOT
BRANCH   1   7
HETATM    7  C   UNL     1      40.142 -13.627   0.810  1.00  0.00     0.254 C 
HETATM    8  N   UNL     1      39.697 -14.503   1.777  1.00  0.00    -0.353 N 
HETATM    9  H   UNL     1      38.998 -15.198   1.560  1.00  0.00     0.163 HD
HETATM   10  O   UNL     1      41.114 -12.894   0.976  1.00  0.00    -0.268 OA
BRANCH   8  11
HETATM   11  C   UNL     1      40.286 -14.543   3.097  1.00  0.00     0.161 C 
BRANCH  11  12
HETATM   12  C   UNL     1      41.325 -15.628   3.201  1.00  0.00    -0.038 A 
HETATM   13  C   UNL     1      42.131 -15.750   4.345  1.00  0.00     0.048 A 
HETATM   14  C   UNL     1      43.120 -16.745   4.444  1.00  0.00     0.102 A 
HETATM   15  C   UNL     1      43.298 -17.636   3.370  1.00  0.00     0.102 A 
HETATM   16  C   UNL     1      42.478 -17.520   2.238  1.00  0.00     0.040 A 
HETATM   17  C   UNL     1      41.506 -16.526   2.148  1.00  0.00     0.012 A 
BRANCH  14  18
HETATM   18  O   UNL     1      43.902 -16.907   5.556  1.00  0.00    -0.353 OA
HETATM   19  C   UNL     1      43.404 -17.703   6.623  1.00  0.00     0.210 C 
ENDBRANCH  14  18
BRANCH  15  20
HETATM   20  O   UNL     1      44.188 -18.671   3.257  1.00  0.00    -0.349 OA
BRANCH  20  21
HETATM   21  C   UNL     1      43.760 -19.879   2.636  1.00  0.00     0.171 C 
HETATM   22  C   UNL     1      43.870 -20.993   3.664  1.00  0.00     0.034 C 
ENDBRANCH  20  21
ENDBRANCH  15  20
ENDBRANCH  11  12
ENDBRANCH   8  11
ENDBRANCH   1   7
BRANCH   2  23
HETATM   23  N   UNL     1      38.724 -11.302  -0.111  1.00  0.00    -0.321 N 
HETATM   24  C   UNL     1      37.786 -10.881   0.807  1.00  0.00     0.265 C 
HETATM   25  O   UNL     1      36.762 -11.465   1.145  1.00  0.00    -0.267 OA
HETATM   26  H   UNL     1      39.571 -10.732  -0.180  1.00  0.00     0.169 HD
BRANCH  24  27
HETATM   27  C   UNL     1      38.152  -9.567   1.439  1.00  0.00     0.097 C 
HETATM   28  S   UNL     1      37.691  -8.158   0.527  1.00  0.00    -0.120 SA
HETATM   29  C   UNL     1      38.515  -6.881   1.510  1.00  0.00     0.106 C 
HETATM   30  C   UNL     1      38.356  -7.212   2.981  1.00  0.00     0.185 C 
HETATM   31  O   UNL     1      39.093  -8.383   3.340  1.00  0.00    -0.353 OA
HETATM   32  C   UNL     1      38.775  -9.537   2.637  1.00  0.00     0.064 C 
HETATM   33  C   UNL     1      39.253 -10.767   3.364  1.00  0.00     0.078 C 
ENDBRANCH  24  27
ENDBRANCH   2  23
TORSDOF 8
ENDMDL
MODEL 9
REMARK VINA RESULT:      -7.2      2.199      4.849
REMARK  8 active torsions:
REMARK  status: ('A' for Active; 'I' for Inactive)
REMARK    1  A    between atoms: C_2  and  O_3 
REMARK    2  A    between atoms: O_3  and  C_4 
REMARK    3  A    between atoms: C_5  and  O_6 
REMARK    4  A    between atoms: C_9  and  C_10 
REMARK    5  A    between atoms: C_10  and  N_11 
REMARK       I    between atoms: N_11  and  C_12 
REMARK    6  A    between atoms: C_12  and  C_13 
REMARK    7  A    between atoms: C_14  and  N_15 
REMARK       I    between atoms: N_15  and  C_16 
REMARK    8  A    between atoms: C_16  and  C_17 
ROOT
HETATM    1  C   UNL     1      42.261 -16.992   2.974  1.00  0.00     0.058 A 
HETATM    2  C   UNL     1      43.217 -16.582   3.936  1.00  0.00     0.050 A 
HETATM    3  C   UNL     1      44.288 -17.436   4.224  1.00  0.00     0.030 A 
HETATM    4  C   UNL     1      44.429 -18.661   3.566  1.00  0.00     0.002 A 
HETATM    5  C   UNL     1      43.505 -19.049   2.602  1.00  0.00     0.001 A 
HETATM    6  C   UNL     1      42.428 -18.218   2.302  1.00  0.00     0.019 A 
ENDROOT
BRANCH   1   7
HETATM    7  C   UNL     1      41.103 -16.109   2.626  1.00  0.00     0.254 C 
HETATM    8  N   UNL     1      41.090 -15.549   1.366  1.00  0.00    -0.353 N 
HETATM    9  H   UNL     1      41.763 -15.833   0.670  1.00  0.00     0.163 HD
HETATM   10  O   UNL     1      40.199 -15.932   3.439  1.00  0.00    -0.268 OA
BRANCH   8  11
HETATM   11  C   UNL     1      40.056 -14.627   0.954  1.00  0.00     0.161 C 
BRANCH  11  12
HETATM   12  C   UNL     1      40.609 -13.242   0.744  1.00  0.00    -0.038 A 
HETATM   13  C   UNL     1      40.968 -12.433   1.835  1.00  0.00     0.048 A 
HETATM   14  C   UNL     1      41.464 -11.130   1.652  1.00  0.00     0.102 A 
HETATM   15  C   UNL     1      41.603 -10.633   0.344  1.00  0.00     0.102 A 
HETATM   16  C   UNL     1      41.261 -11.452  -0.742  1.00  0.00     0.040 A 
HETATM   17  C   UNL     1      40.764 -12.739  -0.549  1.00  0.00     0.012 A 
BRANCH  14  18
HETATM   18  O   UNL     1      41.847 -10.328   2.693  1.00  0.00    -0.353 OA
HETATM   19  C   UNL     1      40.903  -9.405   3.219  1.00  0.00     0.210 C 
ENDBRANCH  14  18
BRANCH  15  20
HETATM   20  O   UNL     1      42.066  -9.409  -0.061  1.00  0.00    -0.349 OA
BRANCH  20  21
HETATM   21  C   UNL     1      41.271  -8.636  -0.955  1.00  0.00     0.171 C 
HETATM   22  C   UNL     1      40.254  -7.868  -0.126  1.00  0.00     0.034 C 
ENDBRANCH  20  21
ENDBRANCH  15  20
ENDBRANCH  11  12
ENDBRANCH   8  11
ENDBRANCH   1   7
BRANCH   2  23
HETATM   23  N   UNL     1      43.057 -15.335   4.588  1.00  0.00    -0.321 N 
HETATM   24  C   UNL     1      42.628 -15.081   5.873  1.00  0.00     0.265 C 
HETATM   25  O   UNL     1      42.344 -15.902   6.738  1.00  0.00    -0.267 OA
HETATM   26  H   UNL     1      43.354 -14.520   4.045  1.00  0.00     0.169 HD
BRANCH  24  27
HETATM   27  C   UNL     1      42.560 -13.610   6.173  1.00  0.00     0.097 C 
HETATM   28  S   UNL     1      44.055 -12.898   6.709  1.00  0.00    -0.120 SA
HETATM   29  C   UNL     1      43.458 -11.251   7.163  1.00  0.00     0.106 C 
HETATM   30  C   UNL     1      42.449 -10.790   6.129  1.00  0.00     0.185 C 
HETATM   31  O   UNL     1      41.248 -11.564   6.184  1.00  0.00    -0.353 OA
HETATM   32  C   UNL     1      41.403 -12.932   6.005  1.00  0.00     0.064 C 
HETATM   33  C   UNL     1      40.097 -13.584   5.635  1.00  0.00     0.078 C 
ENDBRANCH  24  27
ENDBRANCH   2  23
TORSDOF 8
ENDMDL
MODEL 10
REMARK VINA RESULT:      -7.2      1.958      4.183
REMARK  8 active torsions:
REMARK  status: ('A' for Active; 'I' for Inactive)
REMARK    1  A    between atoms: C_2  and  O_3 
REMARK    2  A    between atoms: O_3  and  C_4 
REMARK    3  A    between atoms: C_5  and  O_6 
REMARK    4  A    between atoms: C_9  and  C_10 
REMARK    5  A    between atoms: C_10  and  N_11 
REMARK       I    between atoms: N_11  and  C_12 
REMARK    6  A    between atoms: C_12  and  C_13 
REMARK    7  A    between atoms: C_14  and  N_15 
REMARK       I    between atoms: N_15  and  C_16 
REMARK    8  A    between atoms: C_16  and  C_17 
ROOT
HETATM    1  C   UNL     1      43.254 -17.262   2.943  1.00  0.00     0.058 A 
HETATM    2  C   UNL     1      43.426 -16.988   4.323  1.00  0.00     0.050 A 
HETATM    3  C   UNL     1      43.840 -18.025   5.166  1.00  0.00     0.030 A 
HETATM    4  C   UNL     1      44.099 -19.303   4.662  1.00  0.00     0.002 A 
HETATM    5  C   UNL     1      43.956 -19.563   3.304  1.00  0.00     0.001 A 
HETATM    6  C   UNL     1      43.540 -18.548   2.445  1.00  0.00     0.019 A 
ENDROOT
BRANCH   1   7
HETATM    7  C   UNL     1      42.821 -16.183   2.000  1.00  0.00     0.254 C 
HETATM    8  N   UNL     1      41.472 -16.075   1.737  1.00  0.00    -0.353 N 
HETATM    9  H   UNL     1      40.800 -16.614   2.264  1.00  0.00     0.163 HD
HETATM   10  O   UNL     1      43.653 -15.419   1.518  1.00  0.00    -0.268 OA
BRANCH   8  11
HETATM   11  C   UNL     1      40.955 -15.114   0.789  1.00  0.00     0.161 C 
BRANCH  11  12
HETATM   12  C   UNL     1      40.701 -13.781   1.444  1.00  0.00    -0.038 A 
HETATM   13  C   UNL     1      41.475 -12.656   1.116  1.00  0.00     0.048 A 
HETATM   14  C   UNL     1      41.263 -11.412   1.737  1.00  0.00     0.102 A 
HETATM   15  C   UNL     1      40.249 -11.301   2.705  1.00  0.00     0.102 A 
HETATM   16  C   UNL     1      39.468 -12.423   3.015  1.00  0.00     0.040 A 
HETATM   17  C   UNL     1      39.691 -13.652   2.399  1.00  0.00     0.012 A 
BRANCH  14  18
HETATM   18  O   UNL     1      41.981 -10.290   1.419  1.00  0.00    -0.353 OA
HETATM   19  C   UNL     1      41.651  -9.591   0.227  1.00  0.00     0.210 C 
ENDBRANCH  14  18
BRANCH  15  20
HETATM   20  O   UNL     1      39.871 -10.197   3.423  1.00  0.00    -0.349 OA
BRANCH  20  21
HETATM   21  C   UNL     1      38.522  -9.748   3.332  1.00  0.00     0.171 C 
HETATM   22  C   UNL     1      38.381  -8.964   2.038  1.00  0.00     0.034 C 
ENDBRANCH  20  21
ENDBRANCH  15  20
ENDBRANCH  11  12
ENDBRANCH   8  11
ENDBRANCH   1   7
BRANCH   2  23
HETATM   23  N   UNL     1      43.162 -15.685   4.811  1.00  0.00    -0.321 N 
HETATM   24  C   UNL     1      43.352 -15.185   6.082  1.00  0.00     0.265 C 
HETATM   25  O   UNL     1      43.843 -15.765   7.043  1.00  0.00    -0.267 OA
HETATM   26  H   UNL     1      42.840 -15.015   4.109  1.00  0.00     0.169 HD
BRANCH  24  27
HETATM   27  C   UNL     1      42.910 -13.754   6.206  1.00  0.00     0.097 C 
HETATM   28  S   UNL     1      44.191 -12.609   6.484  1.00  0.00    -0.120 SA
HETATM   29  C   UNL     1      43.205 -11.124   6.795  1.00  0.00     0.106 C 
HETATM   30  C   UNL     1      42.036 -11.096   5.829  1.00  0.00     0.185 C 
HETATM   31  O   UNL     1      41.098 -12.139   6.109  1.00  0.00    -0.353 OA
HETATM   32  C   UNL     1      41.604 -13.430   6.082  1.00  0.00     0.064 C 
HETATM   33  C   UNL     1      40.500 -14.445   5.940  1.00  0.00     0.078 C 
ENDBRANCH  24  27
ENDBRANCH   2  23
TORSDOF 8
ENDMDL
