MODEL 1
REMARK VINA RESULT:      -9.3      0.000      0.000
REMARK  6 active torsions:
REMARK  status: ('A' for Active; 'I' for Inactive)
REMARK    1  A    between atoms: O_2  and  C_3 
REMARK    2  A    between atoms: C_5  and  O_6 
REMARK    3  A    between atoms: C_9  and  N_10 
REMARK       I    between atoms: N_10  and  C_11 
REMARK    4  A    between atoms: C_11  and  C_12 
REMARK    5  A    between atoms: C_12  and  N_13 
REMARK    6  A    between atoms: C_19  and  C_20 
ROOT
HETATM    1  N   UNL     1      41.809 -10.934   7.069  1.00  0.00    -0.063 N 
HETATM    2  H   UNL     1      41.543 -11.397   7.958  1.00  0.00     0.280 HD
HETATM    3  C   UNL     1      40.834 -11.423   6.023  1.00  0.00     0.240 C 
HETATM    4  C   UNL     1      41.014 -12.911   5.787  1.00  0.00     0.083 C 
HETATM    5  C   UNL     1      42.459 -13.260   5.434  1.00  0.00     0.131 A 
HETATM    6  N   UNL     1      42.570 -14.739   5.396  1.00  0.00    -0.251 NA
HETATM    7  C   UNL     1      42.942 -15.068   4.186  1.00  0.00     0.132 A 
HETATM    8  C   UNL     1      43.106 -13.852   3.305  1.00  0.00     0.272 A 
HETATM    9  O   UNL     1      43.396 -13.802   2.135  1.00  0.00    -0.266 OA
HETATM   10  N   UNL     1      42.825 -12.805   4.128  1.00  0.00    -0.327 N 
HETATM   11  C   UNL     1      43.414 -12.746   6.511  1.00  0.00     0.083 C 
HETATM   12  C   UNL     1      43.243 -11.257   6.754  1.00  0.00     0.240 C 
HETATM   13  H   UNL     1      42.830 -11.867   3.748  1.00  0.00     0.165 HD
ENDROOT
BRANCH   1  14
HETATM   14  C   UNL     1      41.617  -9.436   7.370  1.00  0.00     0.337 C 
BRANCH  14  15
HETATM   15  C   UNL     1      41.119  -9.223   8.802  1.00  0.00     0.248 C 
HETATM   16  N   UNL     1      42.097  -9.355   9.764  1.00  0.00    -0.326 N 
HETATM   17  H   UNL     1      43.048  -9.555   9.472  1.00  0.00     0.169 HD
HETATM   18  O   UNL     1      39.942  -8.905   8.963  1.00  0.00    -0.271 OA
BRANCH  16  19
HETATM   19  C   UNL     1      41.949  -9.189  11.161  1.00  0.00     0.040 A 
HETATM   20  C   UNL     1      42.692  -8.289  11.929  1.00  0.00     0.066 A 
HETATM   21  C   UNL     1      42.474  -8.195  13.308  1.00  0.00     0.073 A 
HETATM   22  C   UNL     1      41.520  -9.014  13.922  1.00  0.00     0.073 A 
HETATM   23  C   UNL     1      40.775  -9.915  13.169  1.00  0.00     0.073 A 
HETATM   24  C   UNL     1      40.986  -9.987  11.790  1.00  0.00     0.066 A 
BRANCH  21  25
HETATM   25  O   UNL     1      43.124  -7.351  14.167  1.00  0.00    -0.356 OA
HETATM   26  C   UNL     1      42.508  -7.091  15.421  1.00  0.00     0.210 C 
ENDBRANCH  21  25
BRANCH  23  27
HETATM   27  O   UNL     1      39.822 -10.773  13.641  1.00  0.00    -0.356 OA
HETATM   28  C   UNL     1      38.939 -11.346  12.682  1.00  0.00     0.210 C 
ENDBRANCH  23  27
ENDBRANCH  16  19
ENDBRANCH  14  15
ENDBRANCH   1  14
BRANCH   7  29
HETATM   29  C   UNL     1      43.162 -16.460   3.745  1.00  0.00    -0.002 A 
HETATM   30  C   UNL     1      43.946 -17.301   4.549  1.00  0.00     0.016 A 
HETATM   31  C   UNL     1      44.180 -18.627   4.172  1.00  0.00     0.024 A 
HETATM   32  C   UNL     1      43.636 -19.116   2.987  1.00  0.00     0.034 A 
HETATM   33 CL   UNL     1      43.921 -20.746   2.522  1.00  0.00    -0.084 Cl
HETATM   34  C   UNL     1      42.862 -18.288   2.177  1.00  0.00     0.024 A 
HETATM   35  C   UNL     1      42.625 -16.962   2.553  1.00  0.00     0.016 A 
ENDBRANCH   7  29
TORSDOF 6
ENDMDL
MODEL 2
REMARK VINA RESULT:      -8.7      1.859      2.366
REMARK  6 active torsions:
REMARK  status: ('A' for Active; 'I' for Inactive)
REMARK    1  A    between atoms: O_2  and  C_3 
REMARK    2  A    between atoms: C_5  and  O_6 
REMARK    3  A    between atoms: C_9  and  N_10 
REMARK       I    between atoms: N_10  and  C_11 
REMARK    4  A    between atoms: C_11  and  C_12 
REMARK    5  A    between atoms: C_12  and  N_13 
REMARK    6  A    between atoms: C_19  and  C_20 
ROOT
HETATM    1  N   UNL     1      41.043 -11.249   6.740  1.00  0.00    -0.063 N 
HETATM    2  H   UNL     1      40.810 -11.703   7.643  1.00  0.00     0.280 HD
HETATM    3  C   UNL     1      40.159 -11.891   5.696  1.00  0.00     0.240 C 
HETATM    4  C   UNL     1      40.515 -13.357   5.530  1.00  0.00     0.083 C 
HETATM    5  C   UNL     1      41.999 -13.550   5.223  1.00  0.00     0.131 A 
HETATM    6  N   UNL     1      42.280 -15.007   5.253  1.00  0.00    -0.251 NA
HETATM    7  C   UNL     1      42.719 -15.340   4.067  1.00  0.00     0.132 A 
HETATM    8  C   UNL     1      42.765 -14.151   3.136  1.00  0.00     0.272 A 
HETATM    9  O   UNL     1      43.078 -14.116   1.972  1.00  0.00    -0.266 OA
HETATM   10  N   UNL     1      42.344 -13.109   3.907  1.00  0.00    -0.327 N 
HETATM   11  C   UNL     1      42.860 -12.885   6.297  1.00  0.00     0.083 C 
HETATM   12  C   UNL     1      42.513 -11.417   6.471  1.00  0.00     0.240 C 
HETATM   13  H   UNL     1      42.252 -12.194   3.486  1.00  0.00     0.165 HD
ENDROOT
BRANCH   1  14
HETATM   14  C   UNL     1      40.673  -9.773   6.971  1.00  0.00     0.337 C 
BRANCH  14  15
HETATM   15  C   UNL     1      39.864  -9.604   8.260  1.00  0.00     0.248 C 
HETATM   16  N   UNL     1      40.461  -8.787   9.196  1.00  0.00    -0.326 N 
HETATM   17  H   UNL     1      41.349  -8.351   8.971  1.00  0.00     0.169 HD
HETATM   18  O   UNL     1      38.762 -10.145   8.325  1.00  0.00    -0.271 OA
BRANCH  16  19
HETATM   19  C   UNL     1      39.946  -8.421  10.461  1.00  0.00     0.040 A 
HETATM   20  C   UNL     1      38.905  -7.510  10.654  1.00  0.00     0.066 A 
HETATM   21  C   UNL     1      38.462  -7.211  11.947  1.00  0.00     0.073 A 
HETATM   22  C   UNL     1      39.074  -7.813  13.052  1.00  0.00     0.073 A 
HETATM   23  C   UNL     1      40.113  -8.721  12.874  1.00  0.00     0.073 A 
HETATM   24  C   UNL     1      40.534  -9.028  11.579  1.00  0.00     0.066 A 
BRANCH  21  25
HETATM   25  O   UNL     1      37.449  -6.349  12.269  1.00  0.00    -0.356 OA
HETATM   26  C   UNL     1      37.611  -5.553  13.436  1.00  0.00     0.210 C 
ENDBRANCH  21  25
BRANCH  23  27
HETATM   27  O   UNL     1      40.797  -9.372  13.861  1.00  0.00    -0.356 OA
HETATM   28  C   UNL     1      41.565  -8.567  14.750  1.00  0.00     0.210 C 
ENDBRANCH  23  27
ENDBRANCH  16  19
ENDBRANCH  14  15
ENDBRANCH   1  14
BRANCH   7  29
HETATM   29  C   UNL     1      43.108 -16.714   3.692  1.00  0.00    -0.002 A 
HETATM   30  C   UNL     1      42.553 -17.273   2.531  1.00  0.00     0.016 A 
HETATM   31  C   UNL     1      42.894 -18.570   2.135  1.00  0.00     0.024 A 
HETATM   32  C   UNL     1      43.787 -19.315   2.900  1.00  0.00     0.034 A 
HETATM   33 CL   UNL     1      44.208 -20.909   2.415  1.00  0.00    -0.084 Cl
HETATM   34  C   UNL     1      44.340 -18.773   4.058  1.00  0.00     0.024 A 
HETATM   35  C   UNL     1      44.001 -17.475   4.455  1.00  0.00     0.016 A 
ENDBRANCH   7  29
TORSDOF 6
ENDMDL
MODEL 3
REMARK VINA RESULT:      -8.5      4.104     10.356
REMARK  6 active torsions:
REMARK  status: ('A' for Active; 'I' for Inactive)
REMARK    1  A    between atoms: O_2  and  C_3 
REMARK    2  A    between atoms: C_5  and  O_6 
REMARK    3  A    between atoms: C_9  and  N_10 
REMARK       I    between atoms: N_10  and  C_11 
REMARK    4  A    between atoms: C_11  and  C_12 
REMARK    5  A    between atoms: C_12  and  N_13 
REMARK    6  A    between atoms: C_19  and  C_20 
ROOT
HETATM    1  N   UNL     1      41.297 -11.589   3.943  1.00  0.00    -0.063 N 
HETATM    2  H   UNL     1      40.372 -11.124   3.875  1.00  0.00     0.280 HD
HETATM    3  C   UNL     1      41.237 -12.486   5.157  1.00  0.00     0.240 C 
HETATM    4  C   UNL     1      41.094 -11.658   6.421  1.00  0.00     0.083 C 
HETATM    5  C   UNL     1      42.195 -10.605   6.538  1.00  0.00     0.131 A 
HETATM    6  N   UNL     1      41.871  -9.741   7.700  1.00  0.00    -0.251 NA
HETATM    7  C   UNL     1      42.861  -9.846   8.547  1.00  0.00     0.132 A 
HETATM    8  C   UNL     1      43.929 -10.788   8.041  1.00  0.00     0.272 A 
HETATM    9  O   UNL     1      44.946 -11.138   8.587  1.00  0.00    -0.266 OA
HETATM   10  N   UNL     1      43.472 -11.183   6.821  1.00  0.00    -0.327 N 
HETATM   11  C   UNL     1      42.227  -9.721   5.291  1.00  0.00     0.083 C 
HETATM   12  C   UNL     1      42.371 -10.540   4.021  1.00  0.00     0.240 C 
HETATM   13  H   UNL     1      44.008 -11.860   6.293  1.00  0.00     0.165 HD
ENDROOT
BRANCH   1  14
HETATM   14  C   UNL     1      41.390 -12.402   2.638  1.00  0.00     0.337 C 
BRANCH  14  15
HETATM   15  C   UNL     1      42.391 -13.551   2.776  1.00  0.00     0.248 C 
HETATM   16  N   UNL     1      41.824 -14.750   3.154  1.00  0.00    -0.326 N 
HETATM   17  H   UNL     1      40.820 -14.796   3.289  1.00  0.00     0.169 HD
HETATM   18  O   UNL     1      43.567 -13.331   2.491  1.00  0.00    -0.271 OA
BRANCH  16  19
HETATM   19  C   UNL     1      42.485 -15.987   3.333  1.00  0.00     0.040 A 
HETATM   20  C   UNL     1      42.533 -17.000   2.372  1.00  0.00     0.066 A 
HETATM   21  C   UNL     1      43.213 -18.193   2.641  1.00  0.00     0.073 A 
HETATM   22  C   UNL     1      43.833 -18.380   3.882  1.00  0.00     0.073 A 
HETATM   23  C   UNL     1      43.790 -17.380   4.848  1.00  0.00     0.073 A 
HETATM   24  C   UNL     1      43.127 -16.185   4.563  1.00  0.00     0.066 A 
BRANCH  21  25
HETATM   25  O   UNL     1      43.344 -19.253   1.785  1.00  0.00    -0.356 OA
HETATM   26  C   UNL     1      43.633 -20.523   2.354  1.00  0.00     0.210 C 
ENDBRANCH  21  25
BRANCH  23  27
HETATM   27  O   UNL     1      44.345 -17.435   6.096  1.00  0.00    -0.356 OA
HETATM   28  C   UNL     1      43.590 -16.866   7.161  1.00  0.00     0.210 C 
ENDBRANCH  23  27
ENDBRANCH  16  19
ENDBRANCH  14  15
ENDBRANCH   1  14
BRANCH   7  29
HETATM   29  C   UNL     1      42.915  -9.135   9.840  1.00  0.00    -0.002 A 
HETATM   30  C   UNL     1      43.129  -9.884  11.007  1.00  0.00     0.016 A 
HETATM   31  C   UNL     1      43.189  -9.254  12.253  1.00  0.00     0.024 A 
HETATM   32  C   UNL     1      43.031  -7.873  12.340  1.00  0.00     0.034 A 
HETATM   33 CL   UNL     1      43.105  -7.096  13.871  1.00  0.00    -0.084 Cl
HETATM   34  C   UNL     1      42.810  -7.119  11.189  1.00  0.00     0.024 A 
HETATM   35  C   UNL     1      42.752  -7.748   9.941  1.00  0.00     0.016 A 
ENDBRANCH   7  29
TORSDOF 6
ENDMDL
MODEL 4
REMARK VINA RESULT:      -8.5      2.078      2.784
REMARK  6 active torsions:
REMARK  status: ('A' for Active; 'I' for Inactive)
REMARK    1  A    between atoms: O_2  and  C_3 
REMARK    2  A    between atoms: C_5  and  O_6 
REMARK    3  A    between atoms: C_9  and  N_10 
REMARK       I    between atoms: N_10  and  C_11 
REMARK    4  A    between atoms: C_11  and  C_12 
REMARK    5  A    between atoms: C_12  and  N_13 
REMARK    6  A    between atoms: C_19  and  C_20 
ROOT
HETATM    1  N   UNL     1      40.168 -10.505   5.703  1.00  0.00    -0.063 N 
HETATM    2  H   UNL     1      40.405 -10.069   4.792  1.00  0.00     0.280 HD
HETATM    3  C   UNL     1      41.473 -10.957   6.315  1.00  0.00     0.240 C 
HETATM    4  C   UNL     1      42.099 -12.056   5.476  1.00  0.00     0.083 C 
HETATM    5  C   UNL     1      41.135 -13.221   5.255  1.00  0.00     0.131 A 
HETATM    6  N   UNL     1      41.767 -14.153   4.289  1.00  0.00    -0.251 NA
HETATM    7  C   UNL     1      41.899 -15.305   4.893  1.00  0.00     0.132 A 
HETATM    8  C   UNL     1      41.381 -15.251   6.312  1.00  0.00     0.272 A 
HETATM    9  O   UNL     1      41.390 -16.118   7.150  1.00  0.00    -0.266 OA
HETATM   10  N   UNL     1      40.915 -13.979   6.447  1.00  0.00    -0.327 N 
HETATM   11  C   UNL     1      39.826 -12.724   4.640  1.00  0.00     0.083 C 
HETATM   12  C   UNL     1      39.192 -11.625   5.472  1.00  0.00     0.240 C 
HETATM   13  H   UNL     1      40.547 -13.686   7.343  1.00  0.00     0.165 HD
ENDROOT
BRANCH   1  14
HETATM   14  C   UNL     1      39.533  -9.353   6.502  1.00  0.00     0.337 C 
BRANCH  14  15
HETATM   15  C   UNL     1      39.468  -9.689   7.994  1.00  0.00     0.248 C 
HETATM   16  N   UNL     1      40.164  -8.812   8.800  1.00  0.00    -0.326 N 
HETATM   17  H   UNL     1      40.634  -8.021   8.371  1.00  0.00     0.169 HD
HETATM   18  O   UNL     1      38.778 -10.645   8.342  1.00  0.00    -0.271 OA
BRANCH  16  19
HETATM   19  C   UNL     1      40.264  -8.844  10.210  1.00  0.00     0.040 A 
HETATM   20  C   UNL     1      39.417  -8.148  11.076  1.00  0.00     0.066 A 
HETATM   21  C   UNL     1      39.595  -8.242  12.460  1.00  0.00     0.073 A 
HETATM   22  C   UNL     1      40.633  -9.024  12.980  1.00  0.00     0.073 A 
HETATM   23  C   UNL     1      41.484  -9.721  12.129  1.00  0.00     0.073 A 
HETATM   24  C   UNL     1      41.286  -9.636  10.749  1.00  0.00     0.066 A 
BRANCH  21  25
HETATM   25  O   UNL     1      38.830  -7.623  13.411  1.00  0.00    -0.356 OA
HETATM   26  C   UNL     1      38.966  -6.214  13.545  1.00  0.00     0.210 C 
ENDBRANCH  21  25
BRANCH  23  27
HETATM   27  O   UNL     1      42.535 -10.510  12.503  1.00  0.00    -0.356 OA
HETATM   28  C   UNL     1      43.608 -10.635  11.574  1.00  0.00     0.210 C 
ENDBRANCH  23  27
ENDBRANCH  16  19
ENDBRANCH  14  15
ENDBRANCH   1  14
BRANCH   7  29
HETATM   29  C   UNL     1      42.493 -16.500   4.262  1.00  0.00    -0.002 A 
HETATM   30  C   UNL     1      42.029 -16.888   2.996  1.00  0.00     0.016 A 
HETATM   31  C   UNL     1      42.562 -18.012   2.358  1.00  0.00     0.024 A 
HETATM   32  C   UNL     1      43.559 -18.756   2.985  1.00  0.00     0.034 A 
HETATM   33 CL   UNL     1      44.217 -20.137   2.203  1.00  0.00    -0.084 Cl
HETATM   34  C   UNL     1      44.023 -18.384   4.245  1.00  0.00     0.024 A 
HETATM   35  C   UNL     1      43.491 -17.259   4.884  1.00  0.00     0.016 A 
ENDBRANCH   7  29
TORSDOF 6
ENDMDL
MODEL 5
REMARK VINA RESULT:      -8.5      1.551      1.674
REMARK  6 active torsions:
REMARK  status: ('A' for Active; 'I' for Inactive)
REMARK    1  A    between atoms: O_2  and  C_3 
REMARK    2  A    between atoms: C_5  and  O_6 
REMARK    3  A    between atoms: C_9  and  N_10 
REMARK       I    between atoms: N_10  and  C_11 
REMARK    4  A    between atoms: C_11  and  C_12 
REMARK    5  A    between atoms: C_12  and  N_13 
REMARK    6  A    between atoms: C_19  and  C_20 
ROOT
HETATM    1  N   UNL     1      41.758 -11.019   7.020  1.00  0.00    -0.063 N 
HETATM    2  H   UNL     1      41.481 -11.481   7.907  1.00  0.00     0.280 HD
HETATM    3  C   UNL     1      40.801 -11.516   5.962  1.00  0.00     0.240 C 
HETATM    4  C   UNL     1      40.991 -13.005   5.733  1.00  0.00     0.083 C 
HETATM    5  C   UNL     1      42.442 -13.349   5.404  1.00  0.00     0.131 A 
HETATM    6  N   UNL     1      42.560 -14.828   5.373  1.00  0.00    -0.251 NA
HETATM    7  C   UNL     1      42.952 -15.159   4.170  1.00  0.00     0.132 A 
HETATM    8  C   UNL     1      43.124 -13.945   3.287  1.00  0.00     0.272 A 
HETATM    9  O   UNL     1      43.431 -13.898   2.122  1.00  0.00    -0.266 OA
HETATM   10  N   UNL     1      42.826 -12.896   4.102  1.00  0.00    -0.327 N 
HETATM   11  C   UNL     1      43.379 -12.827   6.493  1.00  0.00     0.083 C 
HETATM   12  C   UNL     1      43.198 -11.338   6.729  1.00  0.00     0.240 C 
HETATM   13  H   UNL     1      42.834 -11.960   3.718  1.00  0.00     0.165 HD
ENDROOT
BRANCH   1  14
HETATM   14  C   UNL     1      41.555  -9.522   7.314  1.00  0.00     0.337 C 
BRANCH  14  15
HETATM   15  C   UNL     1      40.864  -9.314   8.664  1.00  0.00     0.248 C 
HETATM   16  N   UNL     1      41.620  -8.616   9.581  1.00  0.00    -0.326 N 
HETATM   17  H   UNL     1      42.537  -8.279   9.307  1.00  0.00     0.169 HD
HETATM   18  O   UNL     1      39.711  -9.723   8.792  1.00  0.00    -0.271 OA
BRANCH  16  19
HETATM   19  C   UNL     1      41.242  -8.247  10.894  1.00  0.00     0.040 A 
HETATM   20  C   UNL     1      41.810  -8.779  12.054  1.00  0.00     0.066 A 
HETATM   21  C   UNL     1      41.370  -8.351  13.312  1.00  0.00     0.073 A 
HETATM   22  C   UNL     1      40.348  -7.399  13.408  1.00  0.00     0.073 A 
HETATM   23  C   UNL     1      39.774  -6.863  12.260  1.00  0.00     0.073 A 
HETATM   24  C   UNL     1      40.234  -7.281  11.010  1.00  0.00     0.066 A 
BRANCH  21  25
HETATM   25  O   UNL     1      41.849  -8.782  14.519  1.00  0.00    -0.356 OA
HETATM   26  C   UNL     1      41.332  -8.162  15.689  1.00  0.00     0.210 C 
ENDBRANCH  21  25
BRANCH  23  27
HETATM   27  O   UNL     1      38.771  -5.937  12.213  1.00  0.00    -0.356 OA
HETATM   28  C   UNL     1      37.507  -6.330  12.740  1.00  0.00     0.210 C 
ENDBRANCH  23  27
ENDBRANCH  16  19
ENDBRANCH  14  15
ENDBRANCH   1  14
BRANCH   7  29
HETATM   29  C   UNL     1      43.184 -16.551   3.737  1.00  0.00    -0.002 A 
HETATM   30  C   UNL     1      44.021 -17.364   4.516  1.00  0.00     0.016 A 
HETATM   31  C   UNL     1      44.268 -18.689   4.146  1.00  0.00     0.024 A 
HETATM   32  C   UNL     1      43.685 -19.207   2.993  1.00  0.00     0.034 A 
HETATM   33 CL   UNL     1      43.987 -20.835   2.535  1.00  0.00    -0.084 Cl
HETATM   34  C   UNL     1      42.857 -18.407   2.206  1.00  0.00     0.024 A 
HETATM   35  C   UNL     1      42.607 -17.081   2.576  1.00  0.00     0.016 A 
ENDBRANCH   7  29
TORSDOF 6
ENDMDL
MODEL 6
REMARK VINA RESULT:      -8.5      1.528      2.222
REMARK  6 active torsions:
REMARK  status: ('A' for Active; 'I' for Inactive)
REMARK    1  A    between atoms: O_2  and  C_3 
REMARK    2  A    between atoms: C_5  and  O_6 
REMARK    3  A    between atoms: C_9  and  N_10 
REMARK       I    between atoms: N_10  and  C_11 
REMARK    4  A    between atoms: C_11  and  C_12 
REMARK    5  A    between atoms: C_12  and  N_13 
REMARK    6  A    between atoms: C_19  and  C_20 
ROOT
HETATM    1  N   UNL     1      40.639 -11.293   6.331  1.00  0.00    -0.063 N 
HETATM    2  H   UNL     1      40.257 -11.740   7.186  1.00  0.00     0.280 HD
HETATM    3  C   UNL     1      39.906 -11.908   5.162  1.00  0.00     0.240 C 
HETATM    4  C   UNL     1      40.239 -13.384   5.045  1.00  0.00     0.083 C 
HETATM    5  C   UNL     1      41.746 -13.621   4.967  1.00  0.00     0.131 A 
HETATM    6  N   UNL     1      41.976 -15.086   5.032  1.00  0.00    -0.251 NA
HETATM    7  C   UNL     1      42.581 -15.432   3.926  1.00  0.00     0.132 A 
HETATM    8  C   UNL     1      42.803 -14.244   3.019  1.00  0.00     0.272 A 
HETATM    9  O   UNL     1      43.291 -14.218   1.916  1.00  0.00    -0.266 OA
HETATM   10  N   UNL     1      42.301 -13.191   3.721  1.00  0.00    -0.327 N 
HETATM   11  C   UNL     1      42.453 -12.982   6.163  1.00  0.00     0.083 C 
HETATM   12  C   UNL     1      42.127 -11.505   6.288  1.00  0.00     0.240 C 
HETATM   13  H   UNL     1      42.302 -12.274   3.295  1.00  0.00     0.165 HD
ENDROOT
BRANCH   1  14
HETATM   14  C   UNL     1      40.281  -9.806   6.510  1.00  0.00     0.337 C 
BRANCH  14  15
HETATM   15  C   UNL     1      41.116  -9.171   7.625  1.00  0.00     0.248 C 
HETATM   16  N   UNL     1      40.863  -9.684   8.880  1.00  0.00    -0.326 N 
HETATM   17  H   UNL     1      40.186 -10.432   8.976  1.00  0.00     0.169 HD
HETATM   18  O   UNL     1      41.954  -8.328   7.310  1.00  0.00    -0.271 OA
BRANCH  16  19
HETATM   19  C   UNL     1      41.493  -9.320  10.093  1.00  0.00     0.040 A 
HETATM   20  C   UNL     1      40.818  -8.836  11.216  1.00  0.00     0.066 A 
HETATM   21  C   UNL     1      41.529  -8.502  12.374  1.00  0.00     0.073 A 
HETATM   22  C   UNL     1      42.921  -8.639  12.403  1.00  0.00     0.073 A 
HETATM   23  C   UNL     1      43.606  -9.119  11.291  1.00  0.00     0.073 A 
HETATM   24  C   UNL     1      42.885  -9.468  10.147  1.00  0.00     0.066 A 
BRANCH  21  25
HETATM   25  O   UNL     1      40.988  -8.030  13.539  1.00  0.00    -0.356 OA
HETATM   26  C   UNL     1      40.070  -6.949  13.444  1.00  0.00     0.210 C 
ENDBRANCH  21  25
BRANCH  23  27
HETATM   27  O   UNL     1      44.956  -9.293  11.185  1.00  0.00    -0.356 OA
HETATM   28  C   UNL     1      45.437  -9.871   9.976  1.00  0.00     0.210 C 
ENDBRANCH  23  27
ENDBRANCH  16  19
ENDBRANCH  14  15
ENDBRANCH   1  14
BRANCH   7  29
HETATM   29  C   UNL     1      42.982 -16.817   3.608  1.00  0.00    -0.002 A 
HETATM   30  C   UNL     1      43.875 -17.470   4.471  1.00  0.00     0.016 A 
HETATM   31  C   UNL     1      44.282 -18.782   4.212  1.00  0.00     0.024 A 
HETATM   32  C   UNL     1      43.802 -19.445   3.085  1.00  0.00     0.034 A 
HETATM   33 CL   UNL     1      44.301 -21.058   2.764  1.00  0.00    -0.084 Cl
HETATM   34  C   UNL     1      42.921 -18.805   2.216  1.00  0.00     0.024 A 
HETATM   35  C   UNL     1      42.512 -17.492   2.475  1.00  0.00     0.016 A 
ENDBRANCH   7  29
TORSDOF 6
ENDMDL
MODEL 7
REMARK VINA RESULT:      -8.4      2.070      3.198
REMARK  6 active torsions:
REMARK  status: ('A' for Active; 'I' for Inactive)
REMARK    1  A    between atoms: O_2  and  C_3 
REMARK    2  A    between atoms: C_5  and  O_6 
REMARK    3  A    between atoms: C_9  and  N_10 
REMARK       I    between atoms: N_10  and  C_11 
REMARK    4  A    between atoms: C_11  and  C_12 
REMARK    5  A    between atoms: C_12  and  N_13 
REMARK    6  A    between atoms: C_19  and  C_20 
ROOT
HETATM    1  N   UNL     1      39.908 -10.368   5.764  1.00  0.00    -0.063 N 
HETATM    2  H   UNL     1      39.279 -10.315   4.940  1.00  0.00     0.280 HD
HETATM    3  C   UNL     1      41.319 -10.377   5.227  1.00  0.00     0.240 C 
HETATM    4  C   UNL     1      41.574 -11.641   4.427  1.00  0.00     0.083 C 
HETATM    5  C   UNL     1      41.259 -12.898   5.236  1.00  0.00     0.131 A 
HETATM    6  N   UNL     1      41.368 -14.062   4.322  1.00  0.00    -0.251 NA
HETATM    7  C   UNL     1      42.298 -14.845   4.802  1.00  0.00     0.132 A 
HETATM    8  C   UNL     1      42.902 -14.280   6.067  1.00  0.00     0.272 A 
HETATM    9  O   UNL     1      43.802 -14.723   6.736  1.00  0.00    -0.266 OA
HETATM   10  N   UNL     1      42.211 -13.126   6.279  1.00  0.00    -0.327 N 
HETATM   11  C   UNL     1      39.826 -12.851   5.766  1.00  0.00     0.083 C 
HETATM   12  C   UNL     1      39.561 -11.590   6.568  1.00  0.00     0.240 C 
HETATM   13  H   UNL     1      42.466 -12.539   7.062  1.00  0.00     0.165 HD
ENDROOT
BRANCH   1  14
HETATM   14  C   UNL     1      39.600  -9.072   6.538  1.00  0.00     0.337 C 
BRANCH  14  15
HETATM   15  C   UNL     1      40.796  -8.647   7.394  1.00  0.00     0.248 C 
HETATM   16  N   UNL     1      41.173  -9.579   8.337  1.00  0.00    -0.326 N 
HETATM   17  H   UNL     1      40.669 -10.458   8.386  1.00  0.00     0.169 HD
HETATM   18  O   UNL     1      41.337  -7.573   7.137  1.00  0.00    -0.271 OA
BRANCH  16  19
HETATM   19  C   UNL     1      42.251  -9.483   9.248  1.00  0.00     0.040 A 
HETATM   20  C   UNL     1      42.191  -8.811  10.471  1.00  0.00     0.066 A 
HETATM   21  C   UNL     1      43.312  -8.770  11.307  1.00  0.00     0.073 A 
HETATM   22  C   UNL     1      44.502  -9.391  10.912  1.00  0.00     0.073 A 
HETATM   23  C   UNL     1      44.575 -10.062   9.695  1.00  0.00     0.073 A 
HETATM   24  C   UNL     1      43.445 -10.114   8.877  1.00  0.00     0.066 A 
BRANCH  21  25
HETATM   25  O   UNL     1      43.379  -8.158  12.530  1.00  0.00    -0.356 OA
HETATM   26  C   UNL     1      42.443  -8.566  13.519  1.00  0.00     0.210 C 
ENDBRANCH  21  25
BRANCH  23  27
HETATM   27  O   UNL     1      45.671 -10.702   9.188  1.00  0.00    -0.356 OA
HETATM   28  C   UNL     1      45.751 -10.816   7.771  1.00  0.00     0.210 C 
ENDBRANCH  23  27
ENDBRANCH  16  19
ENDBRANCH  14  15
ENDBRANCH   1  14
BRANCH   7  29
HETATM   29  C   UNL     1      42.709 -16.116   4.172  1.00  0.00    -0.002 A 
HETATM   30  C   UNL     1      42.480 -16.286   2.799  1.00  0.00     0.016 A 
HETATM   31  C   UNL     1      42.853 -17.471   2.158  1.00  0.00     0.024 A 
HETATM   32  C   UNL     1      43.452 -18.494   2.889  1.00  0.00     0.034 A 
HETATM   33 CL   UNL     1      43.912 -19.952   2.105  1.00  0.00    -0.084 Cl
HETATM   34  C   UNL     1      43.678 -18.340   4.256  1.00  0.00     0.024 A 
HETATM   35  C   UNL     1      43.307 -17.153   4.897  1.00  0.00     0.016 A 
ENDBRANCH   7  29
TORSDOF 6
ENDMDL
MODEL 8
REMARK VINA RESULT:      -8.2      2.159      2.785
REMARK  6 active torsions:
REMARK  status: ('A' for Active; 'I' for Inactive)
REMARK    1  A    between atoms: O_2  and  C_3 
REMARK    2  A    between atoms: C_5  and  O_6 
REMARK    3  A    between atoms: C_9  and  N_10 
REMARK       I    between atoms: N_10  and  C_11 
REMARK    4  A    between atoms: C_11  and  C_12 
REMARK    5  A    between atoms: C_12  and  N_13 
REMARK    6  A    between atoms: C_19  and  C_20 
ROOT
HETATM    1  N   UNL     1      40.145 -10.243   5.725  1.00  0.00    -0.063 N 
HETATM    2  H   UNL     1      40.396  -9.804   4.819  1.00  0.00     0.280 HD
HETATM    3  C   UNL     1      41.438 -10.717   6.346  1.00  0.00     0.240 C 
HETATM    4  C   UNL     1      42.056 -11.819   5.506  1.00  0.00     0.083 C 
HETATM    5  C   UNL     1      41.078 -12.969   5.269  1.00  0.00     0.131 A 
HETATM    6  N   UNL     1      41.706 -13.904   4.303  1.00  0.00    -0.251 NA
HETATM    7  C   UNL     1      41.817 -15.061   4.901  1.00  0.00     0.132 A 
HETATM    8  C   UNL     1      41.288 -15.009   6.316  1.00  0.00     0.272 A 
HETATM    9  O   UNL     1      41.277 -15.880   7.149  1.00  0.00    -0.266 OA
HETATM   10  N   UNL     1      40.838 -13.731   6.455  1.00  0.00    -0.327 N 
HETATM   11  C   UNL     1      39.782 -12.451   4.645  1.00  0.00     0.083 C 
HETATM   12  C   UNL     1      39.155 -11.348   5.479  1.00  0.00     0.240 C 
HETATM   13  H   UNL     1      40.465 -13.438   7.349  1.00  0.00     0.165 HD
ENDROOT
BRANCH   1  14
HETATM   14  C   UNL     1      39.518  -9.087   6.526  1.00  0.00     0.337 C 
BRANCH  14  15
HETATM   15  C   UNL     1      39.585  -9.361   8.031  1.00  0.00     0.248 C 
HETATM   16  N   UNL     1      40.487  -8.569   8.708  1.00  0.00    -0.326 N 
HETATM   17  H   UNL     1      41.011  -7.870   8.190  1.00  0.00     0.169 HD
HETATM   18  O   UNL     1      38.812 -10.194   8.501  1.00  0.00    -0.271 OA
BRANCH  16  19
HETATM   19  C   UNL     1      40.749  -8.570  10.098  1.00  0.00     0.040 A 
HETATM   20  C   UNL     1      41.721  -9.361  10.715  1.00  0.00     0.066 A 
HETATM   21  C   UNL     1      41.908  -9.293  12.100  1.00  0.00     0.073 A 
HETATM   22  C   UNL     1      41.109  -8.442  12.872  1.00  0.00     0.073 A 
HETATM   23  C   UNL     1      40.136  -7.650  12.270  1.00  0.00     0.073 A 
HETATM   24  C   UNL     1      39.971  -7.710  10.884  1.00  0.00     0.066 A 
BRANCH  21  25
HETATM   25  O   UNL     1      42.829 -10.003  12.821  1.00  0.00    -0.356 OA
HETATM   26  C   UNL     1      43.426 -11.129  12.192  1.00  0.00     0.210 C 
ENDBRANCH  21  25
BRANCH  23  27
HETATM   27  O   UNL     1      39.289  -6.786  12.904  1.00  0.00    -0.356 OA
HETATM   28  C   UNL     1      37.894  -7.042  12.774  1.00  0.00     0.210 C 
ENDBRANCH  23  27
ENDBRANCH  16  19
ENDBRANCH  14  15
ENDBRANCH   1  14
BRANCH   7  29
HETATM   29  C   UNL     1      42.401 -16.260   4.268  1.00  0.00    -0.002 A 
HETATM   30  C   UNL     1      41.888 -16.680   3.032  1.00  0.00     0.016 A 
HETATM   31  C   UNL     1      42.409 -17.809   2.393  1.00  0.00     0.024 A 
HETATM   32  C   UNL     1      43.443 -18.527   2.990  1.00  0.00     0.034 A 
HETATM   33 CL   UNL     1      44.086 -19.915   2.207  1.00  0.00    -0.084 Cl
HETATM   34  C   UNL     1      43.956 -18.124   4.222  1.00  0.00     0.024 A 
HETATM   35  C   UNL     1      43.436 -16.993   4.861  1.00  0.00     0.016 A 
ENDBRANCH   7  29
TORSDOF 6
ENDMDL
MODEL 9
REMARK VINA RESULT:      -7.9      6.545      9.700
REMARK  6 active torsions:
REMARK  status: ('A' for Active; 'I' for Inactive)
REMARK    1  A    between atoms: O_2  and  C_3 
REMARK    2  A    between atoms: C_5  and  O_6 
REMARK    3  A    between atoms: C_9  and  N_10 
REMARK       I    between atoms: N_10  and  C_11 
REMARK    4  A    between atoms: C_11  and  C_12 
REMARK    5  A    between atoms: C_12  and  N_13 
REMARK    6  A    between atoms: C_19  and  C_20 
ROOT
HETATM    1  N   UNL     1      41.367 -10.750   3.474  1.00  0.00    -0.063 N 
HETATM    2  H   UNL     1      41.286 -10.589   4.496  1.00  0.00     0.280 HD
HETATM    3  C   UNL     1      40.385 -11.847   3.135  1.00  0.00     0.240 C 
HETATM    4  C   UNL     1      40.797 -13.150   3.796  1.00  0.00     0.083 C 
HETATM    5  C   UNL     1      42.234 -13.535   3.446  1.00  0.00     0.131 A 
HETATM    6  N   UNL     1      42.599 -14.713   4.271  1.00  0.00    -0.251 NA
HETATM    7  C   UNL     1      42.888 -15.687   3.447  1.00  0.00     0.132 A 
HETATM    8  C   UNL     1      42.738 -15.259   2.006  1.00  0.00     0.272 A 
HETATM    9  O   UNL     1      42.885 -15.916   1.005  1.00  0.00    -0.266 OA
HETATM   10  N   UNL     1      42.369 -13.951   2.084  1.00  0.00    -0.327 N 
HETATM   11  C   UNL     1      43.195 -12.400   3.799  1.00  0.00     0.083 C 
HETATM   12  C   UNL     1      42.792 -11.093   3.142  1.00  0.00     0.240 C 
HETATM   13  H   UNL     1      42.167 -13.446   1.231  1.00  0.00     0.165 HD
ENDROOT
BRANCH   1  14
HETATM   14  C   UNL     1      40.948  -9.401   2.861  1.00  0.00     0.337 C 
BRANCH  14  15
HETATM   15  C   UNL     1      40.407  -9.588   1.441  1.00  0.00     0.248 C 
HETATM   16  N   UNL     1      41.364  -9.952   0.517  1.00  0.00    -0.326 N 
HETATM   17  H   UNL     1      42.320 -10.088   0.829  1.00  0.00     0.169 HD
HETATM   18  O   UNL     1      39.198  -9.459   1.262  1.00  0.00    -0.271 OA
BRANCH  16  19
HETATM   19  C   UNL     1      41.165 -10.222  -0.857  1.00  0.00     0.040 A 
HETATM   20  C   UNL     1      40.833 -11.477  -1.372  1.00  0.00     0.066 A 
HETATM   21  C   UNL     1      40.656 -11.648  -2.749  1.00  0.00     0.073 A 
HETATM   22  C   UNL     1      40.826 -10.562  -3.616  1.00  0.00     0.073 A 
HETATM   23  C   UNL     1      41.158  -9.307  -3.115  1.00  0.00     0.073 A 
HETATM   24  C   UNL     1      41.313  -9.142  -1.737  1.00  0.00     0.066 A 
BRANCH  21  25
HETATM   25  O   UNL     1      40.320 -12.817  -3.376  1.00  0.00    -0.356 OA
HETATM   26  C   UNL     1      40.197 -13.981  -2.570  1.00  0.00     0.210 C 
ENDBRANCH  21  25
BRANCH  23  27
HETATM   27  O   UNL     1      41.358  -8.171  -3.847  1.00  0.00    -0.356 OA
HETATM   28  C   UNL     1      42.514  -7.399  -3.534  1.00  0.00     0.210 C 
ENDBRANCH  23  27
ENDBRANCH  16  19
ENDBRANCH  14  15
ENDBRANCH   1  14
BRANCH   7  29
HETATM   29  C   UNL     1      43.300 -17.036   3.882  1.00  0.00    -0.002 A 
HETATM   30  C   UNL     1      43.351 -17.309   5.258  1.00  0.00     0.016 A 
HETATM   31  C   UNL     1      43.733 -18.573   5.717  1.00  0.00     0.024 A 
HETATM   32  C   UNL     1      44.071 -19.568   4.804  1.00  0.00     0.034 A 
HETATM   33 CL   UNL     1      44.540 -21.123   5.366  1.00  0.00    -0.084 Cl
HETATM   34  C   UNL     1      44.031 -19.308   3.436  1.00  0.00     0.024 A 
HETATM   35  C   UNL     1      43.647 -18.044   2.975  1.00  0.00     0.016 A 
ENDBRANCH   7  29
TORSDOF 6
ENDMDL
MODEL 10
REMARK VINA RESULT:      -7.9      7.925     10.750
REMARK  6 active torsions:
REMARK  status: ('A' for Active; 'I' for Inactive)
REMARK    1  A    between atoms: O_2  and  C_3 
REMARK    2  A    between atoms: C_5  and  O_6 
REMARK    3  A    between atoms: C_9  and  N_10 
REMARK       I    between atoms: N_10  and  C_11 
REMARK    4  A    between atoms: C_11  and  C_12 
REMARK    5  A    between atoms: C_12  and  N_13 
REMARK    6  A    between atoms: C_19  and  C_20 
ROOT
HETATM    1  N   UNL     1      39.872 -12.227  -0.849  1.00  0.00    -0.063 N 
HETATM    2  H   UNL     1      40.695 -12.122  -1.472  1.00  0.00     0.280 HD
HETATM    3  C   UNL     1      40.347 -11.903   0.548  1.00  0.00     0.240 C 
HETATM    4  C   UNL     1      41.357 -12.935   1.016  1.00  0.00     0.083 C 
HETATM    5  C   UNL     1      40.808 -14.357   0.911  1.00  0.00     0.131 A 
HETATM    6  N   UNL     1      41.916 -15.293   1.219  1.00  0.00    -0.251 NA
HETATM    7  C   UNL     1      41.555 -15.990   2.265  1.00  0.00     0.132 A 
HETATM    8  C   UNL     1      40.185 -15.583   2.757  1.00  0.00     0.272 A 
HETATM    9  O   UNL     1      39.576 -15.992   3.714  1.00  0.00    -0.266 OA
HETATM   10  N   UNL     1      39.790 -14.619   1.881  1.00  0.00    -0.327 N 
HETATM   11  C   UNL     1      40.333 -14.645  -0.513  1.00  0.00     0.083 C 
HETATM   12  C   UNL     1      39.321 -13.619  -0.991  1.00  0.00     0.240 C 
HETATM   13  H   UNL     1      38.902 -14.157   2.029  1.00  0.00     0.165 HD
ENDROOT
BRANCH   1  14
HETATM   14  C   UNL     1      38.884 -11.169  -1.374  1.00  0.00     0.337 C 
BRANCH  14  15
HETATM   15  C   UNL     1      39.570  -9.810  -1.538  1.00  0.00     0.248 C 
HETATM   16  N   UNL     1      40.651  -9.825  -2.394  1.00  0.00    -0.326 N 
HETATM   17  H   UNL     1      40.898 -10.694  -2.857  1.00  0.00     0.169 HD
HETATM   18  O   UNL     1      39.080  -8.842  -0.960  1.00  0.00    -0.271 OA
BRANCH  16  19
HETATM   19  C   UNL     1      41.461  -8.726  -2.765  1.00  0.00     0.040 A 
HETATM   20  C   UNL     1      42.330  -8.061  -1.898  1.00  0.00     0.066 A 
HETATM   21  C   UNL     1      43.093  -6.982  -2.357  1.00  0.00     0.073 A 
HETATM   22  C   UNL     1      42.974  -6.557  -3.686  1.00  0.00     0.073 A 
HETATM   23  C   UNL     1      42.110  -7.210  -4.559  1.00  0.00     0.073 A 
HETATM   24  C   UNL     1      41.368  -8.299  -4.096  1.00  0.00     0.066 A 
BRANCH  21  25
HETATM   25  O   UNL     1      43.986  -6.257  -1.616  1.00  0.00    -0.356 OA
HETATM   26  C   UNL     1      43.736  -4.865  -1.468  1.00  0.00     0.210 C 
ENDBRANCH  21  25
BRANCH  23  27
HETATM   27  O   UNL     1      41.895  -6.895  -5.871  1.00  0.00    -0.356 OA
HETATM   28  C   UNL     1      40.649  -7.296  -6.433  1.00  0.00     0.210 C 
ENDBRANCH  23  27
ENDBRANCH  16  19
ENDBRANCH  14  15
ENDBRANCH   1  14
BRANCH   7  29
HETATM   29  C   UNL     1      42.393 -17.034   2.886  1.00  0.00    -0.002 A 
HETATM   30  C   UNL     1      42.685 -18.188   2.143  1.00  0.00     0.016 A 
HETATM   31  C   UNL     1      43.476 -19.203   2.689  1.00  0.00     0.024 A 
HETATM   32  C   UNL     1      43.975 -19.072   3.982  1.00  0.00     0.034 A 
HETATM   33 CL   UNL     1      44.948 -20.317   4.656  1.00  0.00    -0.084 Cl
HETATM   34  C   UNL     1      43.686 -17.934   4.733  1.00  0.00     0.024 A 
HETATM   35  C   UNL     1      42.896 -16.917   4.187  1.00  0.00     0.016 A 
ENDBRANCH   7  29
TORSDOF 6
ENDMDL
