MODEL 1
REMARK VINA RESULT:      -8.4      0.000      0.000
REMARK  3 active torsions:
REMARK  status: ('A' for Active; 'I' for Inactive)
REMARK    1  A    between atoms: C_3  and  N_4 
REMARK       I    between atoms: N_4  and  C_5 
REMARK    2  A    between atoms: C_5  and  C_6 
REMARK    3  A    between atoms: C_6  and  C_7 
ROOT
HETATM    1  C   UNL     1      41.190 -15.847   5.159  1.00  0.00     0.286 C 
HETATM    2  N   UNL     1      42.018 -14.941   4.255  1.00  0.00    -0.056 N 
HETATM    3  H   UNL     1      42.741 -14.511   4.871  1.00  0.00     0.278 HD
HETATM    4  H   UNL     1      42.531 -15.495   3.560  1.00  0.00     0.278 HD
HETATM    5  C   UNL     1      41.181 -13.873   3.597  1.00  0.00     0.209 C 
HETATM    6  C   UNL     1      40.498 -13.016   4.695  1.00  0.00     0.115 C 
HETATM    7  N   UNL     1      39.817 -13.840   5.694  1.00  0.00    -0.353 N 
HETATM    8  C   UNL     1      40.270 -15.065   6.123  1.00  0.00     0.249 C 
HETATM    9  O   UNL     1      39.865 -15.533   7.181  1.00  0.00    -0.271 OA
HETATM   10  C   UNL     1      42.058 -13.048   2.657  1.00  0.00     0.035 C 
HETATM   11  C   UNL     1      43.021 -12.119   3.392  1.00  0.00     0.002 C 
HETATM   12  C   UNL     1      42.286 -11.236   4.394  1.00  0.00     0.002 C 
HETATM   13  C   UNL     1      41.483 -12.064   5.391  1.00  0.00     0.027 C 
HETATM   14  H   UNL     1      39.208 -13.376   6.364  1.00  0.00     0.163 HD
ENDROOT
BRANCH   1  15
HETATM   15  C   UNL     1      42.082 -16.839   5.916  1.00  0.00     0.146 C 
BRANCH  15  16
HETATM   16  C   UNL     1      43.536 -16.501   5.692  1.00  0.00     0.224 C 
HETATM   17  N   UNL     1      44.365 -17.324   4.996  1.00  0.00    -0.327 N 
HETATM   18  H   UNL     1      45.345 -17.085   5.116  1.00  0.00     0.169 HD
HETATM   19  O   UNL     1      43.977 -15.453   6.183  1.00  0.00    -0.273 OA
BRANCH  17  20
HETATM   20  C   UNL     1      44.108 -18.466   4.209  1.00  0.00     0.040 A 
HETATM   21  C   UNL     1      43.660 -18.285   2.883  1.00  0.00    -0.035 A 
HETATM   22  C   UNL     1      43.492 -16.924   2.263  1.00  0.00     0.050 C 
HETATM   23  C   UNL     1      43.367 -19.413   2.095  1.00  0.00     0.009 A 
HETATM   24  C   UNL     1      43.507 -20.700   2.609  1.00  0.00     0.001 A 
HETATM   25  C   UNL     1      43.924 -20.875   3.921  1.00  0.00     0.002 A 
HETATM   26  C   UNL     1      44.215 -19.766   4.719  1.00  0.00     0.030 A 
ENDBRANCH  17  20
ENDBRANCH  15  16
ENDBRANCH   1  15
TORSDOF 3
ENDMDL
MODEL 2
REMARK VINA RESULT:      -7.9      1.969      2.587
REMARK  3 active torsions:
REMARK  status: ('A' for Active; 'I' for Inactive)
REMARK    1  A    between atoms: C_3  and  N_4 
REMARK       I    between atoms: N_4  and  C_5 
REMARK    2  A    between atoms: C_5  and  C_6 
REMARK    3  A    between atoms: C_6  and  C_7 
ROOT
HETATM    1  C   UNL     1      40.197 -15.540   2.868  1.00  0.00     0.286 C 
HETATM    2  N   UNL     1      40.074 -14.179   2.192  1.00  0.00    -0.056 N 
HETATM    3  H   UNL     1      41.051 -13.841   2.056  1.00  0.00     0.278 HD
HETATM    4  H   UNL     1      39.675 -14.278   1.252  1.00  0.00     0.278 HD
HETATM    5  C   UNL     1      39.286 -13.198   3.023  1.00  0.00     0.209 C 
HETATM    6  C   UNL     1      39.982 -13.026   4.398  1.00  0.00     0.115 C 
HETATM    7  N   UNL     1      40.278 -14.311   5.032  1.00  0.00    -0.353 N 
HETATM    8  C   UNL     1      40.641 -15.445   4.345  1.00  0.00     0.249 C 
HETATM    9  O   UNL     1      41.201 -16.365   4.930  1.00  0.00    -0.271 OA
HETATM   10  C   UNL     1      39.146 -11.883   2.258  1.00  0.00     0.035 C 
HETATM   11  C   UNL     1      40.445 -11.085   2.188  1.00  0.00     0.002 C 
HETATM   12  C   UNL     1      41.039 -10.867   3.575  1.00  0.00     0.002 C 
HETATM   13  C   UNL     1      41.266 -12.187   4.304  1.00  0.00     0.027 C 
HETATM   14  H   UNL     1      40.588 -14.309   6.001  1.00  0.00     0.163 HD
ENDROOT
BRANCH   1  15
HETATM   15  C   UNL     1      41.109 -16.477   2.067  1.00  0.00     0.146 C 
BRANCH  15  16
HETATM   16  C   UNL     1      42.528 -15.962   2.093  1.00  0.00     0.224 C 
HETATM   17  N   UNL     1      43.551 -16.703   2.594  1.00  0.00    -0.327 N 
HETATM   18  H   UNL     1      44.391 -16.154   2.751  1.00  0.00     0.169 HD
HETATM   19  O   UNL     1      42.746 -14.820   1.663  1.00  0.00    -0.273 OA
BRANCH  17  20
HETATM   20  C   UNL     1      43.624 -18.055   2.988  1.00  0.00     0.040 A 
HETATM   21  C   UNL     1      44.077 -18.356   4.290  1.00  0.00    -0.035 A 
HETATM   22  C   UNL     1      44.442 -17.288   5.287  1.00  0.00     0.050 C 
HETATM   23  C   UNL     1      44.188 -19.700   4.688  1.00  0.00     0.009 A 
HETATM   24  C   UNL     1      43.862 -20.734   3.814  1.00  0.00     0.001 A 
HETATM   25  C   UNL     1      43.440 -20.438   2.525  1.00  0.00     0.002 A 
HETATM   26  C   UNL     1      43.329 -19.107   2.112  1.00  0.00     0.030 A 
ENDBRANCH  17  20
ENDBRANCH  15  16
ENDBRANCH   1  15
TORSDOF 3
ENDMDL
MODEL 3
REMARK VINA RESULT:      -7.9     13.877     16.336
REMARK  3 active torsions:
REMARK  status: ('A' for Active; 'I' for Inactive)
REMARK    1  A    between atoms: C_3  and  N_4 
REMARK       I    between atoms: N_4  and  C_5 
REMARK    2  A    between atoms: C_5  and  C_6 
REMARK    3  A    between atoms: C_6  and  C_7 
ROOT
HETATM    1  C   UNL     1      48.493 -29.912   0.088  1.00  0.00     0.286 C 
HETATM    2  N   UNL     1      48.199 -30.028   1.579  1.00  0.00    -0.056 N 
HETATM    3  H   UNL     1      48.649 -29.198   2.022  1.00  0.00     0.278 HD
HETATM    4  H   UNL     1      47.193 -29.933   1.757  1.00  0.00     0.278 HD
HETATM    5  C   UNL     1      48.743 -31.303   2.172  1.00  0.00     0.209 C 
HETATM    6  C   UNL     1      50.277 -31.352   1.947  1.00  0.00     0.115 C 
HETATM    7  N   UNL     1      50.639 -31.085   0.555  1.00  0.00    -0.353 N 
HETATM    8  C   UNL     1      49.969 -30.207  -0.263  1.00  0.00     0.249 C 
HETATM    9  O   UNL     1      50.510 -29.773  -1.273  1.00  0.00    -0.271 OA
HETATM   10  C   UNL     1      48.355 -31.384   3.647  1.00  0.00     0.035 C 
HETATM   11  C   UNL     1      49.131 -30.410   4.529  1.00  0.00     0.002 C 
HETATM   12  C   UNL     1      50.635 -30.562   4.335  1.00  0.00     0.002 C 
HETATM   13  C   UNL     1      51.035 -30.389   2.874  1.00  0.00     0.027 C 
HETATM   14  H   UNL     1      51.602 -31.249   0.269  1.00  0.00     0.163 HD
ENDROOT
BRANCH   1  15
HETATM   15  C   UNL     1      48.046 -28.553  -0.461  1.00  0.00     0.146 C 
BRANCH  15  16
HETATM   16  C   UNL     1      46.806 -28.085   0.262  1.00  0.00     0.224 C 
HETATM   17  N   UNL     1      45.598 -28.014  -0.357  1.00  0.00    -0.327 N 
HETATM   18  H   UNL     1      44.917 -27.480   0.175  1.00  0.00     0.169 HD
HETATM   19  O   UNL     1      46.915 -27.736   1.446  1.00  0.00    -0.273 OA
BRANCH  17  20
HETATM   20  C   UNL     1      45.159 -28.486  -1.611  1.00  0.00     0.040 A 
HETATM   21  C   UNL     1      44.406 -29.679  -1.658  1.00  0.00    -0.035 A 
HETATM   22  C   UNL     1      44.017 -30.441  -0.418  1.00  0.00     0.050 C 
HETATM   23  C   UNL     1      43.988 -30.182  -2.903  1.00  0.00     0.009 A 
HETATM   24  C   UNL     1      44.312 -29.523  -4.085  1.00  0.00     0.001 A 
HETATM   25  C   UNL     1      45.073 -28.362  -4.040  1.00  0.00     0.002 A 
HETATM   26  C   UNL     1      45.500 -27.851  -2.811  1.00  0.00     0.030 A 
ENDBRANCH  17  20
ENDBRANCH  15  16
ENDBRANCH   1  15
TORSDOF 3
ENDMDL
MODEL 4
REMARK VINA RESULT:      -7.9      1.754      2.378
REMARK  3 active torsions:
REMARK  status: ('A' for Active; 'I' for Inactive)
REMARK    1  A    between atoms: C_3  and  N_4 
REMARK       I    between atoms: N_4  and  C_5 
REMARK    2  A    between atoms: C_5  and  C_6 
REMARK    3  A    between atoms: C_6  and  C_7 
ROOT
HETATM    1  C   UNL     1      40.766 -14.948   3.975  1.00  0.00     0.286 C 
HETATM    2  N   UNL     1      41.707 -13.799   3.634  1.00  0.00    -0.056 N 
HETATM    3  H   UNL     1      42.671 -14.193   3.700  1.00  0.00     0.278 HD
HETATM    4  H   UNL     1      41.586 -13.511   2.657  1.00  0.00     0.278 HD
HETATM    5  C   UNL     1      41.548 -12.631   4.575  1.00  0.00     0.209 C 
HETATM    6  C   UNL     1      41.825 -13.108   6.025  1.00  0.00     0.115 C 
HETATM    7  N   UNL     1      41.068 -14.313   6.363  1.00  0.00    -0.353 N 
HETATM    8  C   UNL     1      40.785 -15.322   5.474  1.00  0.00     0.249 C 
HETATM    9  O   UNL     1      40.465 -16.432   5.885  1.00  0.00    -0.271 OA
HETATM   10  C   UNL     1      42.469 -11.495   4.135  1.00  0.00     0.035 C 
HETATM   11  C   UNL     1      43.943 -11.773   4.414  1.00  0.00     0.002 C 
HETATM   12  C   UNL     1      44.173 -12.149   5.873  1.00  0.00     0.002 C 
HETATM   13  C   UNL     1      43.320 -13.343   6.288  1.00  0.00     0.027 C 
HETATM   14  H   UNL     1      41.056 -14.616   7.335  1.00  0.00     0.163 HD
ENDROOT
BRANCH   1  15
HETATM   15  C   UNL     1      41.038 -16.169   3.089  1.00  0.00     0.146 C 
BRANCH  15  16
HETATM   16  C   UNL     1      42.285 -15.945   2.267  1.00  0.00     0.224 C 
HETATM   17  N   UNL     1      43.356 -16.777   2.347  1.00  0.00    -0.327 N 
HETATM   18  H   UNL     1      44.189 -16.384   1.919  1.00  0.00     0.169 HD
HETATM   19  O   UNL     1      42.325 -14.955   1.522  1.00  0.00    -0.273 OA
BRANCH  17  20
HETATM   20  C   UNL     1      43.523 -18.032   2.967  1.00  0.00     0.040 A 
HETATM   21  C   UNL     1      43.928 -18.069   4.319  1.00  0.00    -0.035 A 
HETATM   22  C   UNL     1      44.143 -16.821   5.134  1.00  0.00     0.050 C 
HETATM   23  C   UNL     1      44.132 -19.312   4.944  1.00  0.00     0.009 A 
HETATM   24  C   UNL     1      43.947 -20.502   4.245  1.00  0.00     0.001 A 
HETATM   25  C   UNL     1      43.572 -20.465   2.909  1.00  0.00     0.002 A 
HETATM   26  C   UNL     1      43.369 -19.237   2.272  1.00  0.00     0.030 A 
ENDBRANCH  17  20
ENDBRANCH  15  16
ENDBRANCH   1  15
TORSDOF 3
ENDMDL
MODEL 5
REMARK VINA RESULT:      -7.8      3.395      4.758
REMARK  3 active torsions:
REMARK  status: ('A' for Active; 'I' for Inactive)
REMARK    1  A    between atoms: C_3  and  N_4 
REMARK       I    between atoms: N_4  and  C_5 
REMARK    2  A    between atoms: C_5  and  C_6 
REMARK    3  A    between atoms: C_6  and  C_7 
ROOT
HETATM    1  C   UNL     1      41.384 -13.113   1.764  1.00  0.00     0.286 C 
HETATM    2  N   UNL     1      40.883 -13.859   0.533  1.00  0.00    -0.056 N 
HETATM    3  H   UNL     1      41.714 -13.977  -0.085  1.00  0.00     0.278 HD
HETATM    4  H   UNL     1      40.579 -14.807   0.784  1.00  0.00     0.278 HD
HETATM    5  C   UNL     1      39.792 -13.106  -0.186  1.00  0.00     0.209 C 
HETATM    6  C   UNL     1      40.333 -11.717  -0.614  1.00  0.00     0.115 C 
HETATM    7  N   UNL     1      40.977 -11.011   0.494  1.00  0.00    -0.353 N 
HETATM    8  C   UNL     1      41.705 -11.627   1.483  1.00  0.00     0.249 C 
HETATM    9  O   UNL     1      42.491 -10.978   2.164  1.00  0.00    -0.271 OA
HETATM   10  C   UNL     1      39.291 -13.939  -1.364  1.00  0.00     0.035 C 
HETATM   11  C   UNL     1      40.284 -14.002  -2.522  1.00  0.00     0.002 C 
HETATM   12  C   UNL     1      40.714 -12.607  -2.963  1.00  0.00     0.002 C 
HETATM   13  C   UNL     1      41.300 -11.807  -1.805  1.00  0.00     0.027 C 
HETATM   14  H   UNL     1      41.224 -10.032   0.361  1.00  0.00     0.163 HD
ENDROOT
BRANCH   1  15
HETATM   15  C   UNL     1      42.578 -13.834   2.401  1.00  0.00     0.146 C 
BRANCH  15  16
HETATM   16  C   UNL     1      42.311 -14.082   3.866  1.00  0.00     0.224 C 
HETATM   17  N   UNL     1      42.366 -15.328   4.404  1.00  0.00    -0.327 N 
HETATM   18  H   UNL     1      41.951 -15.373   5.330  1.00  0.00     0.169 HD
HETATM   19  O   UNL     1      42.011 -13.114   4.579  1.00  0.00    -0.273 OA
BRANCH  17  20
HETATM   20  C   UNL     1      42.827 -16.555   3.883  1.00  0.00     0.040 A 
HETATM   21  C   UNL     1      43.857 -17.235   4.568  1.00  0.00    -0.035 A 
HETATM   22  C   UNL     1      44.447 -16.726   5.856  1.00  0.00     0.050 C 
HETATM   23  C   UNL     1      44.352 -18.443   4.044  1.00  0.00     0.009 A 
HETATM   24  C   UNL     1      43.845 -18.969   2.859  1.00  0.00     0.001 A 
HETATM   25  C   UNL     1      42.849 -18.287   2.173  1.00  0.00     0.002 A 
HETATM   26  C   UNL     1      42.349 -17.083   2.677  1.00  0.00     0.030 A 
ENDBRANCH  17  20
ENDBRANCH  15  16
ENDBRANCH   1  15
TORSDOF 3
ENDMDL
MODEL 6
REMARK VINA RESULT:      -7.6      4.194      5.665
REMARK  3 active torsions:
REMARK  status: ('A' for Active; 'I' for Inactive)
REMARK    1  A    between atoms: C_3  and  N_4 
REMARK       I    between atoms: N_4  and  C_5 
REMARK    2  A    between atoms: C_5  and  C_6 
REMARK    3  A    between atoms: C_6  and  C_7 
ROOT
HETATM    1  C   UNL     1      40.951 -13.162   0.624  1.00  0.00     0.286 C 
HETATM    2  N   UNL     1      40.615 -12.075  -0.390  1.00  0.00    -0.056 N 
HETATM    3  H   UNL     1      39.723 -11.646  -0.061  1.00  0.00     0.278 HD
HETATM    4  H   UNL     1      41.316 -11.326  -0.362  1.00  0.00     0.278 HD
HETATM    5  C   UNL     1      40.455 -12.625  -1.785  1.00  0.00     0.209 C 
HETATM    6  C   UNL     1      39.327 -13.690  -1.783  1.00  0.00     0.115 C 
HETATM    7  N   UNL     1      39.504 -14.679  -0.720  1.00  0.00    -0.353 N 
HETATM    8  C   UNL     1      40.024 -14.395   0.521  1.00  0.00     0.249 C 
HETATM    9  O   UNL     1      39.828 -15.158   1.459  1.00  0.00    -0.271 OA
HETATM   10  C   UNL     1      40.188 -11.476  -2.756  1.00  0.00     0.035 C 
HETATM   11  C   UNL     1      38.789 -10.882  -2.616  1.00  0.00     0.002 C 
HETATM   12  C   UNL     1      37.715 -11.959  -2.712  1.00  0.00     0.002 C 
HETATM   13  C   UNL     1      37.929 -13.061  -1.679  1.00  0.00     0.027 C 
HETATM   14  H   UNL     1      38.911 -15.506  -0.729  1.00  0.00     0.163 HD
ENDROOT
BRANCH   1  15
HETATM   15  C   UNL     1      40.980 -12.600   2.050  1.00  0.00     0.146 C 
BRANCH  15  16
HETATM   16  C   UNL     1      42.400 -12.279   2.451  1.00  0.00     0.224 C 
HETATM   17  N   UNL     1      43.251 -13.235   2.906  1.00  0.00    -0.327 N 
HETATM   18  H   UNL     1      44.081 -12.844   3.342  1.00  0.00     0.169 HD
HETATM   19  O   UNL     1      42.776 -11.101   2.378  1.00  0.00    -0.273 OA
BRANCH  17  20
HETATM   20  C   UNL     1      43.150 -14.641   2.938  1.00  0.00     0.040 A 
HETATM   21  C   UNL     1      42.873 -15.271   4.170  1.00  0.00    -0.035 A 
HETATM   22  C   UNL     1      42.636 -14.497   5.440  1.00  0.00     0.050 C 
HETATM   23  C   UNL     1      42.801 -16.675   4.227  1.00  0.00     0.009 A 
HETATM   24  C   UNL     1      43.007 -17.447   3.087  1.00  0.00     0.001 A 
HETATM   25  C   UNL     1      43.303 -16.828   1.880  1.00  0.00     0.002 A 
HETATM   26  C   UNL     1      43.382 -15.435   1.807  1.00  0.00     0.030 A 
ENDBRANCH  17  20
ENDBRANCH  15  16
ENDBRANCH   1  15
TORSDOF 3
ENDMDL
MODEL 7
REMARK VINA RESULT:      -7.5      1.554      6.564
REMARK  3 active torsions:
REMARK  status: ('A' for Active; 'I' for Inactive)
REMARK    1  A    between atoms: C_3  and  N_4 
REMARK       I    between atoms: N_4  and  C_5 
REMARK    2  A    between atoms: C_5  and  C_6 
REMARK    3  A    between atoms: C_6  and  C_7 
ROOT
HETATM    1  C   UNL     1      42.480 -16.324   3.953  1.00  0.00     0.286 C 
HETATM    2  N   UNL     1      42.537 -17.646   3.197  1.00  0.00    -0.056 N 
HETATM    3  H   UNL     1      41.949 -18.312   3.744  1.00  0.00     0.278 HD
HETATM    4  H   UNL     1      42.084 -17.558   2.280  1.00  0.00     0.278 HD
HETATM    5  C   UNL     1      43.945 -18.170   3.065  1.00  0.00     0.209 C 
HETATM    6  C   UNL     1      44.547 -18.363   4.482  1.00  0.00     0.115 C 
HETATM    7  N   UNL     1      44.379 -17.176   5.320  1.00  0.00    -0.353 N 
HETATM    8  C   UNL     1      43.284 -16.346   5.272  1.00  0.00     0.249 C 
HETATM    9  O   UNL     1      43.041 -15.595   6.210  1.00  0.00    -0.271 OA
HETATM   10  C   UNL     1      43.935 -19.456   2.242  1.00  0.00     0.035 C 
HETATM   11  C   UNL     1      43.351 -20.648   2.995  1.00  0.00     0.002 C 
HETATM   12  C   UNL     1      44.039 -20.848   4.340  1.00  0.00     0.002 C 
HETATM   13  C   UNL     1      43.969 -19.592   5.201  1.00  0.00     0.027 C 
HETATM   14  H   UNL     1      44.874 -17.140   6.208  1.00  0.00     0.163 HD
ENDROOT
BRANCH   1  15
HETATM   15  C   UNL     1      41.031 -15.881   4.186  1.00  0.00     0.146 C 
BRANCH  15  16
HETATM   16  C   UNL     1      40.487 -15.218   2.944  1.00  0.00     0.224 C 
HETATM   17  N   UNL     1      40.682 -13.897   2.691  1.00  0.00    -0.327 N 
HETATM   18  H   UNL     1      40.081 -13.547   1.951  1.00  0.00     0.169 HD
HETATM   19  O   UNL     1      39.825 -15.906   2.154  1.00  0.00    -0.273 OA
BRANCH  17  20
HETATM   20  C   UNL     1      41.507 -12.936   3.312  1.00  0.00     0.040 A 
HETATM   21  C   UNL     1      40.945 -12.100   4.300  1.00  0.00    -0.035 A 
HETATM   22  C   UNL     1      39.512 -12.226   4.748  1.00  0.00     0.050 C 
HETATM   23  C   UNL     1      41.744 -11.114   4.906  1.00  0.00     0.009 A 
HETATM   24  C   UNL     1      43.077 -10.950   4.538  1.00  0.00     0.001 A 
HETATM   25  C   UNL     1      43.623 -11.756   3.549  1.00  0.00     0.002 A 
HETATM   26  C   UNL     1      42.841 -12.738   2.934  1.00  0.00     0.030 A 
ENDBRANCH  17  20
ENDBRANCH  15  16
ENDBRANCH   1  15
TORSDOF 3
ENDMDL
MODEL 8
REMARK VINA RESULT:      -7.4      2.555      4.166
REMARK  3 active torsions:
REMARK  status: ('A' for Active; 'I' for Inactive)
REMARK    1  A    between atoms: C_3  and  N_4 
REMARK       I    between atoms: N_4  and  C_5 
REMARK    2  A    between atoms: C_5  and  C_6 
REMARK    3  A    between atoms: C_6  and  C_7 
ROOT
HETATM    1  C   UNL     1      41.412 -11.795   4.717  1.00  0.00     0.286 C 
HETATM    2  N   UNL     1      40.218 -12.049   3.804  1.00  0.00    -0.056 N 
HETATM    3  H   UNL     1      40.517 -12.804   3.150  1.00  0.00     0.278 HD
HETATM    4  H   UNL     1      39.430 -12.433   4.339  1.00  0.00     0.278 HD
HETATM    5  C   UNL     1      39.812 -10.816   3.038  1.00  0.00     0.209 C 
HETATM    6  C   UNL     1      41.014 -10.331   2.186  1.00  0.00     0.115 C 
HETATM    7  N   UNL     1      42.241 -10.222   2.974  1.00  0.00    -0.353 N 
HETATM    8  C   UNL     1      42.575 -11.069   4.004  1.00  0.00     0.249 C 
HETATM    9  O   UNL     1      43.738 -11.145   4.384  1.00  0.00    -0.271 OA
HETATM   10  C   UNL     1      38.573 -11.124   2.199  1.00  0.00     0.035 C 
HETATM   11  C   UNL     1      38.866 -12.016   0.996  1.00  0.00     0.002 C 
HETATM   12  C   UNL     1      39.994 -11.447   0.143  1.00  0.00     0.002 C 
HETATM   13  C   UNL     1      41.262 -11.226   0.961  1.00  0.00     0.027 C 
HETATM   14  H   UNL     1      43.045  -9.764   2.550  1.00  0.00     0.163 HD
ENDROOT
BRANCH   1  15
HETATM   15  C   UNL     1      41.886 -13.092   5.384  1.00  0.00     0.146 C 
BRANCH  15  16
HETATM   16  C   UNL     1      40.701 -13.969   5.709  1.00  0.00     0.224 C 
HETATM   17  N   UNL     1      40.533 -15.189   5.137  1.00  0.00    -0.327 N 
HETATM   18  H   UNL     1      39.597 -15.560   5.274  1.00  0.00     0.169 HD
HETATM   19  O   UNL     1      39.854 -13.538   6.505  1.00  0.00    -0.273 OA
BRANCH  17  20
HETATM   20  C   UNL     1      41.392 -15.980   4.346  1.00  0.00     0.040 A 
HETATM   21  C   UNL     1      41.105 -16.122   2.971  1.00  0.00    -0.035 A 
HETATM   22  C   UNL     1      39.945 -15.426   2.310  1.00  0.00     0.050 C 
HETATM   23  C   UNL     1      41.933 -16.933   2.174  1.00  0.00     0.009 A 
HETATM   24  C   UNL     1      43.023 -17.601   2.725  1.00  0.00     0.001 A 
HETATM   25  C   UNL     1      43.291 -17.480   4.082  1.00  0.00     0.002 A 
HETATM   26  C   UNL     1      42.476 -16.681   4.889  1.00  0.00     0.030 A 
ENDBRANCH  17  20
ENDBRANCH  15  16
ENDBRANCH   1  15
TORSDOF 3
ENDMDL
MODEL 9
REMARK VINA RESULT:      -7.4      3.620      5.231
REMARK  3 active torsions:
REMARK  status: ('A' for Active; 'I' for Inactive)
REMARK    1  A    between atoms: C_3  and  N_4 
REMARK       I    between atoms: N_4  and  C_5 
REMARK    2  A    between atoms: C_5  and  C_6 
REMARK    3  A    between atoms: C_6  and  C_7 
ROOT
HETATM    1  C   UNL     1      40.622 -13.406   1.618  1.00  0.00     0.286 C 
HETATM    2  N   UNL     1      40.052 -13.901   0.293  1.00  0.00    -0.056 N 
HETATM    3  H   UNL     1      40.872 -14.225  -0.264  1.00  0.00     0.278 HD
HETATM    4  H   UNL     1      39.464 -14.729   0.440  1.00  0.00     0.278 HD
HETATM    5  C   UNL     1      39.304 -12.821  -0.446  1.00  0.00     0.209 C 
HETATM    6  C   UNL     1      40.265 -11.632  -0.713  1.00  0.00     0.115 C 
HETATM    7  N   UNL     1      40.971 -11.211   0.497  1.00  0.00    -0.353 N 
HETATM    8  C   UNL     1      41.385 -12.069   1.488  1.00  0.00     0.249 C 
HETATM    9  O   UNL     1      42.253 -11.720   2.280  1.00  0.00    -0.271 OA
HETATM   10  C   UNL     1      38.706 -13.402  -1.726  1.00  0.00     0.035 C 
HETATM   11  C   UNL     1      39.749 -13.691  -2.801  1.00  0.00     0.002 C 
HETATM   12  C   UNL     1      40.606 -12.464  -3.089  1.00  0.00     0.002 C 
HETATM   13  C   UNL     1      41.279 -11.938  -1.826  1.00  0.00     0.027 C 
HETATM   14  H   UNL     1      41.502 -10.344   0.466  1.00  0.00     0.163 HD
ENDROOT
BRANCH   1  15
HETATM   15  C   UNL     1      41.485 -14.482   2.287  1.00  0.00     0.146 C 
BRANCH  15  16
HETATM   16  C   UNL     1      40.608 -15.583   2.833  1.00  0.00     0.224 C 
HETATM   17  N   UNL     1      41.032 -16.414   3.822  1.00  0.00    -0.327 N 
HETATM   18  H   UNL     1      40.436 -17.230   3.929  1.00  0.00     0.169 HD
HETATM   19  O   UNL     1      39.482 -15.735   2.339  1.00  0.00    -0.273 OA
BRANCH  17  20
HETATM   20  C   UNL     1      42.166 -16.373   4.658  1.00  0.00     0.040 A 
HETATM   21  C   UNL     1      43.300 -17.132   4.296  1.00  0.00    -0.035 A 
HETATM   22  C   UNL     1      43.360 -17.945   3.030  1.00  0.00     0.050 C 
HETATM   23  C   UNL     1      44.428 -17.129   5.136  1.00  0.00     0.009 A 
HETATM   24  C   UNL     1      44.437 -16.395   6.319  1.00  0.00     0.001 A 
HETATM   25  C   UNL     1      43.313 -15.668   6.686  1.00  0.00     0.002 A 
HETATM   26  C   UNL     1      42.182 -15.663   5.866  1.00  0.00     0.030 A 
ENDBRANCH  17  20
ENDBRANCH  15  16
ENDBRANCH   1  15
TORSDOF 3
ENDMDL
MODEL 10
REMARK VINA RESULT:      -7.3      3.925      5.591
REMARK  3 active torsions:
REMARK  status: ('A' for Active; 'I' for Inactive)
REMARK    1  A    between atoms: C_3  and  N_4 
REMARK       I    between atoms: N_4  and  C_5 
REMARK    2  A    between atoms: C_5  and  C_6 
REMARK    3  A    between atoms: C_6  and  C_7 
ROOT
HETATM    1  C   UNL     1      44.238 -11.903   6.632  1.00  0.00     0.286 C 
HETATM    2  N   UNL     1      43.494 -11.280   7.808  1.00  0.00    -0.056 N 
HETATM    3  H   UNL     1      43.074 -10.399   7.443  1.00  0.00     0.278 HD
HETATM    4  H   UNL     1      42.705 -11.873   8.091  1.00  0.00     0.278 HD
HETATM    5  C   UNL     1      44.406 -10.989   8.972  1.00  0.00     0.209 C 
HETATM    6  C   UNL     1      45.528 -10.023   8.506  1.00  0.00     0.115 C 
HETATM    7  N   UNL     1      46.179 -10.485   7.280  1.00  0.00    -0.353 N 
HETATM    8  C   UNL     1      45.530 -11.141   6.261  1.00  0.00     0.249 C 
HETATM    9  O   UNL     1      46.031 -11.188   5.143  1.00  0.00    -0.271 OA
HETATM   10  C   UNL     1      43.586 -10.432  10.134  1.00  0.00     0.035 C 
HETATM   11  C   UNL     1      43.102  -9.004   9.900  1.00  0.00     0.002 C 
HETATM   12  C   UNL     1      44.256  -8.078   9.533  1.00  0.00     0.002 C 
HETATM   13  C   UNL     1      45.020  -8.585   8.315  1.00  0.00     0.027 C 
HETATM   14  H   UNL     1      47.027 -10.010   6.979  1.00  0.00     0.163 HD
ENDROOT
BRANCH   1  15
HETATM   15  C   UNL     1      43.316 -12.069   5.418  1.00  0.00     0.146 C 
BRANCH  15  16
HETATM   16  C   UNL     1      42.015 -12.709   5.840  1.00  0.00     0.224 C 
HETATM   17  N   UNL     1      41.837 -14.056   5.814  1.00  0.00    -0.327 N 
HETATM   18  H   UNL     1      40.861 -14.322   5.906  1.00  0.00     0.169 HD
HETATM   19  O   UNL     1      41.087 -11.969   6.195  1.00  0.00    -0.273 OA
BRANCH  17  20
HETATM   20  C   UNL     1      42.743 -15.118   5.617  1.00  0.00     0.040 A 
HETATM   21  C   UNL     1      42.641 -15.882   4.436  1.00  0.00    -0.035 A 
HETATM   22  C   UNL     1      41.633 -15.579   3.359  1.00  0.00     0.050 C 
HETATM   23  C   UNL     1      43.516 -16.966   4.238  1.00  0.00     0.009 A 
HETATM   24  C   UNL     1      44.472 -17.296   5.195  1.00  0.00     0.001 A 
HETATM   25  C   UNL     1      44.556 -16.558   6.368  1.00  0.00     0.002 A 
HETATM   26  C   UNL     1      43.692 -15.481   6.582  1.00  0.00     0.030 A 
ENDBRANCH  17  20
ENDBRANCH  15  16
ENDBRANCH   1  15
TORSDOF 3
ENDMDL
