MODEL 1
REMARK VINA RESULT:      -7.7      0.000      0.000
REMARK  5 active torsions:
REMARK  status: ('A' for Active; 'I' for Inactive)
REMARK    1  A    between atoms: C_3  and  N_4 
REMARK       I    between atoms: N_4  and  C_5 
REMARK       I    between atoms: C_5  and  N_6 
REMARK    2  A    between atoms: N_6  and  C_7 
REMARK    3  A    between atoms: C_7  and  C_8 
REMARK    4  A    between atoms: C_8  and  O_9 
REMARK    5  A    between atoms: O_9  and  C_10 
ROOT
HETATM    1  N   UNL     1      41.586 -13.633   2.529  1.00  0.00    -0.307 N 
HETATM    2  C   UNL     1      40.941 -13.582   3.728  1.00  0.00     0.320 C 
HETATM    3  N   UNL     1      41.736 -13.768   4.821  1.00  0.00    -0.340 N 
HETATM    4  O   UNL     1      39.754 -13.335   3.906  1.00  0.00    -0.247 OA
HETATM    5  H   UNL     1      42.477 -13.157   2.589  1.00  0.00     0.170 HD
HETATM    6  H   UNL     1      41.171 -13.683   5.657  1.00  0.00     0.164 HD
ENDROOT
BRANCH   3   7
HETATM    7  C   UNL     1      42.904 -14.640   4.959  1.00  0.00     0.156 C 
BRANCH   7   8
HETATM    8  C   UNL     1      42.665 -16.158   5.118  1.00  0.00     0.142 C 
HETATM    9  C   UNL     1      42.296 -16.460   6.571  1.00  0.00     0.042 C 
BRANCH   8  10
HETATM   10  O   UNL     1      43.880 -16.832   4.771  1.00  0.00    -0.343 OA
BRANCH  10  11
HETATM   11  C   UNL     1      43.854 -18.113   4.292  1.00  0.00     0.091 A 
HETATM   12  C   UNL     1      43.568 -18.264   2.924  1.00  0.00     0.067 A 
HETATM   13 CL   UNL     1      43.291 -16.891   1.908  1.00  0.00    -0.081 Cl
HETATM   14  C   UNL     1      43.508 -19.532   2.339  1.00  0.00     0.026 A 
HETATM   15  C   UNL     1      43.725 -20.666   3.118  1.00  0.00     0.002 A 
HETATM   16  C   UNL     1      43.998 -20.529   4.476  1.00  0.00     0.003 A 
HETATM   17  C   UNL     1      44.062 -19.260   5.063  1.00  0.00     0.038 A 
ENDBRANCH  10  11
ENDBRANCH   8  10
ENDBRANCH   7   8
ENDBRANCH   3   7
BRANCH   1  18
HETATM   18  C   UNL     1      40.991 -13.653   1.246  1.00  0.00     0.059 A 
HETATM   19  C   UNL     1      40.220 -14.694   0.708  1.00  0.00    -0.032 A 
HETATM   20  C   UNL     1      39.920 -15.990   1.406  1.00  0.00     0.050 C 
HETATM   21  C   UNL     1      39.691 -14.528  -0.586  1.00  0.00     0.028 A 
HETATM   22  C   UNL     1      39.994 -13.386  -1.310  1.00  0.00     0.117 A 
HETATM   23  N   UNL     1      40.780 -12.399  -0.846  1.00  0.00    -0.271 NA
HETATM   24  C   UNL     1      41.251 -12.557   0.413  1.00  0.00     0.146 A 
ENDBRANCH   1  18
TORSDOF 5
ENDMDL
MODEL 2
REMARK VINA RESULT:      -7.3      2.565      6.247
REMARK  5 active torsions:
REMARK  status: ('A' for Active; 'I' for Inactive)
REMARK    1  A    between atoms: C_3  and  N_4 
REMARK       I    between atoms: N_4  and  C_5 
REMARK       I    between atoms: C_5  and  N_6 
REMARK    2  A    between atoms: N_6  and  C_7 
REMARK    3  A    between atoms: C_7  and  C_8 
REMARK    4  A    between atoms: C_8  and  O_9 
REMARK    5  A    between atoms: O_9  and  C_10 
ROOT
HETATM    1  N   UNL     1      43.318 -17.096   5.610  1.00  0.00    -0.307 N 
HETATM    2  C   UNL     1      44.252 -16.233   6.100  1.00  0.00     0.320 C 
HETATM    3  N   UNL     1      43.756 -15.057   6.584  1.00  0.00    -0.340 N 
HETATM    4  O   UNL     1      45.456 -16.440   6.192  1.00  0.00    -0.247 OA
HETATM    5  H   UNL     1      42.499 -17.102   6.205  1.00  0.00     0.170 HD
HETATM    6  H   UNL     1      44.521 -14.503   6.949  1.00  0.00     0.164 HD
ENDROOT
BRANCH   3   7
HETATM    7  C   UNL     1      42.617 -14.278   6.092  1.00  0.00     0.156 C 
BRANCH   7   8
HETATM    8  C   UNL     1      42.674 -13.740   4.645  1.00  0.00     0.142 C 
HETATM    9  C   UNL     1      43.408 -12.398   4.636  1.00  0.00     0.042 C 
BRANCH   8  10
HETATM   10  O   UNL     1      41.328 -13.565   4.189  1.00  0.00    -0.343 OA
BRANCH  10  11
HETATM   11  C   UNL     1      40.958 -13.974   2.938  1.00  0.00     0.091 A 
HETATM   12  C   UNL     1      40.437 -15.276   2.834  1.00  0.00     0.067 A 
HETATM   13 CL   UNL     1      40.257 -16.285   4.227  1.00  0.00    -0.081 Cl
HETATM   14  C   UNL     1      40.037 -15.792   1.598  1.00  0.00     0.026 A 
HETATM   15  C   UNL     1      40.163 -15.016   0.449  1.00  0.00     0.002 A 
HETATM   16  C   UNL     1      40.688 -13.730   0.538  1.00  0.00     0.003 A 
HETATM   17  C   UNL     1      41.085 -13.210   1.775  1.00  0.00     0.038 A 
ENDBRANCH  10  11
ENDBRANCH   8  10
ENDBRANCH   7   8
ENDBRANCH   3   7
BRANCH   1  18
HETATM   18  C   UNL     1      43.561 -18.291   4.894  1.00  0.00     0.059 A 
HETATM   19  C   UNL     1      43.603 -18.425   3.498  1.00  0.00    -0.032 A 
HETATM   20  C   UNL     1      43.366 -17.309   2.520  1.00  0.00     0.050 C 
HETATM   21  C   UNL     1      43.878 -19.696   2.961  1.00  0.00     0.028 A 
HETATM   22  C   UNL     1      44.032 -20.781   3.810  1.00  0.00     0.117 A 
HETATM   23  N   UNL     1      43.935 -20.697   5.148  1.00  0.00    -0.271 NA
HETATM   24  C   UNL     1      43.708 -19.460   5.650  1.00  0.00     0.146 A 
ENDBRANCH   1  18
TORSDOF 5
ENDMDL
MODEL 3
REMARK VINA RESULT:      -7.3      1.480      1.876
REMARK  5 active torsions:
REMARK  status: ('A' for Active; 'I' for Inactive)
REMARK    1  A    between atoms: C_3  and  N_4 
REMARK       I    between atoms: N_4  and  C_5 
REMARK       I    between atoms: C_5  and  N_6 
REMARK    2  A    between atoms: N_6  and  C_7 
REMARK    3  A    between atoms: C_7  and  C_8 
REMARK    4  A    between atoms: C_8  and  O_9 
REMARK    5  A    between atoms: O_9  and  C_10 
ROOT
HETATM    1  N   UNL     1      40.913 -13.040   2.407  1.00  0.00    -0.307 N 
HETATM    2  C   UNL     1      40.034 -12.652   3.373  1.00  0.00     0.320 C 
HETATM    3  N   UNL     1      40.534 -12.646   4.642  1.00  0.00    -0.340 N 
HETATM    4  O   UNL     1      38.884 -12.267   3.197  1.00  0.00    -0.247 OA
HETATM    5  H   UNL     1      41.828 -12.643   2.585  1.00  0.00     0.170 HD
HETATM    6  H   UNL     1      39.816 -12.317   5.277  1.00  0.00     0.164 HD
ENDROOT
BRANCH   3   7
HETATM    7  C   UNL     1      41.508 -13.560   5.242  1.00  0.00     0.156 C 
BRANCH   7   8
HETATM    8  C   UNL     1      41.525 -15.026   4.755  1.00  0.00     0.142 C 
HETATM    9  C   UNL     1      41.035 -15.937   5.883  1.00  0.00     0.042 C 
BRANCH   8  10
HETATM   10  O   UNL     1      42.874 -15.358   4.409  1.00  0.00    -0.343 OA
BRANCH  10  11
HETATM   11  C   UNL     1      43.188 -16.605   3.945  1.00  0.00     0.091 A 
HETATM   12  C   UNL     1      44.076 -17.360   4.731  1.00  0.00     0.067 A 
HETATM   13 CL   UNL     1      44.710 -16.740   6.216  1.00  0.00    -0.081 Cl
HETATM   14  C   UNL     1      44.468 -18.643   4.340  1.00  0.00     0.026 A 
HETATM   15  C   UNL     1      43.983 -19.185   3.152  1.00  0.00     0.002 A 
HETATM   16  C   UNL     1      43.111 -18.442   2.360  1.00  0.00     0.003 A 
HETATM   17  C   UNL     1      42.715 -17.158   2.752  1.00  0.00     0.038 A 
ENDBRANCH  10  11
ENDBRANCH   8  10
ENDBRANCH   7   8
ENDBRANCH   3   7
BRANCH   1  18
HETATM   18  C   UNL     1      40.619 -13.308   1.050  1.00  0.00     0.059 A 
HETATM   19  C   UNL     1      40.129 -14.517   0.532  1.00  0.00    -0.032 A 
HETATM   20  C   UNL     1      39.860 -15.752   1.344  1.00  0.00     0.050 C 
HETATM   21  C   UNL     1      39.877 -14.593  -0.850  1.00  0.00     0.028 A 
HETATM   22  C   UNL     1      40.175 -13.511  -1.663  1.00  0.00     0.117 A 
HETATM   23  N   UNL     1      40.703 -12.362  -1.207  1.00  0.00    -0.271 NA
HETATM   24  C   UNL     1      40.905 -12.291   0.130  1.00  0.00     0.146 A 
ENDBRANCH   1  18
TORSDOF 5
ENDMDL
MODEL 4
REMARK VINA RESULT:      -7.3      4.035      6.240
REMARK  5 active torsions:
REMARK  status: ('A' for Active; 'I' for Inactive)
REMARK    1  A    between atoms: C_3  and  N_4 
REMARK       I    between atoms: N_4  and  C_5 
REMARK       I    between atoms: C_5  and  N_6 
REMARK    2  A    between atoms: N_6  and  C_7 
REMARK    3  A    between atoms: C_7  and  C_8 
REMARK    4  A    between atoms: C_8  and  O_9 
REMARK    5  A    between atoms: O_9  and  C_10 
ROOT
HETATM    1  N   UNL     1      42.806 -11.386   7.009  1.00  0.00    -0.307 N 
HETATM    2  C   UNL     1      42.308 -11.418   5.741  1.00  0.00     0.320 C 
HETATM    3  N   UNL     1      41.394 -12.403   5.503  1.00  0.00    -0.340 N 
HETATM    4  O   UNL     1      42.560 -10.627   4.840  1.00  0.00    -0.247 OA
HETATM    5  H   UNL     1      42.068 -11.561   7.680  1.00  0.00     0.170 HD
HETATM    6  H   UNL     1      41.065 -12.323   4.548  1.00  0.00     0.164 HD
ENDROOT
BRANCH   3   7
HETATM    7  C   UNL     1      41.356 -13.761   6.051  1.00  0.00     0.156 C 
BRANCH   7   8
HETATM    8  C   UNL     1      41.351 -14.945   5.060  1.00  0.00     0.142 C 
HETATM    9  C   UNL     1      40.786 -16.184   5.759  1.00  0.00     0.042 C 
BRANCH   8  10
HETATM   10  O   UNL     1      42.704 -15.186   4.656  1.00  0.00    -0.343 OA
BRANCH  10  11
HETATM   11  C   UNL     1      43.062 -16.380   4.094  1.00  0.00     0.091 A 
HETATM   12  C   UNL     1      44.002 -17.148   4.803  1.00  0.00     0.067 A 
HETATM   13 CL   UNL     1      44.644 -16.609   6.317  1.00  0.00    -0.081 Cl
HETATM   14  C   UNL     1      44.441 -18.379   4.310  1.00  0.00     0.026 A 
HETATM   15  C   UNL     1      43.951 -18.855   3.096  1.00  0.00     0.002 A 
HETATM   16  C   UNL     1      43.028 -18.097   2.379  1.00  0.00     0.003 A 
HETATM   17  C   UNL     1      42.585 -16.865   2.874  1.00  0.00     0.038 A 
ENDBRANCH  10  11
ENDBRANCH   8  10
ENDBRANCH   7   8
ENDBRANCH   3   7
BRANCH   1  18
HETATM   18  C   UNL     1      43.882 -10.597   7.478  1.00  0.00     0.059 A 
HETATM   19  C   UNL     1      43.781  -9.328   8.069  1.00  0.00    -0.032 A 
HETATM   20  C   UNL     1      42.497  -8.578   8.279  1.00  0.00     0.050 C 
HETATM   21  C   UNL     1      44.966  -8.699   8.494  1.00  0.00     0.028 A 
HETATM   22  C   UNL     1      46.189  -9.308   8.261  1.00  0.00     0.117 A 
HETATM   23  N   UNL     1      46.322 -10.493   7.641  1.00  0.00    -0.271 NA
HETATM   24  C   UNL     1      45.171 -11.103   7.272  1.00  0.00     0.146 A 
ENDBRANCH   1  18
TORSDOF 5
ENDMDL
MODEL 5
REMARK VINA RESULT:      -7.3      1.904      2.960
REMARK  5 active torsions:
REMARK  status: ('A' for Active; 'I' for Inactive)
REMARK    1  A    between atoms: C_3  and  N_4 
REMARK       I    between atoms: N_4  and  C_5 
REMARK       I    between atoms: C_5  and  N_6 
REMARK    2  A    between atoms: N_6  and  C_7 
REMARK    3  A    between atoms: C_7  and  C_8 
REMARK    4  A    between atoms: C_8  and  O_9 
REMARK    5  A    between atoms: O_9  and  C_10 
ROOT
HETATM    1  N   UNL     1      41.306 -13.739  -0.102  1.00  0.00    -0.307 N 
HETATM    2  C   UNL     1      41.167 -13.654   1.251  1.00  0.00     0.320 C 
HETATM    3  N   UNL     1      42.188 -14.201   1.973  1.00  0.00    -0.340 N 
HETATM    4  O   UNL     1      40.259 -13.096   1.855  1.00  0.00    -0.247 OA
HETATM    5  H   UNL     1      42.265 -13.556  -0.368  1.00  0.00     0.170 HD
HETATM    6  H   UNL     1      42.005 -14.060   2.959  1.00  0.00     0.164 HD
ENDROOT
BRANCH   3   7
HETATM    7  C   UNL     1      42.989 -15.387   1.663  1.00  0.00     0.156 C 
BRANCH   7   8
HETATM    8  C   UNL     1      42.608 -16.720   2.342  1.00  0.00     0.142 C 
HETATM    9  C   UNL     1      41.485 -16.470   3.349  1.00  0.00     0.042 C 
BRANCH   8  10
HETATM   10  O   UNL     1      43.770 -17.216   3.017  1.00  0.00    -0.343 OA
BRANCH  10  11
HETATM   11  C   UNL     1      43.806 -18.499   3.491  1.00  0.00     0.091 A 
HETATM   12  C   UNL     1      43.987 -18.648   4.877  1.00  0.00     0.067 A 
HETATM   13 CL   UNL     1      44.130 -17.273   5.918  1.00  0.00    -0.081 Cl
HETATM   14  C   UNL     1      44.048 -19.916   5.460  1.00  0.00     0.026 A 
HETATM   15  C   UNL     1      43.937 -21.052   4.663  1.00  0.00     0.002 A 
HETATM   16  C   UNL     1      43.768 -20.917   3.287  1.00  0.00     0.003 A 
HETATM   17  C   UNL     1      43.704 -19.647   2.702  1.00  0.00     0.038 A 
ENDBRANCH  10  11
ENDBRANCH   8  10
ENDBRANCH   7   8
ENDBRANCH   3   7
BRANCH   1  18
HETATM   18  C   UNL     1      40.331 -13.422  -1.076  1.00  0.00     0.059 A 
HETATM   19  C   UNL     1      40.203 -12.198  -1.750  1.00  0.00    -0.032 A 
HETATM   20  C   UNL     1      41.076 -10.997  -1.522  1.00  0.00     0.050 C 
HETATM   21  C   UNL     1      39.178 -12.071  -2.706  1.00  0.00     0.028 A 
HETATM   22  C   UNL     1      38.294 -13.118  -2.908  1.00  0.00     0.117 A 
HETATM   23  N   UNL     1      38.352 -14.280  -2.233  1.00  0.00    -0.271 NA
HETATM   24  C   UNL     1      39.366 -14.400  -1.345  1.00  0.00     0.146 A 
ENDBRANCH   1  18
TORSDOF 5
ENDMDL
MODEL 6
REMARK VINA RESULT:      -7.2      1.697      2.461
REMARK  5 active torsions:
REMARK  status: ('A' for Active; 'I' for Inactive)
REMARK    1  A    between atoms: C_3  and  N_4 
REMARK       I    between atoms: N_4  and  C_5 
REMARK       I    between atoms: C_5  and  N_6 
REMARK    2  A    between atoms: N_6  and  C_7 
REMARK    3  A    between atoms: C_7  and  C_8 
REMARK    4  A    between atoms: C_8  and  O_9 
REMARK    5  A    between atoms: O_9  and  C_10 
ROOT
HETATM    1  N   UNL     1      41.862 -14.414   4.522  1.00  0.00    -0.307 N 
HETATM    2  C   UNL     1      41.305 -14.494   5.763  1.00  0.00     0.320 C 
HETATM    3  N   UNL     1      41.799 -15.490   6.555  1.00  0.00    -0.340 N 
HETATM    4  O   UNL     1      40.466 -13.737   6.233  1.00  0.00    -0.247 OA
HETATM    5  H   UNL     1      42.862 -14.567   4.575  1.00  0.00     0.170 HD
HETATM    6  H   UNL     1      41.344 -15.446   7.459  1.00  0.00     0.164 HD
ENDROOT
BRANCH   3   7
HETATM    7  C   UNL     1      42.251 -16.826   6.162  1.00  0.00     0.156 C 
BRANCH   7   8
HETATM    8  C   UNL     1      43.765 -17.126   6.209  1.00  0.00     0.142 C 
HETATM    9  C   UNL     1      44.485 -15.969   6.904  1.00  0.00     0.042 C 
BRANCH   8  10
HETATM   10  O   UNL     1      44.229 -17.253   4.861  1.00  0.00    -0.343 OA
BRANCH  10  11
HETATM   11  C   UNL     1      44.017 -18.405   4.156  1.00  0.00     0.091 A 
HETATM   12  C   UNL     1      43.561 -18.256   2.834  1.00  0.00     0.067 A 
HETATM   13 CL   UNL     1      43.310 -16.690   2.143  1.00  0.00    -0.081 Cl
HETATM   14  C   UNL     1      43.305 -19.372   2.033  1.00  0.00     0.026 A 
HETATM   15  C   UNL     1      43.494 -20.652   2.547  1.00  0.00     0.002 A 
HETATM   16  C   UNL     1      43.935 -20.813   3.858  1.00  0.00     0.003 A 
HETATM   17  C   UNL     1      44.195 -19.696   4.661  1.00  0.00     0.038 A 
ENDBRANCH  10  11
ENDBRANCH   8  10
ENDBRANCH   7   8
ENDBRANCH   3   7
BRANCH   1  18
HETATM   18  C   UNL     1      41.425 -13.607   3.447  1.00  0.00     0.059 A 
HETATM   19  C   UNL     1      42.113 -12.512   2.901  1.00  0.00    -0.032 A 
HETATM   20  C   UNL     1      43.434 -11.994   3.396  1.00  0.00     0.050 C 
HETATM   21  C   UNL     1      41.529 -11.835   1.815  1.00  0.00     0.028 A 
HETATM   22  C   UNL     1      40.277 -12.218   1.360  1.00  0.00     0.117 A 
HETATM   23  N   UNL     1      39.565 -13.222   1.902  1.00  0.00    -0.271 NA
HETATM   24  C   UNL     1      40.158 -13.887   2.921  1.00  0.00     0.146 A 
ENDBRANCH   1  18
TORSDOF 5
ENDMDL
MODEL 7
REMARK VINA RESULT:      -7.2      2.610      5.246
REMARK  5 active torsions:
REMARK  status: ('A' for Active; 'I' for Inactive)
REMARK    1  A    between atoms: C_3  and  N_4 
REMARK       I    between atoms: N_4  and  C_5 
REMARK       I    between atoms: C_5  and  N_6 
REMARK    2  A    between atoms: N_6  and  C_7 
REMARK    3  A    between atoms: C_7  and  C_8 
REMARK    4  A    between atoms: C_8  and  O_9 
REMARK    5  A    between atoms: O_9  and  C_10 
ROOT
HETATM    1  N   UNL     1      41.436 -12.934   5.053  1.00  0.00    -0.307 N 
HETATM    2  C   UNL     1      40.081 -13.009   5.167  1.00  0.00     0.320 C 
HETATM    3  N   UNL     1      39.445 -13.610   4.119  1.00  0.00    -0.340 N 
HETATM    4  O   UNL     1      39.410 -12.646   6.125  1.00  0.00    -0.247 OA
HETATM    5  H   UNL     1      41.805 -13.794   4.667  1.00  0.00     0.170 HD
HETATM    6  H   UNL     1      38.451 -13.643   4.313  1.00  0.00     0.164 HD
ENDROOT
BRANCH   3   7
HETATM    7  C   UNL     1      39.789 -13.562   2.697  1.00  0.00     0.156 C 
BRANCH   7   8
HETATM    8  C   UNL     1      40.615 -14.726   2.108  1.00  0.00     0.142 C 
HETATM    9  C   UNL     1      39.992 -15.166   0.782  1.00  0.00     0.042 C 
BRANCH   8  10
HETATM   10  O   UNL     1      40.582 -15.806   3.047  1.00  0.00    -0.343 OA
BRANCH  10  11
HETATM   11  C   UNL     1      41.709 -16.534   3.312  1.00  0.00     0.091 A 
HETATM   12  C   UNL     1      41.975 -16.805   4.666  1.00  0.00     0.067 A 
HETATM   13 CL   UNL     1      40.910 -16.262   5.916  1.00  0.00    -0.081 Cl
HETATM   14  C   UNL     1      43.106 -17.534   5.043  1.00  0.00     0.026 A 
HETATM   15  C   UNL     1      43.992 -17.993   4.071  1.00  0.00     0.002 A 
HETATM   16  C   UNL     1      43.745 -17.721   2.728  1.00  0.00     0.003 A 
HETATM   17  C   UNL     1      42.611 -16.994   2.348  1.00  0.00     0.038 A 
ENDBRANCH  10  11
ENDBRANCH   8  10
ENDBRANCH   7   8
ENDBRANCH   3   7
BRANCH   1  18
HETATM   18  C   UNL     1      42.319 -12.215   5.892  1.00  0.00     0.059 A 
HETATM   19  C   UNL     1      43.384 -12.755   6.629  1.00  0.00    -0.032 A 
HETATM   20  C   UNL     1      43.748 -14.212   6.670  1.00  0.00     0.050 C 
HETATM   21  C   UNL     1      44.171 -11.878   7.398  1.00  0.00     0.028 A 
HETATM   22  C   UNL     1      43.840 -10.534   7.460  1.00  0.00     0.117 A 
HETATM   23  N   UNL     1      42.789  -9.997   6.816  1.00  0.00    -0.271 NA
HETATM   24  C   UNL     1      42.065 -10.847   6.051  1.00  0.00     0.146 A 
ENDBRANCH   1  18
TORSDOF 5
ENDMDL
MODEL 8
REMARK VINA RESULT:      -7.1      4.054      6.445
REMARK  5 active torsions:
REMARK  status: ('A' for Active; 'I' for Inactive)
REMARK    1  A    between atoms: C_3  and  N_4 
REMARK       I    between atoms: N_4  and  C_5 
REMARK       I    between atoms: C_5  and  N_6 
REMARK    2  A    between atoms: N_6  and  C_7 
REMARK    3  A    between atoms: C_7  and  C_8 
REMARK    4  A    between atoms: C_8  and  O_9 
REMARK    5  A    between atoms: O_9  and  C_10 
ROOT
HETATM    1  N   UNL     1      42.203 -10.687   6.973  1.00  0.00    -0.307 N 
HETATM    2  C   UNL     1      41.693 -10.679   5.710  1.00  0.00     0.320 C 
HETATM    3  N   UNL     1      40.554 -11.412   5.541  1.00  0.00    -0.340 N 
HETATM    4  O   UNL     1      42.124 -10.044   4.755  1.00  0.00    -0.247 OA
HETATM    5  H   UNL     1      41.456 -10.620   7.654  1.00  0.00     0.170 HD
HETATM    6  H   UNL     1      40.241 -11.317   4.582  1.00  0.00     0.164 HD
ENDROOT
BRANCH   3   7
HETATM    7  C   UNL     1      40.178 -12.672   6.185  1.00  0.00     0.156 C 
BRANCH   7   8
HETATM    8  C   UNL     1      40.699 -13.988   5.568  1.00  0.00     0.142 C 
HETATM    9  C   UNL     1      41.968 -14.422   6.303  1.00  0.00     0.042 C 
BRANCH   8  10
HETATM   10  O   UNL     1      40.992 -13.740   4.188  1.00  0.00    -0.343 OA
BRANCH  10  11
HETATM   11  C   UNL     1      41.606 -14.693   3.423  1.00  0.00     0.091 A 
HETATM   12  C   UNL     1      42.780 -14.301   2.758  1.00  0.00     0.067 A 
HETATM   13 CL   UNL     1      43.417 -12.701   2.927  1.00  0.00    -0.081 Cl
HETATM   14  C   UNL     1      43.477 -15.198   1.943  1.00  0.00     0.026 A 
HETATM   15  C   UNL     1      43.003 -16.497   1.778  1.00  0.00     0.002 A 
HETATM   16  C   UNL     1      41.834 -16.893   2.424  1.00  0.00     0.003 A 
HETATM   17  C   UNL     1      41.137 -15.997   3.242  1.00  0.00     0.038 A 
ENDBRANCH  10  11
ENDBRANCH   8  10
ENDBRANCH   7   8
ENDBRANCH   3   7
BRANCH   1  18
HETATM   18  C   UNL     1      43.452 -10.170   7.386  1.00  0.00     0.059 A 
HETATM   19  C   UNL     1      44.690 -10.827   7.299  1.00  0.00    -0.032 A 
HETATM   20  C   UNL     1      44.887 -12.218   6.770  1.00  0.00     0.050 C 
HETATM   21  C   UNL     1      45.836 -10.144   7.745  1.00  0.00     0.028 A 
HETATM   22  C   UNL     1      45.709  -8.886   8.312  1.00  0.00     0.117 A 
HETATM   23  N   UNL     1      44.532  -8.256   8.467  1.00  0.00    -0.271 NA
HETATM   24  C   UNL     1      43.443  -8.911   7.999  1.00  0.00     0.146 A 
ENDBRANCH   1  18
TORSDOF 5
ENDMDL
MODEL 9
REMARK VINA RESULT:      -7.0      4.616      7.619
REMARK  5 active torsions:
REMARK  status: ('A' for Active; 'I' for Inactive)
REMARK    1  A    between atoms: C_3  and  N_4 
REMARK       I    between atoms: N_4  and  C_5 
REMARK       I    between atoms: C_5  and  N_6 
REMARK    2  A    between atoms: N_6  and  C_7 
REMARK    3  A    between atoms: C_7  and  C_8 
REMARK    4  A    between atoms: C_8  and  O_9 
REMARK    5  A    between atoms: O_9  and  C_10 
ROOT
HETATM    1  N   UNL     1      42.886 -15.383   5.031  1.00  0.00    -0.307 N 
HETATM    2  C   UNL     1      42.317 -15.314   6.267  1.00  0.00     0.320 C 
HETATM    3  N   UNL     1      42.281 -14.067   6.819  1.00  0.00    -0.340 N 
HETATM    4  O   UNL     1      41.800 -16.239   6.881  1.00  0.00    -0.247 OA
HETATM    5  H   UNL     1      42.599 -14.591   4.468  1.00  0.00     0.170 HD
HETATM    6  H   UNL     1      41.816 -14.118   7.717  1.00  0.00     0.164 HD
ENDROOT
BRANCH   3   7
HETATM    7  C   UNL     1      43.268 -12.991   6.702  1.00  0.00     0.156 C 
BRANCH   7   8
HETATM    8  C   UNL     1      42.772 -11.592   6.277  1.00  0.00     0.142 C 
HETATM    9  C   UNL     1      42.530 -11.581   4.766  1.00  0.00     0.042 C 
BRANCH   8  10
HETATM   10  O   UNL     1      43.790 -10.644   6.616  1.00  0.00    -0.343 OA
BRANCH  10  11
HETATM   11  C   UNL     1      43.913 -10.182   7.898  1.00  0.00     0.091 A 
HETATM   12  C   UNL     1      45.205 -10.207   8.451  1.00  0.00     0.067 A 
HETATM   13 CL   UNL     1      46.562 -10.773   7.538  1.00  0.00    -0.081 Cl
HETATM   14  C   UNL     1      45.435  -9.766   9.757  1.00  0.00     0.026 A 
HETATM   15  C   UNL     1      44.374  -9.302  10.530  1.00  0.00     0.002 A 
HETATM   16  C   UNL     1      43.088  -9.282   9.996  1.00  0.00     0.003 A 
HETATM   17  C   UNL     1      42.856  -9.720   8.687  1.00  0.00     0.038 A 
ENDBRANCH  10  11
ENDBRANCH   8  10
ENDBRANCH   7   8
ENDBRANCH   3   7
BRANCH   1  18
HETATM   18  C   UNL     1      43.213 -16.555   4.311  1.00  0.00     0.059 A 
HETATM   19  C   UNL     1      42.594 -17.004   3.134  1.00  0.00    -0.032 A 
HETATM   20  C   UNL     1      41.447 -16.316   2.451  1.00  0.00     0.050 C 
HETATM   21  C   UNL     1      43.069 -18.190   2.546  1.00  0.00     0.028 A 
HETATM   22  C   UNL     1      44.076 -18.911   3.168  1.00  0.00     0.117 A 
HETATM   23  N   UNL     1      44.646 -18.541   4.328  1.00  0.00    -0.271 NA
HETATM   24  C   UNL     1      44.204 -17.378   4.862  1.00  0.00     0.146 A 
ENDBRANCH   1  18
TORSDOF 5
ENDMDL
MODEL 10
REMARK VINA RESULT:      -7.0      2.704      4.902
REMARK  5 active torsions:
REMARK  status: ('A' for Active; 'I' for Inactive)
REMARK    1  A    between atoms: C_3  and  N_4 
REMARK       I    between atoms: N_4  and  C_5 
REMARK       I    between atoms: C_5  and  N_6 
REMARK    2  A    between atoms: N_6  and  C_7 
REMARK    3  A    between atoms: C_7  and  C_8 
REMARK    4  A    between atoms: C_8  and  O_9 
REMARK    5  A    between atoms: O_9  and  C_10 
ROOT
HETATM    1  N   UNL     1      41.877 -12.479   4.758  1.00  0.00    -0.307 N 
HETATM    2  C   UNL     1      42.430 -12.967   3.612  1.00  0.00     0.320 C 
HETATM    3  N   UNL     1      41.604 -13.753   2.861  1.00  0.00    -0.340 N 
HETATM    4  O   UNL     1      43.551 -12.723   3.183  1.00  0.00    -0.247 OA
HETATM    5  H   UNL     1      40.921 -12.190   4.591  1.00  0.00     0.170 HD
HETATM    6  H   UNL     1      42.096 -14.039   2.023  1.00  0.00     0.164 HD
ENDROOT
BRANCH   3   7
HETATM    7  C   UNL     1      40.577 -14.692   3.318  1.00  0.00     0.156 C 
BRANCH   7   8
HETATM    8  C   UNL     1      41.036 -15.985   4.027  1.00  0.00     0.142 C 
HETATM    9  C   UNL     1      40.858 -15.821   5.537  1.00  0.00     0.042 C 
BRANCH   8  10
HETATM   10  O   UNL     1      42.419 -16.188   3.716  1.00  0.00    -0.343 OA
BRANCH  10  11
HETATM   11  C   UNL     1      42.893 -17.439   3.431  1.00  0.00     0.091 A 
HETATM   12  C   UNL     1      43.768 -18.006   4.375  1.00  0.00     0.067 A 
HETATM   13 CL   UNL     1      44.192 -17.165   5.825  1.00  0.00    -0.081 Cl
HETATM   14  C   UNL     1      44.315 -19.277   4.173  1.00  0.00     0.026 A 
HETATM   15  C   UNL     1      44.001 -19.992   3.021  1.00  0.00     0.002 A 
HETATM   16  C   UNL     1      43.144 -19.436   2.074  1.00  0.00     0.003 A 
HETATM   17  C   UNL     1      42.593 -18.165   2.276  1.00  0.00     0.038 A 
ENDBRANCH  10  11
ENDBRANCH   8  10
ENDBRANCH   7   8
ENDBRANCH   3   7
BRANCH   1  18
HETATM   18  C   UNL     1      42.548 -11.796   5.799  1.00  0.00     0.059 A 
HETATM   19  C   UNL     1      43.467 -12.357   6.699  1.00  0.00    -0.032 A 
HETATM   20  C   UNL     1      43.873 -13.803   6.722  1.00  0.00     0.050 C 
HETATM   21  C   UNL     1      44.051 -11.514   7.662  1.00  0.00     0.028 A 
HETATM   22  C   UNL     1      43.662 -10.187   7.740  1.00  0.00     0.117 A 
HETATM   23  N   UNL     1      42.739  -9.635   6.933  1.00  0.00    -0.271 NA
HETATM   24  C   UNL     1      42.214 -10.449   5.988  1.00  0.00     0.146 A 
ENDBRANCH   1  18
TORSDOF 5
ENDMDL
