MODEL 1
REMARK VINA RESULT:      -7.9      0.000      0.000
REMARK  7 active torsions:
REMARK  status: ('A' for Active; 'I' for Inactive)
REMARK    1  A    between atoms: C_2  and  C_3 
REMARK    2  A    between atoms: C_3  and  N_4 
REMARK       I    between atoms: N_4  and  C_5 
REMARK    3  A    between atoms: C_5  and  C_6 
REMARK    4  A    between atoms: C_9  and  N_10 
REMARK       I    between atoms: N_10  and  C_11 
REMARK    5  A    between atoms: C_11  and  C_12 
REMARK    6  A    between atoms: C_14  and  O_15 
REMARK    7  A    between atoms: O_15  and  C_16 
ROOT
HETATM    1  N   UNL     1      43.646 -12.877   6.692  1.00  0.00    -0.323 N 
HETATM    2  C   UNL     1      44.485 -11.801   6.456  1.00  0.00     0.256 C 
HETATM    3  O   UNL     1      45.020 -11.514   5.392  1.00  0.00    -0.267 OA
HETATM    4  H   UNL     1      43.146 -12.891   7.570  1.00  0.00     0.169 HD
ENDROOT
BRANCH   1   5
HETATM    5  C   UNL     1      43.401 -13.972   5.838  1.00  0.00     0.035 A 
HETATM    6  C   UNL     1      42.717 -13.882   4.624  1.00  0.00     0.030 A 
HETATM    7  C   UNL     1      42.578 -15.005   3.795  1.00  0.00     0.019 A 
HETATM    8  C   UNL     1      43.137 -16.231   4.168  1.00  0.00     0.032 A 
HETATM    9  C   UNL     1      43.790 -16.332   5.402  1.00  0.00     0.019 A 
HETATM   10  C   UNL     1      43.920 -15.212   6.229  1.00  0.00     0.030 A 
BRANCH   8  11
HETATM   11  C   UNL     1      43.079 -17.447   3.305  1.00  0.00     0.251 C 
HETATM   12  N   UNL     1      43.941 -18.480   3.621  1.00  0.00    -0.357 N 
HETATM   13  H   UNL     1      44.468 -18.441   4.482  1.00  0.00     0.162 HD
HETATM   14  O   UNL     1      42.259 -17.511   2.396  1.00  0.00    -0.268 OA
BRANCH  12  15
HETATM   15  C   UNL     1      43.866 -19.760   2.944  1.00  0.00     0.122 C 
BRANCH  15  16
HETATM   16  C   UNL     1      43.891 -20.953   3.897  1.00  0.00     0.015 C 
HETATM   17  C   UNL     1      43.994 -20.540   5.357  1.00  0.00     0.006 C 
ENDBRANCH  15  16
ENDBRANCH  12  15
ENDBRANCH   8  11
ENDBRANCH   1   5
BRANCH   2  18
HETATM   18  C   UNL     1      44.745 -10.922   7.633  1.00  0.00     0.037 A 
HETATM   19  C   UNL     1      43.789 -10.866   8.647  1.00  0.00     0.075 A 
HETATM   20  C   UNL     1      44.006  -9.987   9.689  1.00  0.00     0.165 A 
HETATM   21  N   UNL     1      45.093  -9.193   9.793  1.00  0.00    -0.237 NA
HETATM   22  C   UNL     1      45.998  -9.264   8.798  1.00  0.00     0.120 A 
HETATM   23  C   UNL     1      45.870 -10.097   7.701  1.00  0.00     0.036 A 
BRANCH  20  24
HETATM   24  O   UNL     1      43.033  -9.922  10.667  1.00  0.00    -0.329 OA
BRANCH  24  25
HETATM   25  C   UNL     1      43.413  -9.254  11.890  1.00  0.00     0.130 C 
HETATM   26  C   UNL     1      42.908  -7.794  12.018  1.00  0.00     0.032 C 
HETATM   27  C   UNL     1      42.703  -8.064  13.519  1.00  0.00     0.005 C 
HETATM   28  C   UNL     1      42.572  -9.555  13.159  1.00  0.00     0.032 C 
ENDBRANCH  24  25
ENDBRANCH  20  24
ENDBRANCH   2  18
TORSDOF 7
ENDMDL
MODEL 2
REMARK VINA RESULT:      -7.8      3.529     11.258
REMARK  7 active torsions:
REMARK  status: ('A' for Active; 'I' for Inactive)
REMARK    1  A    between atoms: C_2  and  C_3 
REMARK    2  A    between atoms: C_3  and  N_4 
REMARK       I    between atoms: N_4  and  C_5 
REMARK    3  A    between atoms: C_5  and  C_6 
REMARK    4  A    between atoms: C_9  and  N_10 
REMARK       I    between atoms: N_10  and  C_11 
REMARK    5  A    between atoms: C_11  and  C_12 
REMARK    6  A    between atoms: C_14  and  O_15 
REMARK    7  A    between atoms: O_15  and  C_16 
ROOT
HETATM    1  N   UNL     1      43.381  -8.993  11.159  1.00  0.00    -0.323 N 
HETATM    2  C   UNL     1      44.007 -10.189  10.854  1.00  0.00     0.256 C 
HETATM    3  O   UNL     1      44.060 -11.186  11.564  1.00  0.00    -0.267 OA
HETATM    4  H   UNL     1      43.274  -8.321  10.412  1.00  0.00     0.169 HD
ENDROOT
BRANCH   1   5
HETATM    5  C   UNL     1      42.866  -8.594  12.410  1.00  0.00     0.035 A 
HETATM    6  C   UNL     1      41.821  -9.243  13.070  1.00  0.00     0.030 A 
HETATM    7  C   UNL     1      41.414  -8.830  14.347  1.00  0.00     0.019 A 
HETATM    8  C   UNL     1      42.060  -7.766  14.984  1.00  0.00     0.032 A 
HETATM    9  C   UNL     1      43.081  -7.089  14.308  1.00  0.00     0.019 A 
HETATM   10  C   UNL     1      43.480  -7.500  13.031  1.00  0.00     0.030 A 
BRANCH   8  11
HETATM   11  C   UNL     1      41.718  -7.317  16.365  1.00  0.00     0.251 C 
HETATM   12  N   UNL     1      41.177  -8.263  17.214  1.00  0.00    -0.357 N 
HETATM   13  H   UNL     1      41.159  -9.233  16.931  1.00  0.00     0.162 HD
HETATM   14  O   UNL     1      41.964  -6.166  16.711  1.00  0.00    -0.268 OA
BRANCH  12  15
HETATM   15  C   UNL     1      40.946  -7.976  18.617  1.00  0.00     0.122 C 
BRANCH  15  16
HETATM   16  C   UNL     1      39.501  -8.207  19.055  1.00  0.00     0.015 C 
HETATM   17  C   UNL     1      39.390  -8.660  20.502  1.00  0.00     0.006 C 
ENDBRANCH  15  16
ENDBRANCH  12  15
ENDBRANCH   8  11
ENDBRANCH   1   5
BRANCH   2  18
HETATM   18  C   UNL     1      44.674 -10.239   9.521  1.00  0.00     0.037 A 
HETATM   19  C   UNL     1      44.325 -11.260   8.638  1.00  0.00     0.075 A 
HETATM   20  C   UNL     1      45.009 -11.341   7.441  1.00  0.00     0.165 A 
HETATM   21  N   UNL     1      45.982 -10.483   7.069  1.00  0.00    -0.237 NA
HETATM   22  C   UNL     1      46.305  -9.509   7.943  1.00  0.00     0.120 A 
HETATM   23  C   UNL     1      45.694  -9.348   9.174  1.00  0.00     0.036 A 
BRANCH  20  24
HETATM   24  O   UNL     1      44.671 -12.378   6.594  1.00  0.00    -0.329 OA
BRANCH  24  25
HETATM   25  C   UNL     1      43.555 -13.193   7.012  1.00  0.00     0.130 C 
HETATM   26  C   UNL     1      42.328 -13.153   6.064  1.00  0.00     0.032 C 
HETATM   27  C   UNL     1      42.122 -14.647   6.372  1.00  0.00     0.005 C 
HETATM   28  C   UNL     1      43.625 -14.713   6.702  1.00  0.00     0.032 C 
ENDBRANCH  24  25
ENDBRANCH  20  24
ENDBRANCH   2  18
TORSDOF 7
ENDMDL
MODEL 3
REMARK VINA RESULT:      -7.8      1.650      2.083
REMARK  7 active torsions:
REMARK  status: ('A' for Active; 'I' for Inactive)
REMARK    1  A    between atoms: C_2  and  C_3 
REMARK    2  A    between atoms: C_3  and  N_4 
REMARK       I    between atoms: N_4  and  C_5 
REMARK    3  A    between atoms: C_5  and  C_6 
REMARK    4  A    between atoms: C_9  and  N_10 
REMARK       I    between atoms: N_10  and  C_11 
REMARK    5  A    between atoms: C_11  and  C_12 
REMARK    6  A    between atoms: C_14  and  O_15 
REMARK    7  A    between atoms: O_15  and  C_16 
ROOT
HETATM    1  N   UNL     1      42.907 -12.760   6.995  1.00  0.00    -0.323 N 
HETATM    2  C   UNL     1      43.953 -11.885   7.229  1.00  0.00     0.256 C 
HETATM    3  O   UNL     1      45.138 -12.084   6.988  1.00  0.00    -0.267 OA
HETATM    4  H   UNL     1      41.969 -12.396   7.085  1.00  0.00     0.169 HD
ENDROOT
BRANCH   1   5
HETATM    5  C   UNL     1      42.996 -14.121   6.638  1.00  0.00     0.035 A 
HETATM    6  C   UNL     1      43.032 -14.586   5.322  1.00  0.00     0.030 A 
HETATM    7  C   UNL     1      43.197 -15.952   5.048  1.00  0.00     0.019 A 
HETATM    8  C   UNL     1      43.341 -16.869   6.094  1.00  0.00     0.032 A 
HETATM    9  C   UNL     1      43.266 -16.410   7.414  1.00  0.00     0.019 A 
HETATM   10  C   UNL     1      43.095 -15.048   7.682  1.00  0.00     0.030 A 
BRANCH   8  11
HETATM   11  C   UNL     1      43.580 -18.325   5.871  1.00  0.00     0.251 C 
HETATM   12  N   UNL     1      44.190 -18.683   4.685  1.00  0.00    -0.357 N 
HETATM   13  H   UNL     1      44.571 -17.965   4.084  1.00  0.00     0.162 HD
HETATM   14  O   UNL     1      43.281 -19.133   6.744  1.00  0.00    -0.268 OA
BRANCH  12  15
HETATM   15  C   UNL     1      44.604 -20.050   4.431  1.00  0.00     0.122 C 
BRANCH  15  16
HETATM   16  C   UNL     1      43.658 -20.808   3.501  1.00  0.00     0.015 C 
HETATM   17  C   UNL     1      43.687 -20.282   2.075  1.00  0.00     0.006 C 
ENDBRANCH  15  16
ENDBRANCH  12  15
ENDBRANCH   8  11
ENDBRANCH   1   5
BRANCH   2  18
HETATM   18  C   UNL     1      43.570 -10.577   7.834  1.00  0.00     0.037 A 
HETATM   19  C   UNL     1      43.985 -10.297   9.136  1.00  0.00     0.075 A 
HETATM   20  C   UNL     1      43.554  -9.118   9.711  1.00  0.00     0.165 A 
HETATM   21  N   UNL     1      42.770  -8.215   9.084  1.00  0.00    -0.237 NA
HETATM   22  C   UNL     1      42.379  -8.512   7.830  1.00  0.00     0.120 A 
HETATM   23  C   UNL     1      42.740  -9.672   7.167  1.00  0.00     0.036 A 
BRANCH  20  24
HETATM   24  O   UNL     1      43.948  -8.874  11.012  1.00  0.00    -0.329 OA
BRANCH  24  25
HETATM   25  C   UNL     1      42.884  -8.649  11.961  1.00  0.00     0.130 C 
HETATM   26  C   UNL     1      42.543  -9.867  12.858  1.00  0.00     0.032 C 
HETATM   27  C   UNL     1      42.295  -8.872  14.005  1.00  0.00     0.005 C 
HETATM   28  C   UNL     1      43.244  -7.904  13.274  1.00  0.00     0.032 C 
ENDBRANCH  24  25
ENDBRANCH  20  24
ENDBRANCH   2  18
TORSDOF 7
ENDMDL
MODEL 4
REMARK VINA RESULT:      -7.7      3.654     11.285
REMARK  7 active torsions:
REMARK  status: ('A' for Active; 'I' for Inactive)
REMARK    1  A    between atoms: C_2  and  C_3 
REMARK    2  A    between atoms: C_3  and  N_4 
REMARK       I    between atoms: N_4  and  C_5 
REMARK    3  A    between atoms: C_5  and  C_6 
REMARK    4  A    between atoms: C_9  and  N_10 
REMARK       I    between atoms: N_10  and  C_11 
REMARK    5  A    between atoms: C_11  and  C_12 
REMARK    6  A    between atoms: C_14  and  O_15 
REMARK    7  A    between atoms: O_15  and  C_16 
ROOT
HETATM    1  N   UNL     1      43.409  -8.936  11.321  1.00  0.00    -0.323 N 
HETATM    2  C   UNL     1      44.035 -10.123  10.981  1.00  0.00     0.256 C 
HETATM    3  O   UNL     1      44.093 -11.139  11.663  1.00  0.00    -0.267 OA
HETATM    4  H   UNL     1      43.297  -8.245  10.593  1.00  0.00     0.169 HD
ENDROOT
BRANCH   1   5
HETATM    5  C   UNL     1      42.897  -8.573  12.584  1.00  0.00     0.035 A 
HETATM    6  C   UNL     1      43.426  -7.556  13.381  1.00  0.00     0.030 A 
HETATM    7  C   UNL     1      42.815  -7.204  14.594  1.00  0.00     0.019 A 
HETATM    8  C   UNL     1      41.655  -7.860  15.016  1.00  0.00     0.032 A 
HETATM    9  C   UNL     1      41.145  -8.906  14.237  1.00  0.00     0.019 A 
HETATM   10  C   UNL     1      41.762  -9.258  13.032  1.00  0.00     0.030 A 
BRANCH   8  11
HETATM   11  C   UNL     1      40.922  -7.494  16.263  1.00  0.00     0.251 C 
HETATM   12  N   UNL     1      41.368  -8.062  17.440  1.00  0.00    -0.357 N 
HETATM   13  H   UNL     1      42.235  -8.581  17.444  1.00  0.00     0.162 HD
HETATM   14  O   UNL     1      40.001  -6.685  16.214  1.00  0.00    -0.268 OA
BRANCH  12  15
HETATM   15  C   UNL     1      40.826  -7.662  18.725  1.00  0.00     0.122 C 
BRANCH  15  16
HETATM   16  C   UNL     1      39.602  -8.472  19.146  1.00  0.00     0.015 C 
HETATM   17  C   UNL     1      39.324  -8.386  20.639  1.00  0.00     0.006 C 
ENDBRANCH  15  16
ENDBRANCH  12  15
ENDBRANCH   8  11
ENDBRANCH   1   5
BRANCH   2  18
HETATM   18  C   UNL     1      44.697 -10.135   9.644  1.00  0.00     0.037 A 
HETATM   19  C   UNL     1      44.435 -11.197   8.780  1.00  0.00     0.075 A 
HETATM   20  C   UNL     1      45.117 -11.237   7.580  1.00  0.00     0.165 A 
HETATM   21  N   UNL     1      46.009 -10.302   7.189  1.00  0.00    -0.237 NA
HETATM   22  C   UNL     1      46.248  -9.290   8.044  1.00  0.00     0.120 A 
HETATM   23  C   UNL     1      45.632  -9.164   9.277  1.00  0.00     0.036 A 
BRANCH  20  24
HETATM   24  O   UNL     1      44.868 -12.314   6.752  1.00  0.00    -0.329 OA
BRANCH  24  25
HETATM   25  C   UNL     1      43.503 -12.783   6.724  1.00  0.00     0.130 C 
HETATM   26  C   UNL     1      42.936 -13.053   5.306  1.00  0.00     0.032 C 
HETATM   27  C   UNL     1      42.181 -14.252   5.906  1.00  0.00     0.005 C 
HETATM   28  C   UNL     1      43.260 -14.290   7.004  1.00  0.00     0.032 C 
ENDBRANCH  24  25
ENDBRANCH  20  24
ENDBRANCH   2  18
TORSDOF 7
ENDMDL
MODEL 5
REMARK VINA RESULT:      -7.5      3.586     11.446
REMARK  7 active torsions:
REMARK  status: ('A' for Active; 'I' for Inactive)
REMARK    1  A    between atoms: C_2  and  C_3 
REMARK    2  A    between atoms: C_3  and  N_4 
REMARK       I    between atoms: N_4  and  C_5 
REMARK    3  A    between atoms: C_5  and  C_6 
REMARK    4  A    between atoms: C_9  and  N_10 
REMARK       I    between atoms: N_10  and  C_11 
REMARK    5  A    between atoms: C_11  and  C_12 
REMARK    6  A    between atoms: C_14  and  O_15 
REMARK    7  A    between atoms: O_15  and  C_16 
ROOT
HETATM    1  N   UNL     1      43.350  -8.975  11.284  1.00  0.00    -0.323 N 
HETATM    2  C   UNL     1      43.960 -10.170  10.946  1.00  0.00     0.256 C 
HETATM    3  O   UNL     1      43.977 -11.196  11.616  1.00  0.00    -0.267 OA
HETATM    4  H   UNL     1      43.274  -8.272  10.563  1.00  0.00     0.169 HD
ENDROOT
BRANCH   1   5
HETATM    5  C   UNL     1      42.810  -8.617  12.537  1.00  0.00     0.035 A 
HETATM    6  C   UNL     1      41.736  -9.270  13.144  1.00  0.00     0.030 A 
HETATM    7  C   UNL     1      41.304  -8.901  14.427  1.00  0.00     0.019 A 
HETATM    8  C   UNL     1      41.956  -7.879  15.123  1.00  0.00     0.032 A 
HETATM    9  C   UNL     1      43.008  -7.197  14.501  1.00  0.00     0.019 A 
HETATM   10  C   UNL     1      43.431  -7.564  13.219  1.00  0.00     0.030 A 
BRANCH   8  11
HETATM   11  C   UNL     1      41.587  -7.479  16.513  1.00  0.00     0.251 C 
HETATM   12  N   UNL     1      42.399  -6.548  17.131  1.00  0.00    -0.357 N 
HETATM   13  H   UNL     1      43.113  -6.076  16.594  1.00  0.00     0.162 HD
HETATM   14  O   UNL     1      40.576  -7.940  17.032  1.00  0.00    -0.268 OA
BRANCH  12  15
HETATM   15  C   UNL     1      42.051  -5.980  18.420  1.00  0.00     0.122 C 
BRANCH  15  16
HETATM   16  C   UNL     1      42.705  -6.700  19.597  1.00  0.00     0.015 C 
HETATM   17  C   UNL     1      41.692  -7.362  20.519  1.00  0.00     0.006 C 
ENDBRANCH  15  16
ENDBRANCH  12  15
ENDBRANCH   8  11
ENDBRANCH   1   5
BRANCH   2  18
HETATM   18  C   UNL     1      44.660 -10.180   9.629  1.00  0.00     0.037 A 
HETATM   19  C   UNL     1      44.396 -11.222   8.741  1.00  0.00     0.075 A 
HETATM   20  C   UNL     1      45.112 -11.261   7.560  1.00  0.00     0.165 A 
HETATM   21  N   UNL     1      46.037 -10.344   7.208  1.00  0.00    -0.237 NA
HETATM   22  C   UNL     1      46.277  -9.350   8.086  1.00  0.00     0.120 A 
HETATM   23  C   UNL     1      45.629  -9.227   9.303  1.00  0.00     0.036 A 
BRANCH  20  24
HETATM   24  O   UNL     1      44.859 -12.318   6.708  1.00  0.00    -0.329 OA
BRANCH  24  25
HETATM   25  C   UNL     1      43.647 -13.059   6.967  1.00  0.00     0.130 C 
HETATM   26  C   UNL     1      42.521 -12.850   5.922  1.00  0.00     0.032 C 
HETATM   27  C   UNL     1      42.167 -14.338   6.101  1.00  0.00     0.005 C 
HETATM   28  C   UNL     1      43.623 -14.556   6.554  1.00  0.00     0.032 C 
ENDBRANCH  24  25
ENDBRANCH  20  24
ENDBRANCH   2  18
TORSDOF 7
ENDMDL
MODEL 6
REMARK VINA RESULT:      -7.4      2.079      9.823
REMARK  7 active torsions:
REMARK  status: ('A' for Active; 'I' for Inactive)
REMARK    1  A    between atoms: C_2  and  C_3 
REMARK    2  A    between atoms: C_3  and  N_4 
REMARK       I    between atoms: N_4  and  C_5 
REMARK    3  A    between atoms: C_5  and  C_6 
REMARK    4  A    between atoms: C_9  and  N_10 
REMARK       I    between atoms: N_10  and  C_11 
REMARK    5  A    between atoms: C_11  and  C_12 
REMARK    6  A    between atoms: C_14  and  O_15 
REMARK    7  A    between atoms: O_15  and  C_16 
ROOT
HETATM    1  N   UNL     1      43.297 -13.292   5.869  1.00  0.00    -0.323 N 
HETATM    2  C   UNL     1      43.238 -14.510   6.524  1.00  0.00     0.256 C 
HETATM    3  O   UNL     1      43.068 -14.685   7.724  1.00  0.00    -0.267 OA
HETATM    4  H   UNL     1      43.272 -13.306   4.859  1.00  0.00     0.169 HD
ENDROOT
BRANCH   1   5
HETATM    5  C   UNL     1      43.387 -12.012   6.455  1.00  0.00     0.035 A 
HETATM    6  C   UNL     1      42.383 -11.044   6.381  1.00  0.00     0.030 A 
HETATM    7  C   UNL     1      42.517  -9.820   7.053  1.00  0.00     0.019 A 
HETATM    8  C   UNL     1      43.657  -9.557   7.820  1.00  0.00     0.032 A 
HETATM    9  C   UNL     1      44.680 -10.511   7.864  1.00  0.00     0.019 A 
HETATM   10  C   UNL     1      44.546 -11.727   7.186  1.00  0.00     0.030 A 
BRANCH   8  11
HETATM   11  C   UNL     1      43.834  -8.303   8.608  1.00  0.00     0.251 C 
HETATM   12  N   UNL     1      42.836  -7.985   9.509  1.00  0.00    -0.357 N 
HETATM   13  H   UNL     1      42.108  -8.658   9.703  1.00  0.00     0.162 HD
HETATM   14  O   UNL     1      44.854  -7.636   8.473  1.00  0.00    -0.268 OA
BRANCH  12  15
HETATM   15  C   UNL     1      42.976  -6.873  10.429  1.00  0.00     0.122 C 
BRANCH  15  16
HETATM   16  C   UNL     1      42.598  -7.223  11.867  1.00  0.00     0.015 C 
HETATM   17  C   UNL     1      43.375  -8.414  12.407  1.00  0.00     0.006 C 
ENDBRANCH  15  16
ENDBRANCH  12  15
ENDBRANCH   8  11
ENDBRANCH   1   5
BRANCH   2  18
HETATM   18  C   UNL     1      43.402 -15.712   5.655  1.00  0.00     0.037 A 
HETATM   19  C   UNL     1      42.699 -15.766   4.452  1.00  0.00     0.075 A 
HETATM   20  C   UNL     1      42.798 -16.918   3.698  1.00  0.00     0.165 A 
HETATM   21  N   UNL     1      43.546 -17.986   4.047  1.00  0.00    -0.237 NA
HETATM   22  C   UNL     1      44.211 -17.910   5.216  1.00  0.00     0.120 A 
HETATM   23  C   UNL     1      44.168 -16.811   6.055  1.00  0.00     0.036 A 
BRANCH  20  24
HETATM   24  O   UNL     1      42.069 -16.965   2.526  1.00  0.00    -0.329 OA
BRANCH  24  25
HETATM   25  C   UNL     1      41.210 -15.833   2.274  1.00  0.00     0.130 C 
HETATM   26  C   UNL     1      41.644 -14.938   1.083  1.00  0.00     0.032 C 
HETATM   27  C   UNL     1      40.150 -14.751   0.762  1.00  0.00     0.005 C 
HETATM   28  C   UNL     1      39.902 -16.092   1.478  1.00  0.00     0.032 C 
ENDBRANCH  24  25
ENDBRANCH  20  24
ENDBRANCH   2  18
TORSDOF 7
ENDMDL
MODEL 7
REMARK VINA RESULT:      -7.2      1.936     10.097
REMARK  7 active torsions:
REMARK  status: ('A' for Active; 'I' for Inactive)
REMARK    1  A    between atoms: C_2  and  C_3 
REMARK    2  A    between atoms: C_3  and  N_4 
REMARK       I    between atoms: N_4  and  C_5 
REMARK    3  A    between atoms: C_5  and  C_6 
REMARK    4  A    between atoms: C_9  and  N_10 
REMARK       I    between atoms: N_10  and  C_11 
REMARK    5  A    between atoms: C_11  and  C_12 
REMARK    6  A    between atoms: C_14  and  O_15 
REMARK    7  A    between atoms: O_15  and  C_16 
ROOT
HETATM    1  N   UNL     1      43.131 -12.958   5.002  1.00  0.00    -0.323 N 
HETATM    2  C   UNL     1      43.069 -12.751   3.635  1.00  0.00     0.256 C 
HETATM    3  O   UNL     1      43.400 -11.735   3.036  1.00  0.00    -0.267 OA
HETATM    4  H   UNL     1      42.986 -13.901   5.336  1.00  0.00     0.169 HD
ENDROOT
BRANCH   1   5
HETATM    5  C   UNL     1      43.379 -11.994   6.001  1.00  0.00     0.035 A 
HETATM    6  C   UNL     1      44.603 -11.837   6.654  1.00  0.00     0.030 A 
HETATM    7  C   UNL     1      44.793 -10.806   7.585  1.00  0.00     0.019 A 
HETATM    8  C   UNL     1      43.758  -9.907   7.863  1.00  0.00     0.032 A 
HETATM    9  C   UNL     1      42.518 -10.086   7.239  1.00  0.00     0.019 A 
HETATM   10  C   UNL     1      42.331 -11.120   6.316  1.00  0.00     0.030 A 
BRANCH   8  11
HETATM   11  C   UNL     1      43.913  -8.752   8.795  1.00  0.00     0.251 C 
HETATM   12  N   UNL     1      43.030  -8.682   9.855  1.00  0.00    -0.357 N 
HETATM   13  H   UNL     1      42.416  -9.463  10.043  1.00  0.00     0.162 HD
HETATM   14  O   UNL     1      44.824  -7.948   8.624  1.00  0.00    -0.268 OA
BRANCH  12  15
HETATM   15  C   UNL     1      43.183  -7.689  10.901  1.00  0.00     0.122 C 
BRANCH  15  16
HETATM   16  C   UNL     1      43.473  -8.292  12.274  1.00  0.00     0.015 C 
HETATM   17  C   UNL     1      42.754  -9.612  12.501  1.00  0.00     0.006 C 
ENDBRANCH  15  16
ENDBRANCH  12  15
ENDBRANCH   8  11
ENDBRANCH   1   5
BRANCH   2  18
HETATM   18  C   UNL     1      42.543 -13.897   2.838  1.00  0.00     0.037 A 
HETATM   19  C   UNL     1      43.299 -15.067   2.775  1.00  0.00     0.075 A 
HETATM   20  C   UNL     1      42.838 -16.089   1.968  1.00  0.00     0.165 A 
HETATM   21  N   UNL     1      41.696 -16.029   1.252  1.00  0.00    -0.237 NA
HETATM   22  C   UNL     1      40.988 -14.885   1.327  1.00  0.00     0.120 A 
HETATM   23  C   UNL     1      41.367 -13.796   2.091  1.00  0.00     0.036 A 
BRANCH  20  24
HETATM   24  O   UNL     1      43.617 -17.228   1.893  1.00  0.00    -0.329 OA
BRANCH  24  25
HETATM   25  C   UNL     1      43.204 -18.329   2.730  1.00  0.00     0.130 C 
HETATM   26  C   UNL     1      43.246 -19.719   2.044  1.00  0.00     0.032 C 
HETATM   27  C   UNL     1      43.709 -20.299   3.393  1.00  0.00     0.005 C 
HETATM   28  C   UNL     1      44.247 -18.896   3.730  1.00  0.00     0.032 C 
ENDBRANCH  24  25
ENDBRANCH  20  24
ENDBRANCH   2  18
TORSDOF 7
ENDMDL
MODEL 8
REMARK VINA RESULT:      -7.1      5.155      9.393
REMARK  7 active torsions:
REMARK  status: ('A' for Active; 'I' for Inactive)
REMARK    1  A    between atoms: C_2  and  C_3 
REMARK    2  A    between atoms: C_3  and  N_4 
REMARK       I    between atoms: N_4  and  C_5 
REMARK    3  A    between atoms: C_5  and  C_6 
REMARK    4  A    between atoms: C_9  and  N_10 
REMARK       I    between atoms: N_10  and  C_11 
REMARK    5  A    between atoms: C_11  and  C_12 
REMARK    6  A    between atoms: C_14  and  O_15 
REMARK    7  A    between atoms: O_15  and  C_16 
ROOT
HETATM    1  N   UNL     1      41.639 -14.875   2.359  1.00  0.00    -0.323 N 
HETATM    2  C   UNL     1      41.360 -14.466   3.651  1.00  0.00     0.256 C 
HETATM    3  O   UNL     1      40.437 -13.741   4.003  1.00  0.00    -0.267 OA
HETATM    4  H   UNL     1      42.327 -15.606   2.241  1.00  0.00     0.169 HD
ENDROOT
BRANCH   1   5
HETATM    5  C   UNL     1      41.067 -14.386   1.166  1.00  0.00     0.035 A 
HETATM    6  C   UNL     1      40.142 -15.091   0.394  1.00  0.00     0.030 A 
HETATM    7  C   UNL     1      39.561 -14.506  -0.741  1.00  0.00     0.019 A 
HETATM    8  C   UNL     1      39.892 -13.198  -1.109  1.00  0.00     0.032 A 
HETATM    9  C   UNL     1      40.848 -12.504  -0.358  1.00  0.00     0.019 A 
HETATM   10  C   UNL     1      41.430 -13.094   0.769  1.00  0.00     0.030 A 
BRANCH   8  11
HETATM   11  C   UNL     1      39.266 -12.496  -2.267  1.00  0.00     0.251 C 
HETATM   12  N   UNL     1      39.267 -11.115  -2.234  1.00  0.00    -0.357 N 
HETATM   13  H   UNL     1      39.797 -10.634  -1.520  1.00  0.00     0.162 HD
HETATM   14  O   UNL     1      38.826 -13.146  -3.209  1.00  0.00    -0.268 OA
BRANCH  12  15
HETATM   15  C   UNL     1      38.821 -10.333  -3.371  1.00  0.00     0.122 C 
BRANCH  15  16
HETATM   16  C   UNL     1      39.907  -9.430  -3.952  1.00  0.00     0.015 C 
HETATM   17  C   UNL     1      41.014  -9.123  -2.955  1.00  0.00     0.006 C 
ENDBRANCH  15  16
ENDBRANCH  12  15
ENDBRANCH   8  11
ENDBRANCH   1   5
BRANCH   2  18
HETATM   18  C   UNL     1      42.292 -14.975   4.698  1.00  0.00     0.037 A 
HETATM   19  C   UNL     1      43.037 -16.122   4.428  1.00  0.00     0.075 A 
HETATM   20  C   UNL     1      43.834 -16.627   5.436  1.00  0.00     0.165 A 
HETATM   21  N   UNL     1      43.948 -16.067   6.659  1.00  0.00    -0.237 NA
HETATM   22  C   UNL     1      43.214 -14.962   6.896  1.00  0.00     0.120 A 
HETATM   23  C   UNL     1      42.372 -14.385   5.963  1.00  0.00     0.036 A 
BRANCH  20  24
HETATM   24  O   UNL     1      44.539 -17.782   5.160  1.00  0.00    -0.329 OA
BRANCH  24  25
HETATM   25  C   UNL     1      43.758 -18.892   4.666  1.00  0.00     0.130 C 
HETATM   26  C   UNL     1      44.025 -19.267   3.185  1.00  0.00     0.032 C 
HETATM   27  C   UNL     1      43.841 -20.740   3.591  1.00  0.00     0.005 C 
HETATM   28  C   UNL     1      44.249 -20.323   5.017  1.00  0.00     0.032 C 
ENDBRANCH  24  25
ENDBRANCH  20  24
ENDBRANCH   2  18
TORSDOF 7
ENDMDL
MODEL 9
REMARK VINA RESULT:      -7.1      6.302     11.274
REMARK  7 active torsions:
REMARK  status: ('A' for Active; 'I' for Inactive)
REMARK    1  A    between atoms: C_2  and  C_3 
REMARK    2  A    between atoms: C_3  and  N_4 
REMARK       I    between atoms: N_4  and  C_5 
REMARK    3  A    between atoms: C_5  and  C_6 
REMARK    4  A    between atoms: C_9  and  N_10 
REMARK       I    between atoms: N_10  and  C_11 
REMARK    5  A    between atoms: C_11  and  C_12 
REMARK    6  A    between atoms: C_14  and  O_15 
REMARK    7  A    between atoms: O_15  and  C_16 
ROOT
HETATM    1  N   UNL     1      41.279  -8.589  15.987  1.00  0.00    -0.323 N 
HETATM    2  C   UNL     1      40.878  -7.540  16.795  1.00  0.00     0.256 C 
HETATM    3  O   UNL     1      40.613  -6.400  16.433  1.00  0.00    -0.267 OA
HETATM    4  H   UNL     1      41.298  -9.512  16.398  1.00  0.00     0.169 HD
ENDROOT
BRANCH   1   5
HETATM    5  C   UNL     1      41.669  -8.522  14.633  1.00  0.00     0.035 A 
HETATM    6  C   UNL     1      42.779  -7.812  14.171  1.00  0.00     0.030 A 
HETATM    7  C   UNL     1      43.145  -7.855  12.818  1.00  0.00     0.019 A 
HETATM    8  C   UNL     1      42.409  -8.624  11.911  1.00  0.00     0.032 A 
HETATM    9  C   UNL     1      41.274  -9.306  12.366  1.00  0.00     0.019 A 
HETATM   10  C   UNL     1      40.908  -9.255  13.715  1.00  0.00     0.030 A 
BRANCH   8  11
HETATM   11  C   UNL     1      42.780  -8.763  10.473  1.00  0.00     0.251 C 
HETATM   12  N   UNL     1      43.833  -7.990  10.023  1.00  0.00    -0.357 N 
HETATM   13  H   UNL     1      44.393  -7.476  10.688  1.00  0.00     0.162 HD
HETATM   14  O   UNL     1      42.188  -9.570   9.765  1.00  0.00    -0.268 OA
BRANCH  12  15
HETATM   15  C   UNL     1      44.372  -8.154   8.686  1.00  0.00     0.122 C 
BRANCH  15  16
HETATM   16  C   UNL     1      45.667  -8.964   8.647  1.00  0.00     0.015 C 
HETATM   17  C   UNL     1      45.512 -10.287   7.914  1.00  0.00     0.006 C 
ENDBRANCH  15  16
ENDBRANCH  12  15
ENDBRANCH   8  11
ENDBRANCH   1   5
BRANCH   2  18
HETATM   18  C   UNL     1      40.766  -7.860  18.248  1.00  0.00     0.037 A 
HETATM   19  C   UNL     1      41.932  -8.128  18.964  1.00  0.00     0.075 A 
HETATM   20  C   UNL     1      41.806  -8.501  20.287  1.00  0.00     0.165 A 
HETATM   21  N   UNL     1      40.625  -8.606  20.932  1.00  0.00    -0.237 NA
HETATM   22  C   UNL     1      39.513  -8.346  20.216  1.00  0.00     0.120 A 
HETATM   23  C   UNL     1      39.526  -7.981  18.882  1.00  0.00     0.036 A 
BRANCH  20  24
HETATM   24  O   UNL     1      42.970  -8.793  20.970  1.00  0.00    -0.329 OA
BRANCH  24  25
HETATM   25  C   UNL     1      42.929  -9.969  21.808  1.00  0.00     0.130 C 
HETATM   26  C   UNL     1      43.164 -11.308  21.062  1.00  0.00     0.032 C 
HETATM   27  C   UNL     1      43.934 -11.791  22.305  1.00  0.00     0.005 C 
HETATM   28  C   UNL     1      44.206 -10.309  22.623  1.00  0.00     0.032 C 
ENDBRANCH  24  25
ENDBRANCH  20  24
ENDBRANCH   2  18
TORSDOF 7
ENDMDL
MODEL 10
REMARK VINA RESULT:      -7.0      6.408     11.438
REMARK  7 active torsions:
REMARK  status: ('A' for Active; 'I' for Inactive)
REMARK    1  A    between atoms: C_2  and  C_3 
REMARK    2  A    between atoms: C_3  and  N_4 
REMARK       I    between atoms: N_4  and  C_5 
REMARK    3  A    between atoms: C_5  and  C_6 
REMARK    4  A    between atoms: C_9  and  N_10 
REMARK       I    between atoms: N_10  and  C_11 
REMARK    5  A    between atoms: C_11  and  C_12 
REMARK    6  A    between atoms: C_14  and  O_15 
REMARK    7  A    between atoms: O_15  and  C_16 
ROOT
HETATM    1  N   UNL     1      41.342  -8.217  16.201  1.00  0.00    -0.323 N 
HETATM    2  C   UNL     1      40.532  -7.196  16.667  1.00  0.00     0.256 C 
HETATM    3  O   UNL     1      39.885  -6.410  15.985  1.00  0.00    -0.267 OA
HETATM    4  H   UNL     1      41.677  -8.889  16.877  1.00  0.00     0.169 HD
ENDROOT
BRANCH   1   5
HETATM    5  C   UNL     1      41.761  -8.436  14.872  1.00  0.00     0.035 A 
HETATM    6  C   UNL     1      41.139  -9.324  13.991  1.00  0.00     0.030 A 
HETATM    7  C   UNL     1      41.569  -9.431  12.660  1.00  0.00     0.019 A 
HETATM    8  C   UNL     1      42.622  -8.638  12.192  1.00  0.00     0.032 A 
HETATM    9  C   UNL     1      43.271  -7.776  13.084  1.00  0.00     0.019 A 
HETATM   10  C   UNL     1      42.843  -7.677  14.412  1.00  0.00     0.030 A 
BRANCH   8  11
HETATM   11  C   UNL     1      43.087  -8.659  10.775  1.00  0.00     0.251 C 
HETATM   12  N   UNL     1      43.421  -9.890  10.245  1.00  0.00    -0.357 N 
HETATM   13  H   UNL     1      43.215 -10.729  10.768  1.00  0.00     0.162 HD
HETATM   14  O   UNL     1      43.113  -7.618  10.126  1.00  0.00    -0.268 OA
BRANCH  12  15
HETATM   15  C   UNL     1      43.742 -10.045   8.839  1.00  0.00     0.122 C 
BRANCH  15  16
HETATM   16  C   UNL     1      45.219 -10.340   8.582  1.00  0.00     0.015 C 
HETATM   17  C   UNL     1      46.022  -9.090   8.258  1.00  0.00     0.006 C 
ENDBRANCH  15  16
ENDBRANCH  12  15
ENDBRANCH   8  11
ENDBRANCH   1   5
BRANCH   2  18
HETATM   18  C   UNL     1      40.460  -7.064  18.151  1.00  0.00     0.037 A 
HETATM   19  C   UNL     1      40.156  -8.195  18.907  1.00  0.00     0.075 A 
HETATM   20  C   UNL     1      40.013  -8.039  20.272  1.00  0.00     0.165 A 
HETATM   21  N   UNL     1      40.165  -6.864  20.917  1.00  0.00    -0.237 NA
HETATM   22  C   UNL     1      40.454  -5.786  20.162  1.00  0.00     0.120 A 
HETATM   23  C   UNL     1      40.603  -5.828  18.788  1.00  0.00     0.036 A 
BRANCH  20  24
HETATM   24  O   UNL     1      39.679  -9.165  21.000  1.00  0.00    -0.329 OA
BRANCH  24  25
HETATM   25  C   UNL     1      40.572  -9.502  22.083  1.00  0.00     0.130 C 
HETATM   26  C   UNL     1      40.036 -10.581  23.058  1.00  0.00     0.032 C 
HETATM   27  C   UNL     1      41.476 -11.114  23.159  1.00  0.00     0.005 C 
HETATM   28  C   UNL     1      41.728 -10.492  21.774  1.00  0.00     0.032 C 
ENDBRANCH  24  25
ENDBRANCH  20  24
ENDBRANCH   2  18
TORSDOF 7
ENDMDL
