MODEL 1
REMARK VINA RESULT:      -8.9      0.000      0.000
REMARK  2 active torsions:
REMARK  status: ('A' for Active; 'I' for Inactive)
REMARK    1  A    between atoms: C_4  and  C_5 
REMARK    2  A    between atoms: C_11  and  C_12 
ROOT
HETATM    1  C   UNL     1      41.027 -15.705   3.134  1.00  0.00     0.098 A 
HETATM    2  N   UNL     1      40.694 -16.153   1.905  1.00  0.00    -0.172 NA
HETATM    3  N   UNL     1      39.885 -15.210   1.399  1.00  0.00    -0.261 N 
HETATM    4  H   UNL     1      39.517 -15.343   0.463  1.00  0.00     0.191 HD
HETATM    5  C   UNL     1      39.691 -14.172   2.249  1.00  0.00     0.133 A 
HETATM    6  C   UNL     1      40.395 -14.451   3.392  1.00  0.00     0.028 A 
HETATM    7  C   UNL     1      40.424 -13.487   4.524  1.00  0.00     0.067 C 
HETATM    8  C   UNL     1      39.311 -12.432   4.395  1.00  0.00     0.117 C 
HETATM    9  C   UNL     1      38.898 -12.062   2.973  1.00  0.00     0.224 C 
HETATM   10  O   UNL     1      38.388 -10.973   2.712  1.00  0.00    -0.273 OA
HETATM   11  N   UNL     1      38.985 -13.030   1.999  1.00  0.00    -0.312 N 
HETATM   12  H   UNL     1      38.607 -12.805   1.087  1.00  0.00     0.170 HD
ENDROOT
BRANCH   7  13
HETATM   13  C   UNL     1      41.814 -12.868   4.590  1.00  0.00    -0.046 A 
HETATM   14  C   UNL     1      42.458 -12.820   5.842  1.00  0.00     0.047 A 
HETATM   15  C   UNL     1      43.701 -12.228   5.926  1.00  0.00     0.105 A 
HETATM   16  C   UNL     1      44.322 -11.690   4.826  1.00  0.00     0.105 A 
HETATM   17  O   UNL     1      44.441 -12.095   7.059  1.00  0.00    -0.323 OA
HETATM   18  O   UNL     1      45.536 -11.155   5.126  1.00  0.00    -0.323 OA
HETATM   19  C   UNL     1      43.731 -11.707   3.584  1.00  0.00     0.040 A 
HETATM   20  C   UNL     1      45.599 -11.407   6.545  1.00  0.00     0.352 A 
HETATM   21  C   UNL     1      42.462 -12.289   3.470  1.00  0.00     0.011 A 
ENDBRANCH   7  13
BRANCH   1  22
HETATM   22  C   UNL     1      41.966 -16.457   3.965  1.00  0.00    -0.005 A 
HETATM   23  C   UNL     1      43.040 -17.131   3.362  1.00  0.00     0.014 A 
HETATM   24  C   UNL     1      43.965 -17.837   4.132  1.00  0.00     0.001 A 
HETATM   25  C   UNL     1      43.826 -17.881   5.517  1.00  0.00     0.000 A 
HETATM   26  C   UNL     1      42.757 -17.228   6.129  1.00  0.00     0.001 A 
HETATM   27  C   UNL     1      41.828 -16.524   5.357  1.00  0.00     0.014 A 
ENDBRANCH   1  22
TORSDOF 2
ENDMDL
MODEL 2
REMARK VINA RESULT:      -8.4      2.804      5.149
REMARK  2 active torsions:
REMARK  status: ('A' for Active; 'I' for Inactive)
REMARK    1  A    between atoms: C_4  and  C_5 
REMARK    2  A    between atoms: C_11  and  C_12 
ROOT
HETATM    1  C   UNL     1      41.448 -12.935   4.448  1.00  0.00     0.098 A 
HETATM    2  N   UNL     1      40.242 -12.509   4.879  1.00  0.00    -0.172 NA
HETATM    3  N   UNL     1      39.356 -13.069   4.042  1.00  0.00    -0.261 N 
HETATM    4  H   UNL     1      38.370 -12.885   4.191  1.00  0.00     0.191 HD
HETATM    5  C   UNL     1      39.944 -13.842   3.096  1.00  0.00     0.133 A 
HETATM    6  C   UNL     1      41.297 -13.776   3.305  1.00  0.00     0.028 A 
HETATM    7  C   UNL     1      42.239 -14.549   2.452  1.00  0.00     0.067 C 
HETATM    8  C   UNL     1      41.557 -15.046   1.165  1.00  0.00     0.117 C 
HETATM    9  C   UNL     1      40.063 -15.343   1.269  1.00  0.00     0.224 C 
HETATM   10  O   UNL     1      39.508 -16.137   0.510  1.00  0.00    -0.273 OA
HETATM   11  N   UNL     1      39.312 -14.601   2.151  1.00  0.00    -0.312 N 
HETATM   12  H   UNL     1      38.308 -14.733   2.132  1.00  0.00     0.170 HD
ENDROOT
BRANCH   7  13
HETATM   13  C   UNL     1      42.816 -15.684   3.286  1.00  0.00    -0.046 A 
HETATM   14  C   UNL     1      43.007 -16.933   2.660  1.00  0.00     0.047 A 
HETATM   15  C   UNL     1      43.493 -17.983   3.411  1.00  0.00     0.105 A 
HETATM   16  C   UNL     1      43.795 -17.842   4.743  1.00  0.00     0.105 A 
HETATM   17  O   UNL     1      43.719 -19.244   2.957  1.00  0.00    -0.323 OA
HETATM   18  O   UNL     1      44.256 -18.995   5.296  1.00  0.00    -0.323 OA
HETATM   19  C   UNL     1      43.620 -16.645   5.399  1.00  0.00     0.040 A 
HETATM   20  C   UNL     1      44.196 -19.882   4.159  1.00  0.00     0.352 A 
HETATM   21  C   UNL     1      43.114 -15.564   4.666  1.00  0.00     0.011 A 
ENDBRANCH   7  13
BRANCH   1  22
HETATM   22  C   UNL     1      42.664 -12.570   5.175  1.00  0.00    -0.005 A 
HETATM   23  C   UNL     1      43.681 -11.864   4.514  1.00  0.00     0.014 A 
HETATM   24  C   UNL     1      44.842 -11.483   5.189  1.00  0.00     0.001 A 
HETATM   25  C   UNL     1      45.002 -11.808   6.534  1.00  0.00     0.000 A 
HETATM   26  C   UNL     1      44.006 -12.521   7.199  1.00  0.00     0.001 A 
HETATM   27  C   UNL     1      42.845 -12.906   6.522  1.00  0.00     0.014 A 
ENDBRANCH   1  22
TORSDOF 2
ENDMDL
MODEL 3
REMARK VINA RESULT:      -8.4      2.708      4.941
REMARK  2 active torsions:
REMARK  status: ('A' for Active; 'I' for Inactive)
REMARK    1  A    between atoms: C_4  and  C_5 
REMARK    2  A    between atoms: C_11  and  C_12 
ROOT
HETATM    1  C   UNL     1      43.186 -15.735   5.671  1.00  0.00     0.098 A 
HETATM    2  N   UNL     1      42.987 -16.227   6.912  1.00  0.00    -0.172 NA
HETATM    3  N   UNL     1      43.045 -15.159   7.722  1.00  0.00    -0.261 N 
HETATM    4  H   UNL     1      42.911 -15.302   8.717  1.00  0.00     0.191 HD
HETATM    5  C   UNL     1      43.266 -14.002   7.051  1.00  0.00     0.133 A 
HETATM    6  C   UNL     1      43.380 -14.322   5.723  1.00  0.00     0.028 A 
HETATM    7  C   UNL     1      43.592 -13.265   4.699  1.00  0.00     0.067 C 
HETATM    8  C   UNL     1      44.042 -11.940   5.341  1.00  0.00     0.117 C 
HETATM    9  C   UNL     1      43.526 -11.668   6.752  1.00  0.00     0.224 C 
HETATM   10  O   UNL     1      43.420 -10.523   7.191  1.00  0.00    -0.273 OA
HETATM   11  N   UNL     1      43.303 -12.743   7.581  1.00  0.00    -0.312 N 
HETATM   12  H   UNL     1      43.065 -12.544   8.545  1.00  0.00     0.170 HD
ENDROOT
BRANCH   7  13
HETATM   13  C   UNL     1      42.311 -13.118   3.891  1.00  0.00    -0.046 A 
HETATM   14  C   UNL     1      42.421 -13.009   2.490  1.00  0.00     0.047 A 
HETATM   15  C   UNL     1      41.273 -12.836   1.745  1.00  0.00     0.105 A 
HETATM   16  C   UNL     1      40.033 -12.772   2.332  1.00  0.00     0.105 A 
HETATM   17  O   UNL     1      41.217 -12.704   0.393  1.00  0.00    -0.323 OA
HETATM   18  O   UNL     1      39.037 -12.597   1.423  1.00  0.00    -0.323 OA
HETATM   19  C   UNL     1      39.875 -12.868   3.695  1.00  0.00     0.040 A 
HETATM   20  C   UNL     1      39.797 -12.546   0.197  1.00  0.00     0.352 A 
HETATM   21  C   UNL     1      41.024 -13.029   4.479  1.00  0.00     0.011 A 
ENDBRANCH   7  13
BRANCH   1  22
HETATM   22  C   UNL     1      43.122 -16.619   4.507  1.00  0.00    -0.005 A 
HETATM   23  C   UNL     1      44.078 -17.635   4.355  1.00  0.00     0.014 A 
HETATM   24  C   UNL     1      44.028 -18.508   3.266  1.00  0.00     0.001 A 
HETATM   25  C   UNL     1      43.021 -18.371   2.313  1.00  0.00     0.000 A 
HETATM   26  C   UNL     1      42.073 -17.357   2.444  1.00  0.00     0.001 A 
HETATM   27  C   UNL     1      42.126 -16.481   3.532  1.00  0.00     0.014 A 
ENDBRANCH   1  22
TORSDOF 2
ENDMDL
MODEL 4
REMARK VINA RESULT:      -8.3      0.912      1.214
REMARK  2 active torsions:
REMARK  status: ('A' for Active; 'I' for Inactive)
REMARK    1  A    between atoms: C_4  and  C_5 
REMARK    2  A    between atoms: C_11  and  C_12 
ROOT
HETATM    1  C   UNL     1      40.583 -14.588   2.549  1.00  0.00     0.098 A 
HETATM    2  N   UNL     1      40.088 -14.584   1.294  1.00  0.00    -0.172 NA
HETATM    3  N   UNL     1      39.344 -13.470   1.217  1.00  0.00    -0.261 N 
HETATM    4  H   UNL     1      38.878 -13.262   0.341  1.00  0.00     0.191 HD
HETATM    5  C   UNL     1      39.348 -12.756   2.369  1.00  0.00     0.133 A 
HETATM    6  C   UNL     1      40.122 -13.444   3.267  1.00  0.00     0.028 A 
HETATM    7  C   UNL     1      40.365 -12.908   4.633  1.00  0.00     0.067 C 
HETATM    8  C   UNL     1      39.368 -11.789   4.985  1.00  0.00     0.117 C 
HETATM    9  C   UNL     1      38.866 -10.945   3.816  1.00  0.00     0.224 C 
HETATM   10  O   UNL     1      38.457  -9.796   3.979  1.00  0.00    -0.273 OA
HETATM   11  N   UNL     1      38.752 -11.545   2.584  1.00  0.00    -0.312 N 
HETATM   12  H   UNL     1      38.317 -11.007   1.844  1.00  0.00     0.170 HD
ENDROOT
BRANCH   7  13
HETATM   13  C   UNL     1      41.814 -12.449   4.716  1.00  0.00    -0.046 A 
HETATM   14  C   UNL     1      42.416 -12.387   5.989  1.00  0.00     0.047 A 
HETATM   15  C   UNL     1      43.717 -11.937   6.086  1.00  0.00     0.105 A 
HETATM   16  C   UNL     1      44.434 -11.552   4.980  1.00  0.00     0.105 A 
HETATM   17  O   UNL     1      44.427 -11.810   7.238  1.00  0.00    -0.323 OA
HETATM   18  O   UNL     1      45.691 -11.140   5.295  1.00  0.00    -0.323 OA
HETATM   19  C   UNL     1      43.888 -11.589   3.718  1.00  0.00     0.040 A 
HETATM   20  C   UNL     1      45.676 -11.298   6.729  1.00  0.00     0.352 A 
HETATM   21  C   UNL     1      42.564 -12.029   3.589  1.00  0.00     0.011 A 
ENDBRANCH   7  13
BRANCH   1  22
HETATM   22  C   UNL     1      41.508 -15.638   2.975  1.00  0.00    -0.005 A 
HETATM   23  C   UNL     1      42.371 -16.224   2.036  1.00  0.00     0.014 A 
HETATM   24  C   UNL     1      43.281 -17.212   2.419  1.00  0.00     0.001 A 
HETATM   25  C   UNL     1      43.335 -17.629   3.747  1.00  0.00     0.000 A 
HETATM   26  C   UNL     1      42.473 -17.065   4.688  1.00  0.00     0.001 A 
HETATM   27  C   UNL     1      41.560 -16.079   4.303  1.00  0.00     0.014 A 
ENDBRANCH   1  22
TORSDOF 2
ENDMDL
MODEL 5
REMARK VINA RESULT:      -8.2      1.922      2.984
REMARK  2 active torsions:
REMARK  status: ('A' for Active; 'I' for Inactive)
REMARK    1  A    between atoms: C_4  and  C_5 
REMARK    2  A    between atoms: C_11  and  C_12 
ROOT
HETATM    1  C   UNL     1      42.747 -16.885   2.130  1.00  0.00     0.098 A 
HETATM    2  N   UNL     1      43.412 -16.488   1.025  1.00  0.00    -0.172 NA
HETATM    3  N   UNL     1      42.741 -15.414   0.583  1.00  0.00    -0.261 N 
HETATM    4  H   UNL     1      43.079 -14.944  -0.249  1.00  0.00     0.191 HD
HETATM    5  C   UNL     1      41.676 -15.102   1.363  1.00  0.00     0.133 A 
HETATM    6  C   UNL     1      41.628 -16.033   2.368  1.00  0.00     0.028 A 
HETATM    7  C   UNL     1      40.588 -15.956   3.429  1.00  0.00     0.067 C 
HETATM    8  C   UNL     1      39.438 -15.015   3.024  1.00  0.00     0.117 C 
HETATM    9  C   UNL     1      39.813 -13.849   2.113  1.00  0.00     0.224 C 
HETATM   10  O   UNL     1      39.148 -12.814   2.082  1.00  0.00    -0.273 OA
HETATM   11  N   UNL     1      40.844 -14.028   1.220  1.00  0.00    -0.312 N 
HETATM   12  H   UNL     1      41.012 -13.287   0.550  1.00  0.00     0.170 HD
ENDROOT
BRANCH   7  13
HETATM   13  C   UNL     1      41.261 -15.533   4.728  1.00  0.00    -0.046 A 
HETATM   14  C   UNL     1      42.047 -14.364   4.715  1.00  0.00     0.047 A 
HETATM   15  C   UNL     1      42.696 -13.989   5.874  1.00  0.00     0.105 A 
HETATM   16  C   UNL     1      42.592 -14.720   7.031  1.00  0.00     0.105 A 
HETATM   17  O   UNL     1      43.495 -12.898   6.017  1.00  0.00    -0.323 OA
HETATM   18  O   UNL     1      43.308 -14.180   8.052  1.00  0.00    -0.323 OA
HETATM   19  C   UNL     1      41.841 -15.872   7.091  1.00  0.00     0.040 A 
HETATM   20  C   UNL     1      43.886 -13.031   7.398  1.00  0.00     0.352 A 
HETATM   21  C   UNL     1      41.182 -16.287   5.926  1.00  0.00     0.011 A 
ENDBRANCH   7  13
BRANCH   1  22
HETATM   22  C   UNL     1      43.242 -18.008   2.927  1.00  0.00    -0.005 A 
HETATM   23  C   UNL     1      43.199 -19.306   2.396  1.00  0.00     0.014 A 
HETATM   24  C   UNL     1      43.686 -20.394   3.125  1.00  0.00     0.001 A 
HETATM   25  C   UNL     1      44.218 -20.195   4.397  1.00  0.00     0.000 A 
HETATM   26  C   UNL     1      44.254 -18.912   4.942  1.00  0.00     0.001 A 
HETATM   27  C   UNL     1      43.763 -17.824   4.214  1.00  0.00     0.014 A 
ENDBRANCH   1  22
TORSDOF 2
ENDMDL
MODEL 6
REMARK VINA RESULT:      -8.1      7.453      9.606
REMARK  2 active torsions:
REMARK  status: ('A' for Active; 'I' for Inactive)
REMARK    1  A    between atoms: C_4  and  C_5 
REMARK    2  A    between atoms: C_11  and  C_12 
ROOT
HETATM    1  C   UNL     1      40.234  -9.354  12.966  1.00  0.00     0.098 A 
HETATM    2  N   UNL     1      39.814 -10.474  13.590  1.00  0.00    -0.172 NA
HETATM    3  N   UNL     1      39.171 -11.178  12.646  1.00  0.00    -0.261 N 
HETATM    4  H   UNL     1      38.775 -12.075  12.900  1.00  0.00     0.191 HD
HETATM    5  C   UNL     1      39.168 -10.557  11.440  1.00  0.00     0.133 A 
HETATM    6  C   UNL     1      39.828  -9.366  11.598  1.00  0.00     0.028 A 
HETATM    7  C   UNL     1      40.035  -8.451  10.444  1.00  0.00     0.067 C 
HETATM    8  C   UNL     1      39.117  -8.814   9.264  1.00  0.00     0.117 C 
HETATM    9  C   UNL     1      38.755 -10.290   9.124  1.00  0.00     0.224 C 
HETATM   10  O   UNL     1      38.434 -10.777   8.040  1.00  0.00    -0.273 OA
HETATM   11  N   UNL     1      38.663 -11.048  10.269  1.00  0.00    -0.312 N 
HETATM   12  H   UNL     1      38.318 -11.995  10.172  1.00  0.00     0.170 HD
ENDROOT
BRANCH   7  13
HETATM   13  C   UNL     1      41.511  -8.480  10.069  1.00  0.00    -0.046 A 
HETATM   14  C   UNL     1      42.132  -9.737   9.929  1.00  0.00     0.047 A 
HETATM   15  C   UNL     1      43.478  -9.782   9.628  1.00  0.00     0.105 A 
HETATM   16  C   UNL     1      44.220  -8.639   9.461  1.00  0.00     0.105 A 
HETATM   17  O   UNL     1      44.218 -10.911   9.472  1.00  0.00    -0.323 OA
HETATM   18  O   UNL     1      45.522  -8.904   9.172  1.00  0.00    -0.323 OA
HETATM   19  C   UNL     1      43.660  -7.389   9.594  1.00  0.00     0.040 A 
HETATM   20  C   UNL     1      45.515 -10.347   9.190  1.00  0.00     0.352 A 
HETATM   21  C   UNL     1      42.298  -7.312   9.914  1.00  0.00     0.011 A 
ENDBRANCH   7  13
BRANCH   1  22
HETATM   22  C   UNL     1      41.042  -8.367  13.683  1.00  0.00    -0.005 A 
HETATM   23  C   UNL     1      42.429  -8.325  13.474  1.00  0.00     0.014 A 
HETATM   24  C   UNL     1      43.223  -7.379  14.127  1.00  0.00     0.001 A 
HETATM   25  C   UNL     1      42.637  -6.466  15.000  1.00  0.00     0.000 A 
HETATM   26  C   UNL     1      41.262  -6.505  15.228  1.00  0.00     0.001 A 
HETATM   27  C   UNL     1      40.469  -7.455  14.577  1.00  0.00     0.014 A 
ENDBRANCH   1  22
TORSDOF 2
ENDMDL
MODEL 7
REMARK VINA RESULT:      -7.8     16.071     17.747
REMARK  2 active torsions:
REMARK  status: ('A' for Active; 'I' for Inactive)
REMARK    1  A    between atoms: C_4  and  C_5 
REMARK    2  A    between atoms: C_11  and  C_12 
ROOT
HETATM    1  C   UNL     1      45.927 -29.303   1.248  1.00  0.00     0.098 A 
HETATM    2  N   UNL     1      44.655 -29.658   1.523  1.00  0.00    -0.172 NA
HETATM    3  N   UNL     1      43.979 -29.435   0.386  1.00  0.00    -0.261 N 
HETATM    4  H   UNL     1      42.987 -29.645   0.366  1.00  0.00     0.191 HD
HETATM    5  C   UNL     1      44.767 -28.959  -0.609  1.00  0.00     0.133 A 
HETATM    6  C   UNL     1      46.034 -28.841  -0.098  1.00  0.00     0.028 A 
HETATM    7  C   UNL     1      47.160 -28.375  -0.951  1.00  0.00     0.067 C 
HETATM    8  C   UNL     1      46.651 -27.710  -2.243  1.00  0.00     0.117 C 
HETATM    9  C   UNL     1      45.328 -28.236  -2.793  1.00  0.00     0.224 C 
HETATM   10  O   UNL     1      45.041 -28.140  -3.986  1.00  0.00    -0.273 OA
HETATM   11  N   UNL     1      44.394 -28.706  -1.899  1.00  0.00    -0.312 N 
HETATM   12  H   UNL     1      43.482 -28.951  -2.266  1.00  0.00     0.170 HD
ENDROOT
BRANCH   7  13
HETATM   13  C   UNL     1      48.075 -29.560  -1.223  1.00  0.00    -0.046 A 
HETATM   14  C   UNL     1      49.353 -29.560  -0.627  1.00  0.00     0.047 A 
HETATM   15  C   UNL     1      50.210 -30.607  -0.894  1.00  0.00     0.105 A 
HETATM   16  C   UNL     1      49.850 -31.644  -1.719  1.00  0.00     0.105 A 
HETATM   17  O   UNL     1      51.471 -30.744  -0.406  1.00  0.00    -0.323 OA
HETATM   18  O   UNL     1      50.838 -32.569  -1.851  1.00  0.00    -0.323 OA
HETATM   19  C   UNL     1      48.617 -31.686  -2.329  1.00  0.00     0.040 A 
HETATM   20  C   UNL     1      51.865 -31.986  -1.023  1.00  0.00     0.352 A 
HETATM   21  C   UNL     1      47.730 -30.629  -2.088  1.00  0.00     0.011 A 
ENDBRANCH   7  13
BRANCH   1  22
HETATM   22  C   UNL     1      46.977 -29.478   2.252  1.00  0.00    -0.005 A 
HETATM   23  C   UNL     1      47.155 -30.732   2.857  1.00  0.00     0.014 A 
HETATM   24  C   UNL     1      48.163 -30.934   3.802  1.00  0.00     0.001 A 
HETATM   25  C   UNL     1      49.004 -29.881   4.156  1.00  0.00     0.000 A 
HETATM   26  C   UNL     1      48.829 -28.626   3.573  1.00  0.00     0.001 A 
HETATM   27  C   UNL     1      47.817 -28.424   2.630  1.00  0.00     0.014 A 
ENDBRANCH   1  22
TORSDOF 2
ENDMDL
MODEL 8
REMARK VINA RESULT:      -7.8      6.783      9.182
REMARK  2 active torsions:
REMARK  status: ('A' for Active; 'I' for Inactive)
REMARK    1  A    between atoms: C_4  and  C_5 
REMARK    2  A    between atoms: C_11  and  C_12 
ROOT
HETATM    1  C   UNL     1      44.048 -10.418  10.827  1.00  0.00     0.098 A 
HETATM    2  N   UNL     1      43.882 -11.614  11.429  1.00  0.00    -0.172 NA
HETATM    3  N   UNL     1      43.148 -11.354  12.521  1.00  0.00    -0.261 N 
HETATM    4  H   UNL     1      42.895 -12.126  13.127  1.00  0.00     0.191 HD
HETATM    5  C   UNL     1      42.831 -10.041  12.641  1.00  0.00     0.133 A 
HETATM    6  C   UNL     1      43.403  -9.391  11.578  1.00  0.00     0.028 A 
HETATM    7  C   UNL     1      43.214  -7.927  11.388  1.00  0.00     0.067 C 
HETATM    8  C   UNL     1      42.688  -7.255  12.670  1.00  0.00     0.117 C 
HETATM    9  C   UNL     1      41.804  -8.119  13.566  1.00  0.00     0.224 C 
HETATM   10  O   UNL     1      40.980  -7.620  14.333  1.00  0.00    -0.273 OA
HETATM   11  N   UNL     1      42.037  -9.474  13.598  1.00  0.00    -0.312 N 
HETATM   12  H   UNL     1      41.518 -10.019  14.275  1.00  0.00     0.170 HD
ENDROOT
BRANCH   7  13
HETATM   13  C   UNL     1      42.294  -7.715  10.195  1.00  0.00    -0.046 A 
HETATM   14  C   UNL     1      42.833  -7.106   9.044  1.00  0.00     0.047 A 
HETATM   15  C   UNL     1      42.003  -6.870   7.967  1.00  0.00     0.105 A 
HETATM   16  C   UNL     1      40.674  -7.215   7.989  1.00  0.00     0.105 A 
HETATM   17  O   UNL     1      42.370  -6.284   6.797  1.00  0.00    -0.323 OA
HETATM   18  O   UNL     1      40.036  -6.895   6.832  1.00  0.00    -0.323 OA
HETATM   19  C   UNL     1      40.100  -7.805   9.092  1.00  0.00     0.040 A 
HETATM   20  C   UNL     1      41.116  -6.297   6.085  1.00  0.00     0.352 A 
HETATM   21  C   UNL     1      40.915  -8.044  10.206  1.00  0.00     0.011 A 
ENDBRANCH   7  13
BRANCH   1  22
HETATM   22  C   UNL     1      44.754 -10.326   9.549  1.00  0.00    -0.005 A 
HETATM   23  C   UNL     1      44.405 -11.192   8.500  1.00  0.00     0.014 A 
HETATM   24  C   UNL     1      45.046 -11.112   7.263  1.00  0.00     0.001 A 
HETATM   25  C   UNL     1      46.048 -10.165   7.060  1.00  0.00     0.000 A 
HETATM   26  C   UNL     1      46.414  -9.308   8.097  1.00  0.00     0.001 A 
HETATM   27  C   UNL     1      45.775  -9.392   9.337  1.00  0.00     0.014 A 
ENDBRANCH   1  22
TORSDOF 2
ENDMDL
MODEL 9
REMARK VINA RESULT:      -7.7     16.000     17.877
REMARK  2 active torsions:
REMARK  status: ('A' for Active; 'I' for Inactive)
REMARK    1  A    between atoms: C_4  and  C_5 
REMARK    2  A    between atoms: C_11  and  C_12 
ROOT
HETATM    1  C   UNL     1      47.281 -29.600  -1.378  1.00  0.00     0.098 A 
HETATM    2  N   UNL     1      48.464 -30.108  -1.785  1.00  0.00    -0.172 NA
HETATM    3  N   UNL     1      49.243 -30.092  -0.694  1.00  0.00    -0.261 N 
HETATM    4  H   UNL     1      50.191 -30.444  -0.773  1.00  0.00     0.191 HD
HETATM    5  C   UNL     1      48.607 -29.602   0.399  1.00  0.00     0.133 A 
HETATM    6  C   UNL     1      47.341 -29.255   0.006  1.00  0.00     0.028 A 
HETATM    7  C   UNL     1      46.360 -28.713   0.984  1.00  0.00     0.067 C 
HETATM    8  C   UNL     1      47.052 -28.252   2.280  1.00  0.00     0.117 C 
HETATM    9  C   UNL     1      48.316 -29.012   2.673  1.00  0.00     0.224 C 
HETATM   10  O   UNL     1      48.696 -29.070   3.842  1.00  0.00    -0.273 OA
HETATM   11  N   UNL     1      49.103 -29.527   1.670  1.00  0.00    -0.312 N 
HETATM   12  H   UNL     1      49.991 -29.933   1.939  1.00  0.00     0.170 HD
ENDROOT
BRANCH   7  13
HETATM   13  C   UNL     1      45.297 -29.774   1.233  1.00  0.00    -0.046 A 
HETATM   14  C   UNL     1      43.944 -29.385   1.158  1.00  0.00     0.047 A 
HETATM   15  C   UNL     1      42.969 -30.325   1.419  1.00  0.00     0.105 A 
HETATM   16  C   UNL     1      43.281 -31.621   1.746  1.00  0.00     0.105 A 
HETATM   17  O   UNL     1      41.628 -30.102   1.398  1.00  0.00    -0.323 OA
HETATM   18  O   UNL     1      42.176 -32.382   1.966  1.00  0.00    -0.323 OA
HETATM   19  C   UNL     1      44.587 -32.047   1.838  1.00  0.00     0.040 A 
HETATM   20  C   UNL     1      41.132 -31.409   1.753  1.00  0.00     0.352 A 
HETATM   21  C   UNL     1      45.600 -31.111   1.592  1.00  0.00     0.011 A 
ENDBRANCH   7  13
BRANCH   1  22
HETATM   22  C   UNL     1      46.150 -29.527  -2.303  1.00  0.00    -0.005 A 
HETATM   23  C   UNL     1      45.339 -30.656  -2.495  1.00  0.00     0.014 A 
HETATM   24  C   UNL     1      44.239 -30.609  -3.353  1.00  0.00     0.001 A 
HETATM   25  C   UNL     1      43.940 -29.431  -4.034  1.00  0.00     0.000 A 
HETATM   26  C   UNL     1      44.746 -28.306  -3.864  1.00  0.00     0.001 A 
HETATM   27  C   UNL     1      45.849 -28.356  -3.007  1.00  0.00     0.014 A 
ENDBRANCH   1  22
TORSDOF 2
ENDMDL
MODEL 10
REMARK VINA RESULT:      -7.3      4.301      6.843
REMARK  2 active torsions:
REMARK  status: ('A' for Active; 'I' for Inactive)
REMARK    1  A    between atoms: C_4  and  C_5 
REMARK    2  A    between atoms: C_11  and  C_12 
ROOT
HETATM    1  C   UNL     1      41.634 -11.854   2.163  1.00  0.00     0.098 A 
HETATM    2  N   UNL     1      41.423 -11.343   3.394  1.00  0.00    -0.172 NA
HETATM    3  N   UNL     1      41.158 -10.044   3.191  1.00  0.00    -0.261 N 
HETATM    4  H   UNL     1      40.957  -9.462   3.996  1.00  0.00     0.191 HD
HETATM    5  C   UNL     1      41.183  -9.702   1.879  1.00  0.00     0.133 A 
HETATM    6  C   UNL     1      41.502 -10.834   1.174  1.00  0.00     0.028 A 
HETATM    7  C   UNL     1      41.577 -10.812  -0.311  1.00  0.00     0.067 C 
HETATM    8  C   UNL     1      41.651  -9.372  -0.851  1.00  0.00     0.117 C 
HETATM    9  C   UNL     1      40.945  -8.305  -0.018  1.00  0.00     0.224 C 
HETATM   10  O   UNL     1      40.542  -7.257  -0.520  1.00  0.00    -0.273 OA
HETATM   11  N   UNL     1      40.883  -8.481   1.345  1.00  0.00    -0.312 N 
HETATM   12  H   UNL     1      40.509  -7.717   1.895  1.00  0.00     0.170 HD
ENDROOT
BRANCH   7  13
HETATM   13  C   UNL     1      40.385 -11.583  -0.862  1.00  0.00    -0.046 A 
HETATM   14  C   UNL     1      40.627 -12.553  -1.855  1.00  0.00     0.047 A 
HETATM   15  C   UNL     1      39.554 -13.233  -2.393  1.00  0.00     0.105 A 
HETATM   16  C   UNL     1      38.266 -12.991  -1.984  1.00  0.00     0.105 A 
HETATM   17  O   UNL     1      39.623 -14.185  -3.361  1.00  0.00    -0.323 OA
HETATM   18  O   UNL     1      37.360 -13.765  -2.640  1.00  0.00    -0.323 OA
HETATM   19  C   UNL     1      37.979 -12.050  -1.023  1.00  0.00     0.040 A 
HETATM   20  C   UNL     1      38.228 -14.512  -3.518  1.00  0.00     0.352 A 
HETATM   21  C   UNL     1      39.047 -11.332  -0.468  1.00  0.00     0.011 A 
ENDBRANCH   7  13
BRANCH   1  22
HETATM   22  C   UNL     1      41.888 -13.284   1.990  1.00  0.00    -0.005 A 
HETATM   23  C   UNL     1      40.825 -14.143   1.670  1.00  0.00     0.014 A 
HETATM   24  C   UNL     1      41.042 -15.509   1.476  1.00  0.00     0.001 A 
HETATM   25  C   UNL     1      42.326 -16.033   1.604  1.00  0.00     0.000 A 
HETATM   26  C   UNL     1      43.389 -15.194   1.936  1.00  0.00     0.001 A 
HETATM   27  C   UNL     1      43.171 -13.827   2.134  1.00  0.00     0.014 A 
ENDBRANCH   1  22
TORSDOF 2
ENDMDL
