MODEL 1
REMARK VINA RESULT:      -8.9      0.000      0.000
REMARK  9 active torsions:
REMARK  status: ('A' for Active; 'I' for Inactive)
REMARK    1  A    between atoms: C_2  and  O_3 
REMARK    2  A    between atoms: O_3  and  C_4 
REMARK    3  A    between atoms: C_4  and  C_5 
REMARK    4  A    between atoms: C_10  and  C_11 
REMARK       I    between atoms: C_11  and  N_12 
REMARK    5  A    between atoms: N_12  and  C_13 
REMARK    6  A    between atoms: C_15  and  C_16 
REMARK    7  A    between atoms: C_16  and  C_17 
REMARK    8  A    between atoms: C_17  and  C_18 
REMARK    9  A    between atoms: C_18  and  C_19 
ROOT
HETATM    1  C   UNL     1      43.915 -12.217   7.137  1.00  0.00     0.725 A 
HETATM    2  N   UNL     1      44.706 -11.610   7.985  1.00  0.00    -0.046 NA
HETATM    3  C   UNL     1      44.090 -10.413   8.222  1.00  0.00     0.165 A 
HETATM    4  N   UNL     1      42.928 -10.247   7.580  1.00  0.00    -0.144 NA
HETATM    5  N   UNL     1      42.841 -11.402   6.897  1.00  0.00    -0.106 N 
HETATM    6  H   UNL     1      42.039 -11.561   6.302  1.00  0.00     0.208 HD
ENDROOT
BRANCH   1   7
HETATM    7  N   UNL     1      44.049 -13.454   6.557  1.00  0.00    -0.152 N 
HETATM    8  C   UNL     1      42.949 -14.214   6.217  1.00  0.00     0.272 C 
HETATM    9  O   UNL     1      41.782 -13.953   6.486  1.00  0.00    -0.267 OA
HETATM   10  H   UNL     1      44.966 -13.839   6.402  1.00  0.00     0.187 HD
BRANCH   8  11
HETATM   11  C   UNL     1      43.282 -15.457   5.493  1.00  0.00     0.063 A 
HETATM   12  C   UNL     1      43.208 -15.696   4.122  1.00  0.00     0.022 A 
HETATM   13  N   UNL     1      43.533 -17.014   3.916  1.00  0.00    -0.354 N 
HETATM   14  C   UNL     1      42.799 -14.848   2.970  1.00  0.00     0.069 C 
HETATM   15  C   UNL     1      43.722 -17.673   5.108  1.00  0.00     0.115 A 
HETATM   16  H   UNL     1      43.533 -17.488   3.020  1.00  0.00     0.166 HD
HETATM   17  C   UNL     1      43.665 -16.709   6.109  1.00  0.00    -0.011 A 
HETATM   18  C   UNL     1      43.892 -16.917   7.572  1.00  0.00     0.052 C 
BRANCH  15  19
HETATM   19  C   UNL     1      43.902 -19.109   5.126  1.00  0.00     0.310 C 
HETATM   20  O   UNL     1      43.642 -19.815   6.092  1.00  0.00    -0.258 OA
BRANCH  19  21
HETATM   21  O   UNL     1      44.460 -19.544   3.965  1.00  0.00    -0.317 OA
BRANCH  21  22
HETATM   22  C   UNL     1      43.796 -20.636   3.316  1.00  0.00     0.175 C 
HETATM   23  C   UNL     1      43.285 -20.217   1.952  1.00  0.00     0.034 C 
ENDBRANCH  21  22
ENDBRANCH  19  21
ENDBRANCH  15  19
ENDBRANCH   8  11
ENDBRANCH   1   7
BRANCH   3  24
HETATM   24  C   UNL     1      44.698  -9.392   9.111  1.00  0.00     0.083 C 
BRANCH  24  25
HETATM   25  C   UNL     1      44.770  -9.879  10.558  1.00  0.00     0.012 C 
BRANCH  25  26
HETATM   26  C   UNL     1      43.426 -10.434  11.027  1.00  0.00     0.041 C 
BRANCH  26  27
HETATM   27  C   UNL     1      42.422  -9.348  11.253  1.00  0.00    -0.030 A 
HETATM   28  C   UNL     1      42.463  -8.333  12.262  1.00  0.00    -0.002 A 
HETATM   29  C   UNL     1      41.319  -7.547  12.111  1.00  0.00     0.042 A 
HETATM   30  C   UNL     1      43.366  -8.009  13.296  1.00  0.00     0.014 A 
HETATM   31  C   UNL     1      41.034  -6.455  12.940  1.00  0.00     0.030 A 
HETATM   32  N   UNL     1      40.610  -8.064  11.052  1.00  0.00    -0.365 N 
HETATM   33  C   UNL     1      41.948  -6.155  13.954  1.00  0.00     0.002 A 
HETATM   34  C   UNL     1      43.098  -6.919  14.132  1.00  0.00     0.001 A 
HETATM   35  H   UNL     1      39.730  -7.698  10.718  1.00  0.00     0.165 HD
HETATM   36  C   UNL     1      41.265  -9.144  10.527  1.00  0.00     0.096 A 
ENDBRANCH  26  27
ENDBRANCH  25  26
ENDBRANCH  24  25
ENDBRANCH   3  24
TORSDOF 9
ENDMDL
MODEL 2
REMARK VINA RESULT:      -8.8      1.900      2.509
REMARK  9 active torsions:
REMARK  status: ('A' for Active; 'I' for Inactive)
REMARK    1  A    between atoms: C_2  and  O_3 
REMARK    2  A    between atoms: O_3  and  C_4 
REMARK    3  A    between atoms: C_4  and  C_5 
REMARK    4  A    between atoms: C_10  and  C_11 
REMARK       I    between atoms: C_11  and  N_12 
REMARK    5  A    between atoms: N_12  and  C_13 
REMARK    6  A    between atoms: C_15  and  C_16 
REMARK    7  A    between atoms: C_16  and  C_17 
REMARK    8  A    between atoms: C_17  and  C_18 
REMARK    9  A    between atoms: C_18  and  C_19 
ROOT
HETATM    1  C   UNL     1      43.464 -12.017   7.113  1.00  0.00     0.725 A 
HETATM    2  N   UNL     1      44.606 -11.751   7.696  1.00  0.00    -0.046 NA
HETATM    3  C   UNL     1      44.425 -10.509   8.238  1.00  0.00     0.165 A 
HETATM    4  N   UNL     1      43.209  -9.987   8.044  1.00  0.00    -0.144 NA
HETATM    5  N   UNL     1      42.620 -10.960   7.327  1.00  0.00    -0.106 N 
HETATM    6  H   UNL     1      41.663 -10.837   7.025  1.00  0.00     0.208 HD
ENDROOT
BRANCH   1   7
HETATM    7  N   UNL     1      43.088 -13.134   6.409  1.00  0.00    -0.152 N 
HETATM    8  C   UNL     1      42.126 -13.074   5.423  1.00  0.00     0.272 C 
HETATM    9  O   UNL     1      41.435 -12.100   5.148  1.00  0.00    -0.267 OA
HETATM   10  H   UNL     1      43.493 -14.028   6.632  1.00  0.00     0.187 HD
BRANCH   8  11
HETATM   11  C   UNL     1      41.941 -14.343   4.690  1.00  0.00     0.063 A 
HETATM   12  C   UNL     1      41.263 -15.485   5.112  1.00  0.00     0.022 A 
HETATM   13  N   UNL     1      41.423 -16.442   4.141  1.00  0.00    -0.354 N 
HETATM   14  C   UNL     1      40.530 -15.819   6.364  1.00  0.00     0.069 C 
HETATM   15  C   UNL     1      42.261 -16.003   3.143  1.00  0.00     0.115 A 
HETATM   16  H   UNL     1      41.070 -17.390   4.184  1.00  0.00     0.166 HD
HETATM   17  C   UNL     1      42.528 -14.663   3.407  1.00  0.00    -0.011 A 
HETATM   18  C   UNL     1      43.326 -13.722   2.564  1.00  0.00     0.052 C 
BRANCH  15  19
HETATM   19  C   UNL     1      42.703 -16.914   2.109  1.00  0.00     0.310 C 
HETATM   20  O   UNL     1      43.179 -16.551   1.040  1.00  0.00    -0.258 OA
BRANCH  19  21
HETATM   21  O   UNL     1      42.449 -18.204   2.455  1.00  0.00    -0.317 OA
BRANCH  21  22
HETATM   22  C   UNL     1      43.595 -19.040   2.659  1.00  0.00     0.175 C 
HETATM   23  C   UNL     1      43.479 -20.314   1.846  1.00  0.00     0.034 C 
ENDBRANCH  21  22
ENDBRANCH  19  21
ENDBRANCH  15  19
ENDBRANCH   8  11
ENDBRANCH   1   7
BRANCH   3  24
HETATM   24  C   UNL     1      45.520  -9.812   8.959  1.00  0.00     0.083 C 
BRANCH  24  25
HETATM   25  C   UNL     1      45.308  -9.854  10.472  1.00  0.00     0.012 C 
BRANCH  25  26
HETATM   26  C   UNL     1      44.482  -8.662  10.954  1.00  0.00     0.041 C 
BRANCH  26  27
HETATM   27  C   UNL     1      43.346  -9.089  11.830  1.00  0.00    -0.030 A 
HETATM   28  C   UNL     1      42.912  -8.466  13.044  1.00  0.00    -0.002 A 
HETATM   29  C   UNL     1      41.834  -9.205  13.532  1.00  0.00     0.042 A 
HETATM   30  C   UNL     1      43.340  -7.341  13.780  1.00  0.00     0.014 A 
HETATM   31  C   UNL     1      41.161  -8.877  14.715  1.00  0.00     0.030 A 
HETATM   32  N   UNL     1      41.619 -10.238  12.649  1.00  0.00    -0.365 N 
HETATM   33  C   UNL     1      41.604  -7.756  15.422  1.00  0.00     0.002 A 
HETATM   34  C   UNL     1      42.678  -6.996  14.964  1.00  0.00     0.001 A 
HETATM   35  H   UNL     1      40.901 -10.941  12.752  1.00  0.00     0.165 HD
HETATM   36  C   UNL     1      42.520 -10.176  11.621  1.00  0.00     0.096 A 
ENDBRANCH  26  27
ENDBRANCH  25  26
ENDBRANCH  24  25
ENDBRANCH   3  24
TORSDOF 9
ENDMDL
MODEL 3
REMARK VINA RESULT:      -8.6      3.258     11.098
REMARK  9 active torsions:
REMARK  status: ('A' for Active; 'I' for Inactive)
REMARK    1  A    between atoms: C_2  and  O_3 
REMARK    2  A    between atoms: O_3  and  C_4 
REMARK    3  A    between atoms: C_4  and  C_5 
REMARK    4  A    between atoms: C_10  and  C_11 
REMARK       I    between atoms: C_11  and  N_12 
REMARK    5  A    between atoms: N_12  and  C_13 
REMARK    6  A    between atoms: C_15  and  C_16 
REMARK    7  A    between atoms: C_16  and  C_17 
REMARK    8  A    between atoms: C_17  and  C_18 
REMARK    9  A    between atoms: C_18  and  C_19 
ROOT
HETATM    1  C   UNL     1      43.157 -11.580   6.336  1.00  0.00     0.725 A 
HETATM    2  N   UNL     1      42.323 -12.405   5.755  1.00  0.00    -0.046 NA
HETATM    3  C   UNL     1      42.748 -12.454   4.456  1.00  0.00     0.165 A 
HETATM    4  N   UNL     1      43.832 -11.714   4.196  1.00  0.00    -0.144 NA
HETATM    5  N   UNL     1      44.070 -11.169   5.402  1.00  0.00    -0.106 N 
HETATM    6  H   UNL     1      44.855 -10.541   5.511  1.00  0.00     0.208 HD
ENDROOT
BRANCH   1   7
HETATM    7  N   UNL     1      43.195 -11.163   7.643  1.00  0.00    -0.152 N 
HETATM    8  C   UNL     1      42.988  -9.842   7.983  1.00  0.00     0.272 C 
HETATM    9  O   UNL     1      42.873  -8.906   7.201  1.00  0.00    -0.267 OA
HETATM   10  H   UNL     1      43.410 -11.819   8.374  1.00  0.00     0.187 HD
BRANCH   8  11
HETATM   11  C   UNL     1      42.942  -9.600   9.440  1.00  0.00     0.063 A 
HETATM   12  C   UNL     1      43.999  -9.629  10.347  1.00  0.00     0.022 A 
HETATM   13  N   UNL     1      43.473  -9.429  11.599  1.00  0.00    -0.354 N 
HETATM   14  C   UNL     1      45.455  -9.893  10.192  1.00  0.00     0.069 C 
HETATM   15  C   UNL     1      42.100  -9.366  11.558  1.00  0.00     0.115 A 
HETATM   16  H   UNL     1      43.997  -9.431  12.466  1.00  0.00     0.166 HD
HETATM   17  C   UNL     1      41.740  -9.376  10.214  1.00  0.00    -0.011 A 
HETATM   18  C   UNL     1      40.362  -9.244   9.651  1.00  0.00     0.052 C 
BRANCH  15  19
HETATM   19  C   UNL     1      41.335  -9.332  12.787  1.00  0.00     0.310 C 
HETATM   20  O   UNL     1      40.114  -9.232  12.826  1.00  0.00    -0.258 OA
BRANCH  19  21
HETATM   21  O   UNL     1      42.154  -9.352  13.871  1.00  0.00    -0.317 OA
BRANCH  21  22
HETATM   22  C   UNL     1      42.002  -8.268  14.797  1.00  0.00     0.175 C 
HETATM   23  C   UNL     1      42.911  -7.114  14.423  1.00  0.00     0.034 C 
ENDBRANCH  21  22
ENDBRANCH  19  21
ENDBRANCH  15  19
ENDBRANCH   8  11
ENDBRANCH   1   7
BRANCH   3  24
HETATM   24  C   UNL     1      42.029 -13.256   3.435  1.00  0.00     0.083 C 
BRANCH  24  25
HETATM   25  C   UNL     1      41.934 -14.726   3.843  1.00  0.00     0.012 C 
BRANCH  25  26
HETATM   26  C   UNL     1      42.939 -15.584   3.074  1.00  0.00     0.041 C 
BRANCH  26  27
HETATM   27  C   UNL     1      43.418 -16.745   3.888  1.00  0.00    -0.030 A 
HETATM   28  C   UNL     1      43.480 -18.117   3.480  1.00  0.00    -0.002 A 
HETATM   29  C   UNL     1      43.973 -18.852   4.559  1.00  0.00     0.042 A 
HETATM   30  C   UNL     1      43.159 -18.805   2.292  1.00  0.00     0.014 A 
HETATM   31  C   UNL     1      44.162 -20.239   4.509  1.00  0.00     0.030 A 
HETATM   32  N   UNL     1      44.201 -17.963   5.583  1.00  0.00    -0.365 N 
HETATM   33  C   UNL     1      43.838 -20.894   3.318  1.00  0.00     0.002 A 
HETATM   34  C   UNL     1      43.344 -20.190   2.223  1.00  0.00     0.001 A 
HETATM   35  H   UNL     1      44.555 -18.217   6.495  1.00  0.00     0.165 HD
HETATM   36  C   UNL     1      43.874 -16.694   5.190  1.00  0.00     0.096 A 
ENDBRANCH  26  27
ENDBRANCH  25  26
ENDBRANCH  24  25
ENDBRANCH   3  24
TORSDOF 9
ENDMDL
MODEL 4
REMARK VINA RESULT:      -8.6      3.230     10.877
REMARK  9 active torsions:
REMARK  status: ('A' for Active; 'I' for Inactive)
REMARK    1  A    between atoms: C_2  and  O_3 
REMARK    2  A    between atoms: O_3  and  C_4 
REMARK    3  A    between atoms: C_4  and  C_5 
REMARK    4  A    between atoms: C_10  and  C_11 
REMARK       I    between atoms: C_11  and  N_12 
REMARK    5  A    between atoms: N_12  and  C_13 
REMARK    6  A    between atoms: C_15  and  C_16 
REMARK    7  A    between atoms: C_16  and  C_17 
REMARK    8  A    between atoms: C_17  and  C_18 
REMARK    9  A    between atoms: C_18  and  C_19 
ROOT
HETATM    1  C   UNL     1      40.818 -12.730   4.513  1.00  0.00     0.725 A 
HETATM    2  N   UNL     1      40.919 -14.034   4.571  1.00  0.00    -0.046 NA
HETATM    3  C   UNL     1      40.450 -14.461   3.360  1.00  0.00     0.165 A 
HETATM    4  N   UNL     1      40.081 -13.481   2.527  1.00  0.00    -0.144 NA
HETATM    5  N   UNL     1      40.322 -12.395   3.282  1.00  0.00    -0.106 N 
HETATM    6  H   UNL     1      40.128 -11.479   2.900  1.00  0.00     0.208 HD
ENDROOT
BRANCH   1   7
HETATM    7  N   UNL     1      41.146 -11.792   5.460  1.00  0.00    -0.152 N 
HETATM    8  C   UNL     1      42.005 -10.751   5.175  1.00  0.00     0.272 C 
HETATM    9  O   UNL     1      42.645 -10.607   4.141  1.00  0.00    -0.267 OA
HETATM   10  H   UNL     1      40.784 -11.874   6.396  1.00  0.00     0.187 HD
BRANCH   8  11
HETATM   11  C   UNL     1      42.143  -9.772   6.274  1.00  0.00     0.063 A 
HETATM   12  C   UNL     1      41.307  -8.700   6.576  1.00  0.00     0.022 A 
HETATM   13  N   UNL     1      41.873  -8.019   7.625  1.00  0.00    -0.354 N 
HETATM   14  C   UNL     1      40.059  -8.185   5.950  1.00  0.00     0.069 C 
HETATM   15  C   UNL     1      43.098  -8.548   7.959  1.00  0.00     0.115 A 
HETATM   16  H   UNL     1      41.509  -7.172   8.043  1.00  0.00     0.166 HD
HETATM   17  C   UNL     1      43.255  -9.701   7.197  1.00  0.00    -0.011 A 
HETATM   18  C   UNL     1      44.389 -10.673   7.259  1.00  0.00     0.052 C 
BRANCH  15  19
HETATM   19  C   UNL     1      43.943  -7.877   8.923  1.00  0.00     0.310 C 
HETATM   20  O   UNL     1      45.045  -7.413   8.656  1.00  0.00    -0.258 OA
BRANCH  19  21
HETATM   21  O   UNL     1      43.383  -7.899  10.161  1.00  0.00    -0.317 OA
BRANCH  21  22
HETATM   22  C   UNL     1      43.879  -8.897  11.061  1.00  0.00     0.175 C 
HETATM   23  C   UNL     1      43.097  -8.884  12.360  1.00  0.00     0.034 C 
ENDBRANCH  21  22
ENDBRANCH  19  21
ENDBRANCH  15  19
ENDBRANCH   8  11
ENDBRANCH   1   7
BRANCH   3  24
HETATM   24  C   UNL     1      40.352 -15.906   3.033  1.00  0.00     0.083 C 
BRANCH  24  25
HETATM   25  C   UNL     1      41.245 -16.275   1.849  1.00  0.00     0.012 C 
BRANCH  25  26
HETATM   26  C   UNL     1      42.715 -15.978   2.145  1.00  0.00     0.041 C 
BRANCH  26  27
HETATM   27  C   UNL     1      43.256 -16.862   3.224  1.00  0.00    -0.030 A 
HETATM   28  C   UNL     1      43.437 -18.281   3.166  1.00  0.00    -0.002 A 
HETATM   29  C   UNL     1      43.951 -18.688   4.398  1.00  0.00     0.042 A 
HETATM   30  C   UNL     1      43.207 -19.262   2.180  1.00  0.00     0.014 A 
HETATM   31  C   UNL     1      44.248 -20.024   4.693  1.00  0.00     0.030 A 
HETATM   32  N   UNL     1      44.078 -17.560   5.175  1.00  0.00    -0.365 N 
HETATM   33  C   UNL     1      44.013 -20.975   3.697  1.00  0.00     0.002 A 
HETATM   34  C   UNL     1      43.500 -20.603   2.456  1.00  0.00     0.001 A 
HETATM   35  H   UNL     1      44.422 -17.554   6.125  1.00  0.00     0.165 HD
HETATM   36  C   UNL     1      43.667 -16.457   4.479  1.00  0.00     0.096 A 
ENDBRANCH  26  27
ENDBRANCH  25  26
ENDBRANCH  24  25
ENDBRANCH   3  24
TORSDOF 9
ENDMDL
MODEL 5
REMARK VINA RESULT:      -8.5      5.521      9.904
REMARK  9 active torsions:
REMARK  status: ('A' for Active; 'I' for Inactive)
REMARK    1  A    between atoms: C_2  and  O_3 
REMARK    2  A    between atoms: O_3  and  C_4 
REMARK    3  A    between atoms: C_4  and  C_5 
REMARK    4  A    between atoms: C_10  and  C_11 
REMARK       I    between atoms: C_11  and  N_12 
REMARK    5  A    between atoms: N_12  and  C_13 
REMARK    6  A    between atoms: C_15  and  C_16 
REMARK    7  A    between atoms: C_16  and  C_17 
REMARK    8  A    between atoms: C_17  and  C_18 
REMARK    9  A    between atoms: C_18  and  C_19 
ROOT
HETATM    1  C   UNL     1      42.149 -13.300   4.958  1.00  0.00     0.725 A 
HETATM    2  N   UNL     1      41.894 -14.342   5.708  1.00  0.00    -0.046 NA
HETATM    3  C   UNL     1      42.809 -14.259   6.722  1.00  0.00     0.165 A 
HETATM    4  N   UNL     1      43.615 -13.193   6.659  1.00  0.00    -0.144 NA
HETATM    5  N   UNL     1      43.179 -12.603   5.532  1.00  0.00    -0.106 N 
HETATM    6  H   UNL     1      43.620 -11.748   5.223  1.00  0.00     0.208 HD
ENDROOT
BRANCH   1   7
HETATM    7  N   UNL     1      41.533 -12.892   3.801  1.00  0.00    -0.152 N 
HETATM    8  C   UNL     1      42.158 -13.000   2.577  1.00  0.00     0.272 C 
HETATM    9  O   UNL     1      43.321 -13.338   2.388  1.00  0.00    -0.267 OA
HETATM   10  H   UNL     1      40.619 -12.474   3.839  1.00  0.00     0.187 HD
BRANCH   8  11
HETATM   11  C   UNL     1      41.300 -12.630   1.433  1.00  0.00     0.063 A 
HETATM   12  C   UNL     1      40.980 -11.351   0.981  1.00  0.00     0.022 A 
HETATM   13  N   UNL     1      40.088 -11.491  -0.054  1.00  0.00    -0.354 N 
HETATM   14  C   UNL     1      41.359  -9.991   1.449  1.00  0.00     0.069 C 
HETATM   15  C   UNL     1      39.737 -12.809  -0.233  1.00  0.00     0.115 A 
HETATM   16  H   UNL     1      39.650 -10.732  -0.561  1.00  0.00     0.166 HD
HETATM   17  C   UNL     1      40.546 -13.556   0.616  1.00  0.00    -0.011 A 
HETATM   18  C   UNL     1      40.599 -15.046   0.728  1.00  0.00     0.052 C 
BRANCH  15  19
HETATM   19  C   UNL     1      38.679 -13.161  -1.156  1.00  0.00     0.310 C 
HETATM   20  O   UNL     1      38.693 -14.167  -1.856  1.00  0.00    -0.258 OA
BRANCH  19  21
HETATM   21  O   UNL     1      37.721 -12.198  -1.190  1.00  0.00    -0.317 OA
BRANCH  21  22
HETATM   22  C   UNL     1      37.257 -11.814  -2.491  1.00  0.00     0.175 C 
HETATM   23  C   UNL     1      37.973 -10.565  -2.966  1.00  0.00     0.034 C 
ENDBRANCH  21  22
ENDBRANCH  19  21
ENDBRANCH  15  19
ENDBRANCH   8  11
ENDBRANCH   1   7
BRANCH   3  24
HETATM   24  C   UNL     1      42.889 -15.296   7.780  1.00  0.00     0.083 C 
BRANCH  24  25
HETATM   25  C   UNL     1      43.055 -16.693   7.184  1.00  0.00     0.012 C 
BRANCH  25  26
HETATM   26  C   UNL     1      44.304 -16.780   6.305  1.00  0.00     0.041 C 
BRANCH  26  27
HETATM   27  C   UNL     1      43.979 -17.242   4.920  1.00  0.00    -0.030 A 
HETATM   28  C   UNL     1      43.944 -18.594   4.448  1.00  0.00    -0.002 A 
HETATM   29  C   UNL     1      43.612 -18.555   3.093  1.00  0.00     0.042 A 
HETATM   30  C   UNL     1      44.168 -19.851   5.046  1.00  0.00     0.014 A 
HETATM   31  C   UNL     1      43.492 -19.708   2.307  1.00  0.00     0.030 A 
HETATM   32  N   UNL     1      43.452 -17.231   2.753  1.00  0.00    -0.365 N 
HETATM   33  C   UNL     1      43.717 -20.940   2.927  1.00  0.00     0.002 A 
HETATM   34  C   UNL     1      44.050 -21.014   4.277  1.00  0.00     0.001 A 
HETATM   35  H   UNL     1      43.214 -16.901   1.829  1.00  0.00     0.165 HD
HETATM   36  C   UNL     1      43.667 -16.434   3.844  1.00  0.00     0.096 A 
ENDBRANCH  26  27
ENDBRANCH  25  26
ENDBRANCH  24  25
ENDBRANCH   3  24
TORSDOF 9
ENDMDL
MODEL 6
REMARK VINA RESULT:      -8.1      3.160     10.890
REMARK  9 active torsions:
REMARK  status: ('A' for Active; 'I' for Inactive)
REMARK    1  A    between atoms: C_2  and  O_3 
REMARK    2  A    between atoms: O_3  and  C_4 
REMARK    3  A    between atoms: C_4  and  C_5 
REMARK    4  A    between atoms: C_10  and  C_11 
REMARK       I    between atoms: C_11  and  N_12 
REMARK    5  A    between atoms: N_12  and  C_13 
REMARK    6  A    between atoms: C_15  and  C_16 
REMARK    7  A    between atoms: C_16  and  C_17 
REMARK    8  A    between atoms: C_17  and  C_18 
REMARK    9  A    between atoms: C_18  and  C_19 
ROOT
HETATM    1  C   UNL     1      41.061 -12.552   5.213  1.00  0.00     0.725 A 
HETATM    2  N   UNL     1      41.766 -13.229   4.342  1.00  0.00    -0.046 NA
HETATM    3  C   UNL     1      40.844 -13.668   3.433  1.00  0.00     0.165 A 
HETATM    4  N   UNL     1      39.588 -13.276   3.677  1.00  0.00    -0.144 NA
HETATM    5  N   UNL     1      39.752 -12.573   4.811  1.00  0.00    -0.106 N 
HETATM    6  H   UNL     1      38.946 -12.144   5.244  1.00  0.00     0.208 HD
ENDROOT
BRANCH   1   7
HETATM    7  N   UNL     1      41.479 -11.892   6.342  1.00  0.00    -0.152 N 
HETATM    8  C   UNL     1      42.072 -10.648   6.271  1.00  0.00     0.272 C 
HETATM    9  O   UNL     1      42.395 -10.061   5.246  1.00  0.00    -0.267 OA
HETATM   10  H   UNL     1      41.387 -12.330   7.243  1.00  0.00     0.187 HD
BRANCH   8  11
HETATM   11  C   UNL     1      42.342 -10.039   7.590  1.00  0.00     0.063 A 
HETATM   12  C   UNL     1      43.513 -10.107   8.341  1.00  0.00     0.022 A 
HETATM   13  N   UNL     1      43.278  -9.465   9.531  1.00  0.00    -0.354 N 
HETATM   14  C   UNL     1      44.826 -10.768   8.107  1.00  0.00     0.069 C 
HETATM   15  C   UNL     1      41.966  -9.063   9.628  1.00  0.00     0.115 A 
HETATM   16  H   UNL     1      43.935  -9.381  10.296  1.00  0.00     0.166 HD
HETATM   17  C   UNL     1      41.377  -9.323   8.395  1.00  0.00    -0.011 A 
HETATM   18  C   UNL     1      39.982  -8.988   7.976  1.00  0.00     0.052 C 
BRANCH  15  19
HETATM   19  C   UNL     1      41.460  -8.520  10.872  1.00  0.00     0.310 C 
HETATM   20  O   UNL     1      41.068  -7.367  11.001  1.00  0.00    -0.258 OA
BRANCH  19  21
HETATM   21  O   UNL     1      41.551  -9.434  11.874  1.00  0.00    -0.317 OA
BRANCH  21  22
HETATM   22  C   UNL     1      42.054  -8.949  13.126  1.00  0.00     0.175 C 
HETATM   23  C   UNL     1      43.347  -8.183  12.922  1.00  0.00     0.034 C 
ENDBRANCH  21  22
ENDBRANCH  19  21
ENDBRANCH  15  19
ENDBRANCH   8  11
ENDBRANCH   1   7
BRANCH   3  24
HETATM   24  C   UNL     1      41.234 -14.529   2.288  1.00  0.00     0.083 C 
BRANCH  24  25
HETATM   25  C   UNL     1      42.753 -14.657   2.176  1.00  0.00     0.012 C 
BRANCH  25  26
HETATM   26  C   UNL     1      43.171 -16.094   1.865  1.00  0.00     0.041 C 
BRANCH  26  27
HETATM   27  C   UNL     1      43.485 -16.865   3.108  1.00  0.00    -0.030 A 
HETATM   28  C   UNL     1      43.604 -18.286   3.234  1.00  0.00    -0.002 A 
HETATM   29  C   UNL     1      43.889 -18.565   4.572  1.00  0.00     0.042 A 
HETATM   30  C   UNL     1      43.492 -19.366   2.335  1.00  0.00     0.014 A 
HETATM   31  C   UNL     1      44.069 -19.867   5.054  1.00  0.00     0.030 A 
HETATM   32  N   UNL     1      43.941 -17.360   5.234  1.00  0.00    -0.365 N 
HETATM   33  C   UNL     1      43.955 -20.918   4.140  1.00  0.00     0.002 A 
HETATM   34  C   UNL     1      43.671 -20.674   2.799  1.00  0.00     0.001 A 
HETATM   35  H   UNL     1      44.125 -17.256   6.222  1.00  0.00     0.165 HD
HETATM   36  C   UNL     1      43.703 -16.332   4.364  1.00  0.00     0.096 A 
ENDBRANCH  26  27
ENDBRANCH  25  26
ENDBRANCH  24  25
ENDBRANCH   3  24
TORSDOF 9
ENDMDL
MODEL 7
REMARK VINA RESULT:      -8.1      3.570      4.232
REMARK  9 active torsions:
REMARK  status: ('A' for Active; 'I' for Inactive)
REMARK    1  A    between atoms: C_2  and  O_3 
REMARK    2  A    between atoms: O_3  and  C_4 
REMARK    3  A    between atoms: C_4  and  C_5 
REMARK    4  A    between atoms: C_10  and  C_11 
REMARK       I    between atoms: C_11  and  N_12 
REMARK    5  A    between atoms: N_12  and  C_13 
REMARK    6  A    between atoms: C_15  and  C_16 
REMARK    7  A    between atoms: C_16  and  C_17 
REMARK    8  A    between atoms: C_17  and  C_18 
REMARK    9  A    between atoms: C_18  and  C_19 
ROOT
HETATM    1  C   UNL     1      43.907 -11.273   6.285  1.00  0.00     0.725 A 
HETATM    2  N   UNL     1      43.874 -10.378   7.239  1.00  0.00    -0.046 NA
HETATM    3  C   UNL     1      45.167 -10.306   7.679  1.00  0.00     0.165 A 
HETATM    4  N   UNL     1      46.023 -11.100   7.026  1.00  0.00    -0.144 NA
HETATM    5  N   UNL     1      45.201 -11.704   6.150  1.00  0.00    -0.106 N 
HETATM    6  H   UNL     1      45.582 -12.382   5.505  1.00  0.00     0.208 HD
ENDROOT
BRANCH   1   7
HETATM    7  N   UNL     1      42.885 -11.741   5.498  1.00  0.00    -0.152 N 
HETATM    8  C   UNL     1      42.885 -11.555   4.131  1.00  0.00     0.272 C 
HETATM    9  O   UNL     1      43.687 -10.882   3.495  1.00  0.00    -0.267 OA
HETATM   10  H   UNL     1      42.096 -12.202   5.920  1.00  0.00     0.187 HD
BRANCH   8  11
HETATM   11  C   UNL     1      41.771 -12.232   3.436  1.00  0.00     0.063 A 
HETATM   12  C   UNL     1      40.412 -11.931   3.500  1.00  0.00     0.022 A 
HETATM   13  N   UNL     1      39.746 -12.875   2.758  1.00  0.00    -0.354 N 
HETATM   14  C   UNL     1      39.641 -10.893   4.236  1.00  0.00     0.069 C 
HETATM   15  C   UNL     1      40.608 -13.840   2.291  1.00  0.00     0.115 A 
HETATM   16  H   UNL     1      38.741 -12.936   2.646  1.00  0.00     0.166 HD
HETATM   17  C   UNL     1      41.892 -13.419   2.617  1.00  0.00    -0.011 A 
HETATM   18  C   UNL     1      43.178 -14.088   2.252  1.00  0.00     0.052 C 
BRANCH  15  19
HETATM   19  C   UNL     1      40.091 -15.021   1.632  1.00  0.00     0.310 C 
HETATM   20  O   UNL     1      39.487 -15.915   2.213  1.00  0.00    -0.258 OA
BRANCH  19  21
HETATM   21  O   UNL     1      40.429 -15.032   0.316  1.00  0.00    -0.317 OA
BRANCH  21  22
HETATM   22  C   UNL     1      39.982 -13.912  -0.460  1.00  0.00     0.175 C 
HETATM   23  C   UNL     1      39.748 -14.319  -1.901  1.00  0.00     0.034 C 
ENDBRANCH  21  22
ENDBRANCH  19  21
ENDBRANCH  15  19
ENDBRANCH   8  11
ENDBRANCH   1   7
BRANCH   3  24
HETATM   24  C   UNL     1      45.553  -9.423   8.808  1.00  0.00     0.083 C 
BRANCH  24  25
HETATM   25  C   UNL     1      45.012  -9.946  10.138  1.00  0.00     0.012 C 
BRANCH  25  26
HETATM   26  C   UNL     1      44.585  -8.800  11.055  1.00  0.00     0.041 C 
BRANCH  26  27
HETATM   27  C   UNL     1      43.408  -9.172  11.901  1.00  0.00    -0.030 A 
HETATM   28  C   UNL     1      42.942  -8.498  13.076  1.00  0.00    -0.002 A 
HETATM   29  C   UNL     1      41.831  -9.198  13.547  1.00  0.00     0.042 A 
HETATM   30  C   UNL     1      43.366  -7.357  13.787  1.00  0.00     0.014 A 
HETATM   31  C   UNL     1      41.121  -8.814  14.691  1.00  0.00     0.030 A 
HETATM   32  N   UNL     1      41.628 -10.257  12.692  1.00  0.00    -0.365 N 
HETATM   33  C   UNL     1      41.561  -7.678  15.375  1.00  0.00     0.002 A 
HETATM   34  C   UNL     1      42.667  -6.957  14.932  1.00  0.00     0.001 A 
HETATM   35  H   UNL     1      40.891 -10.941  12.792  1.00  0.00     0.165 HD
HETATM   36  C   UNL     1      42.567 -10.249  11.698  1.00  0.00     0.096 A 
ENDBRANCH  26  27
ENDBRANCH  25  26
ENDBRANCH  24  25
ENDBRANCH   3  24
TORSDOF 9
ENDMDL
MODEL 8
REMARK VINA RESULT:      -8.1      3.913     10.978
REMARK  9 active torsions:
REMARK  status: ('A' for Active; 'I' for Inactive)
REMARK    1  A    between atoms: C_2  and  O_3 
REMARK    2  A    between atoms: O_3  and  C_4 
REMARK    3  A    between atoms: C_4  and  C_5 
REMARK    4  A    between atoms: C_10  and  C_11 
REMARK       I    between atoms: C_11  and  N_12 
REMARK    5  A    between atoms: N_12  and  C_13 
REMARK    6  A    between atoms: C_15  and  C_16 
REMARK    7  A    between atoms: C_16  and  C_17 
REMARK    8  A    between atoms: C_17  and  C_18 
REMARK    9  A    between atoms: C_18  and  C_19 
ROOT
HETATM    1  C   UNL     1      42.545 -14.292   5.647  1.00  0.00     0.725 A 
HETATM    2  N   UNL     1      41.696 -14.639   4.713  1.00  0.00    -0.046 NA
HETATM    3  C   UNL     1      42.131 -15.868   4.302  1.00  0.00     0.165 A 
HETATM    4  N   UNL     1      43.206 -16.327   4.955  1.00  0.00    -0.144 NA
HETATM    5  N   UNL     1      43.450 -15.309   5.800  1.00  0.00    -0.106 N 
HETATM    6  H   UNL     1      44.231 -15.377   6.437  1.00  0.00     0.208 HD
ENDROOT
BRANCH   1   7
HETATM    7  N   UNL     1      42.585 -13.146   6.401  1.00  0.00    -0.152 N 
HETATM    8  C   UNL     1      43.083 -11.965   5.891  1.00  0.00     0.272 C 
HETATM    9  O   UNL     1      43.636 -11.825   4.807  1.00  0.00    -0.267 OA
HETATM   10  H   UNL     1      42.277 -13.164   7.359  1.00  0.00     0.187 HD
BRANCH   8  11
HETATM   11  C   UNL     1      42.933 -10.811   6.800  1.00  0.00     0.063 A 
HETATM   12  C   UNL     1      41.804 -10.017   6.997  1.00  0.00     0.022 A 
HETATM   13  N   UNL     1      42.153  -9.015   7.868  1.00  0.00    -0.354 N 
HETATM   14  C   UNL     1      40.437 -10.042   6.410  1.00  0.00     0.069 C 
HETATM   15  C   UNL     1      43.493  -9.064   8.174  1.00  0.00     0.115 A 
HETATM   16  H   UNL     1      41.547  -8.263   8.175  1.00  0.00     0.166 HD
HETATM   17  C   UNL     1      43.990 -10.229   7.597  1.00  0.00    -0.011 A 
HETATM   18  C   UNL     1      45.379 -10.769   7.715  1.00  0.00     0.052 C 
BRANCH  15  19
HETATM   19  C   UNL     1      44.106  -7.999   8.938  1.00  0.00     0.310 C 
HETATM   20  O   UNL     1      45.100  -7.384   8.572  1.00  0.00    -0.258 OA
BRANCH  19  21
HETATM   21  O   UNL     1      43.476  -7.831  10.131  1.00  0.00    -0.317 OA
BRANCH  21  22
HETATM   22  C   UNL     1      43.767  -8.807  11.140  1.00  0.00     0.175 C 
HETATM   23  C   UNL     1      43.401  -8.280  12.514  1.00  0.00     0.034 C 
ENDBRANCH  21  22
ENDBRANCH  19  21
ENDBRANCH  15  19
ENDBRANCH   8  11
ENDBRANCH   1   7
BRANCH   3  24
HETATM   24  C   UNL     1      41.457 -16.601   3.202  1.00  0.00     0.083 C 
BRANCH  24  25
HETATM   25  C   UNL     1      40.166 -15.904   2.773  1.00  0.00     0.012 C 
BRANCH  25  26
HETATM   26  C   UNL     1      39.978 -15.960   1.257  1.00  0.00     0.041 C 
BRANCH  26  27
HETATM   27  C   UNL     1      40.293 -14.649   0.608  1.00  0.00    -0.030 A 
HETATM   28  C   UNL     1      39.902 -14.218  -0.700  1.00  0.00    -0.002 A 
HETATM   29  C   UNL     1      40.426 -12.940  -0.894  1.00  0.00     0.042 A 
HETATM   30  C   UNL     1      39.152 -14.800  -1.743  1.00  0.00     0.014 A 
HETATM   31  C   UNL     1      40.238 -12.213  -2.077  1.00  0.00     0.030 A 
HETATM   32  N   UNL     1      41.110 -12.605   0.251  1.00  0.00    -0.365 N 
HETATM   33  C   UNL     1      39.488 -12.812  -3.092  1.00  0.00     0.002 A 
HETATM   34  C   UNL     1      38.951 -14.087  -2.931  1.00  0.00     0.001 A 
HETATM   35  H   UNL     1      41.601 -11.733   0.392  1.00  0.00     0.165 HD
HETATM   36  C   UNL     1      41.034 -13.623   1.162  1.00  0.00     0.096 A 
ENDBRANCH  26  27
ENDBRANCH  25  26
ENDBRANCH  24  25
ENDBRANCH   3  24
TORSDOF 9
ENDMDL
MODEL 9
REMARK VINA RESULT:      -8.0      2.462      3.660
REMARK  9 active torsions:
REMARK  status: ('A' for Active; 'I' for Inactive)
REMARK    1  A    between atoms: C_2  and  O_3 
REMARK    2  A    between atoms: O_3  and  C_4 
REMARK    3  A    between atoms: C_4  and  C_5 
REMARK    4  A    between atoms: C_10  and  C_11 
REMARK       I    between atoms: C_11  and  N_12 
REMARK    5  A    between atoms: N_12  and  C_13 
REMARK    6  A    between atoms: C_15  and  C_16 
REMARK    7  A    between atoms: C_16  and  C_17 
REMARK    8  A    between atoms: C_17  and  C_18 
REMARK    9  A    between atoms: C_18  and  C_19 
ROOT
HETATM    1  C   UNL     1      40.661 -12.717   5.255  1.00  0.00     0.725 A 
HETATM    2  N   UNL     1      41.136 -11.555   5.627  1.00  0.00    -0.046 NA
HETATM    3  C   UNL     1      40.077 -10.936   6.231  1.00  0.00     0.165 A 
HETATM    4  N   UNL     1      38.957 -11.667   6.280  1.00  0.00    -0.144 NA
HETATM    5  N   UNL     1      39.352 -12.789   5.653  1.00  0.00    -0.106 N 
HETATM    6  H   UNL     1      38.691 -13.545   5.536  1.00  0.00     0.208 HD
ENDROOT
BRANCH   1   7
HETATM    7  N   UNL     1      41.293 -13.743   4.598  1.00  0.00    -0.152 N 
HETATM    8  C   UNL     1      41.092 -15.060   4.957  1.00  0.00     0.272 C 
HETATM    9  O   UNL     1      40.460 -15.453   5.930  1.00  0.00    -0.267 OA
HETATM   10  H   UNL     1      41.944 -13.541   3.858  1.00  0.00     0.187 HD
BRANCH   8  11
HETATM   11  C   UNL     1      41.755 -16.031   4.063  1.00  0.00     0.063 A 
HETATM   12  C   UNL     1      41.369 -16.417   2.781  1.00  0.00     0.022 A 
HETATM   13  N   UNL     1      42.233 -17.401   2.369  1.00  0.00    -0.354 N 
HETATM   14  C   UNL     1      40.232 -16.021   1.906  1.00  0.00     0.069 C 
HETATM   15  C   UNL     1      43.111 -17.743   3.371  1.00  0.00     0.115 A 
HETATM   16  H   UNL     1      42.182 -17.901   1.490  1.00  0.00     0.166 HD
HETATM   17  C   UNL     1      42.901 -16.842   4.410  1.00  0.00    -0.011 A 
HETATM   18  C   UNL     1      43.668 -16.751   5.689  1.00  0.00     0.052 C 
BRANCH  15  19
HETATM   19  C   UNL     1      43.995 -18.878   3.209  1.00  0.00     0.310 C 
HETATM   20  O   UNL     1      44.062 -19.548   2.185  1.00  0.00    -0.258 OA
BRANCH  19  21
HETATM   21  O   UNL     1      44.674 -19.135   4.358  1.00  0.00    -0.317 OA
BRANCH  21  22
HETATM   22  C   UNL     1      44.440 -20.417   4.955  1.00  0.00     0.175 C 
HETATM   23  C   UNL     1      43.477 -20.298   6.119  1.00  0.00     0.034 C 
ENDBRANCH  21  22
ENDBRANCH  19  21
ENDBRANCH  15  19
ENDBRANCH   8  11
ENDBRANCH   1   7
BRANCH   3  24
HETATM   24  C   UNL     1      40.188  -9.554   6.761  1.00  0.00     0.083 C 
BRANCH  24  25
HETATM   25  C   UNL     1      39.462  -9.407   8.098  1.00  0.00     0.012 C 
BRANCH  25  26
HETATM   26  C   UNL     1      40.172  -8.408   9.011  1.00  0.00     0.041 C 
BRANCH  26  27
HETATM   27  C   UNL     1      41.248  -9.059   9.821  1.00  0.00    -0.030 A 
HETATM   28  C   UNL     1      42.653  -9.066   9.541  1.00  0.00    -0.002 A 
HETATM   29  C   UNL     1      43.276  -9.803  10.549  1.00  0.00     0.042 A 
HETATM   30  C   UNL     1      43.454  -8.516   8.519  1.00  0.00     0.014 A 
HETATM   31  C   UNL     1      44.660 -10.016  10.588  1.00  0.00     0.030 A 
HETATM   32  N   UNL     1      42.290 -10.228  11.408  1.00  0.00    -0.365 N 
HETATM   33  C   UNL     1      45.431  -9.458   9.565  1.00  0.00     0.002 A 
HETATM   34  C   UNL     1      44.839  -8.717   8.543  1.00  0.00     0.001 A 
HETATM   35  H   UNL     1      42.451 -10.790  12.232  1.00  0.00     0.165 HD
HETATM   36  C   UNL     1      41.068  -9.784  10.982  1.00  0.00     0.096 A 
ENDBRANCH  26  27
ENDBRANCH  25  26
ENDBRANCH  24  25
ENDBRANCH   3  24
TORSDOF 9
ENDMDL
MODEL 10
REMARK VINA RESULT:      -8.0      3.213      9.497
REMARK  9 active torsions:
REMARK  status: ('A' for Active; 'I' for Inactive)
REMARK    1  A    between atoms: C_2  and  O_3 
REMARK    2  A    between atoms: O_3  and  C_4 
REMARK    3  A    between atoms: C_4  and  C_5 
REMARK    4  A    between atoms: C_10  and  C_11 
REMARK       I    between atoms: C_11  and  N_12 
REMARK    5  A    between atoms: N_12  and  C_13 
REMARK    6  A    between atoms: C_15  and  C_16 
REMARK    7  A    between atoms: C_16  and  C_17 
REMARK    8  A    between atoms: C_17  and  C_18 
REMARK    9  A    between atoms: C_18  and  C_19 
ROOT
HETATM    1  C   UNL     1      40.893 -12.157   3.321  1.00  0.00     0.725 A 
HETATM    2  N   UNL     1      41.330 -13.052   2.471  1.00  0.00    -0.046 NA
HETATM    3  C   UNL     1      40.212 -13.435   1.783  1.00  0.00     0.165 A 
HETATM    4  N   UNL     1      39.090 -12.802   2.143  1.00  0.00    -0.144 NA
HETATM    5  N   UNL     1      39.547 -12.000   3.121  1.00  0.00    -0.106 N 
HETATM    6  H   UNL     1      38.900 -11.386   3.596  1.00  0.00     0.208 HD
ENDROOT
BRANCH   1   7
HETATM    7  N   UNL     1      41.590 -11.443   4.263  1.00  0.00    -0.152 N 
HETATM    8  C   UNL     1      41.421 -11.674   5.612  1.00  0.00     0.272 C 
HETATM    9  O   UNL     1      40.586 -12.415   6.118  1.00  0.00    -0.267 OA
HETATM   10  H   UNL     1      42.217 -10.710   3.976  1.00  0.00     0.187 HD
BRANCH   8  11
HETATM   11  C   UNL     1      42.341 -10.901   6.471  1.00  0.00     0.063 A 
HETATM   12  C   UNL     1      42.216  -9.578   6.889  1.00  0.00     0.022 A 
HETATM   13  N   UNL     1      43.346  -9.262   7.601  1.00  0.00    -0.354 N 
HETATM   14  C   UNL     1      41.183  -8.536   6.643  1.00  0.00     0.069 C 
HETATM   15  C   UNL     1      44.251 -10.297   7.583  1.00  0.00     0.115 A 
HETATM   16  H   UNL     1      43.555  -8.356   8.004  1.00  0.00     0.166 HD
HETATM   17  C   UNL     1      43.618 -11.370   6.966  1.00  0.00    -0.011 A 
HETATM   18  C   UNL     1      44.162 -12.750   6.780  1.00  0.00     0.052 C 
BRANCH  15  19
HETATM   19  C   UNL     1      45.581 -10.112   8.126  1.00  0.00     0.310 C 
HETATM   20  O   UNL     1      46.584 -10.639   7.663  1.00  0.00    -0.258 OA
BRANCH  19  21
HETATM   21  O   UNL     1      45.546  -9.343   9.247  1.00  0.00    -0.317 OA
BRANCH  21  22
HETATM   22  C   UNL     1      45.175 -10.011  10.459  1.00  0.00     0.175 C 
HETATM   23  C   UNL     1      44.098  -9.234  11.190  1.00  0.00     0.034 C 
ENDBRANCH  21  22
ENDBRANCH  19  21
ENDBRANCH  15  19
ENDBRANCH   8  11
ENDBRANCH   1   7
BRANCH   3  24
HETATM   24  C   UNL     1      40.269 -14.489   0.738  1.00  0.00     0.083 C 
BRANCH  24  25
HETATM   25  C   UNL     1      39.981 -15.872   1.321  1.00  0.00     0.012 C 
BRANCH  25  26
HETATM   26  C   UNL     1      40.106 -15.873   2.845  1.00  0.00     0.041 C 
BRANCH  26  27
HETATM   27  C   UNL     1      41.397 -16.477   3.299  1.00  0.00    -0.030 A 
HETATM   28  C   UNL     1      41.931 -16.472   4.627  1.00  0.00    -0.002 A 
HETATM   29  C   UNL     1      43.159 -17.134   4.586  1.00  0.00     0.042 A 
HETATM   30  C   UNL     1      41.487 -15.961   5.864  1.00  0.00     0.014 A 
HETATM   31  C   UNL     1      43.964 -17.312   5.718  1.00  0.00     0.030 A 
HETATM   32  N   UNL     1      43.364 -17.527   3.284  1.00  0.00    -0.365 N 
HETATM   33  C   UNL     1      43.498 -16.798   6.931  1.00  0.00     0.002 A 
HETATM   34  C   UNL     1      42.277 -16.132   7.007  1.00  0.00     0.001 A 
HETATM   35  H   UNL     1      44.180 -18.025   2.956  1.00  0.00     0.165 HD
HETATM   36  C   UNL     1      42.310 -17.140   2.502  1.00  0.00     0.096 A 
ENDBRANCH  26  27
ENDBRANCH  25  26
ENDBRANCH  24  25
ENDBRANCH   3  24
TORSDOF 9
ENDMDL
