MODEL 1
REMARK VINA RESULT:      -7.9      0.000      0.000
REMARK  6 active torsions:
REMARK  status: ('A' for Active; 'I' for Inactive)
REMARK    1  A    between atoms: C_3  and  N_4 
REMARK       I    between atoms: N_4  and  C_5 
REMARK    2  A    between atoms: C_5  and  C_6 
REMARK    3  A    between atoms: C_6  and  C_7 
REMARK    4  A    between atoms: C_7  and  N_8 
REMARK    5  A    between atoms: C_13  and  C_14 
REMARK    6  A    between atoms: C_17  and  O_18 
ROOT
HETATM    1  N   UNL     1      43.695 -18.407   3.965  1.00  0.00    -0.305 N 
HETATM    2  C   UNL     1      43.956 -19.755   3.883  1.00  0.00     0.196 A 
HETATM    3  S   UNL     1      44.682 -20.770   4.971  1.00  0.00    -0.039 SA
HETATM    4  N   UNL     1      43.453 -20.178   2.667  1.00  0.00    -0.251 N 
HETATM    5  N   UNL     1      42.895 -19.137   1.994  1.00  0.00    -0.153 NA
HETATM    6  C   UNL     1      43.072 -18.110   2.778  1.00  0.00     0.162 A 
HETATM    7  H   UNL     1      43.468 -21.118   2.289  1.00  0.00     0.191 HD
ENDROOT
BRANCH   1   8
HETATM    8  C   UNL     1      43.968 -17.528   5.113  1.00  0.00     0.142 C 
BRANCH   8   9
HETATM    9  C   UNL     1      42.824 -17.494   6.118  1.00  0.00     0.123 C 
BRANCH   9  10
HETATM   10  C   UNL     1      42.394 -16.095   6.508  1.00  0.00     0.223 C 
HETATM   11  N   UNL     1      42.820 -15.110   5.638  1.00  0.00    -0.327 N 
HETATM   12  H   UNL     1      42.872 -15.376   4.660  1.00  0.00     0.169 HD
HETATM   13  O   UNL     1      41.742 -15.914   7.533  1.00  0.00    -0.273 OA
BRANCH  11  14
HETATM   14  C   UNL     1      42.752 -13.719   5.884  1.00  0.00     0.042 A 
HETATM   15  C   UNL     1      41.610 -12.923   5.663  1.00  0.00    -0.035 A 
HETATM   16  C   UNL     1      40.280 -13.458   5.206  1.00  0.00     0.050 C 
HETATM   17  C   UNL     1      41.683 -11.539   5.925  1.00  0.00     0.010 A 
HETATM   18  C   UNL     1      42.838 -10.963   6.448  1.00  0.00     0.020 A 
HETATM   19  C   UNL     1      43.935 -11.766   6.723  1.00  0.00     0.013 A 
HETATM   20  C   UNL     1      43.894 -13.134   6.455  1.00  0.00     0.049 A 
HETATM   21 BR   UNL     1      45.502 -11.000   7.453  1.00  0.00    -0.051 Br
ENDBRANCH  11  14
ENDBRANCH   9  10
ENDBRANCH   8   9
ENDBRANCH   1   8
BRANCH   6  22
HETATM   22  C   UNL     1      42.592 -16.765   2.415  1.00  0.00     0.012 A 
HETATM   23  C   UNL     1      43.545 -15.772   2.170  1.00  0.00     0.018 A 
HETATM   24  C   UNL     1      43.133 -14.479   1.842  1.00  0.00     0.037 A 
HETATM   25  C   UNL     1      41.775 -14.162   1.763  1.00  0.00     0.068 A 
HETATM   26  C   UNL     1      40.826 -15.149   2.036  1.00  0.00     0.037 A 
HETATM   27  C   UNL     1      41.233 -16.446   2.375  1.00  0.00     0.018 A 
BRANCH  25  28
HETATM   28  O   UNL     1      41.512 -12.862   1.432  1.00  0.00    -0.356 OA
HETATM   29  C   UNL     1      42.160 -11.855   2.199  1.00  0.00     0.210 C 
ENDBRANCH  25  28
ENDBRANCH   6  22
TORSDOF 6
ENDMDL
MODEL 2
REMARK VINA RESULT:      -7.7      3.505      5.410
REMARK  6 active torsions:
REMARK  status: ('A' for Active; 'I' for Inactive)
REMARK    1  A    between atoms: C_3  and  N_4 
REMARK       I    between atoms: N_4  and  C_5 
REMARK    2  A    between atoms: C_5  and  C_6 
REMARK    3  A    between atoms: C_6  and  C_7 
REMARK    4  A    between atoms: C_7  and  N_8 
REMARK    5  A    between atoms: C_13  and  C_14 
REMARK    6  A    between atoms: C_17  and  O_18 
ROOT
HETATM    1  N   UNL     1      40.957 -14.038   3.482  1.00  0.00    -0.305 N 
HETATM    2  C   UNL     1      39.789 -13.470   3.030  1.00  0.00     0.196 A 
HETATM    3  S   UNL     1      39.282 -11.895   3.070  1.00  0.00    -0.039 SA
HETATM    4  N   UNL     1      39.051 -14.493   2.463  1.00  0.00    -0.251 N 
HETATM    5  N   UNL     1      39.721 -15.672   2.555  1.00  0.00    -0.153 NA
HETATM    6  C   UNL     1      40.828 -15.370   3.174  1.00  0.00     0.162 A 
HETATM    7  H   UNL     1      38.139 -14.423   2.026  1.00  0.00     0.191 HD
ENDROOT
BRANCH   1   8
HETATM    8  C   UNL     1      42.099 -13.334   4.086  1.00  0.00     0.142 C 
BRANCH   8   9
HETATM    9  C   UNL     1      41.862 -12.962   5.544  1.00  0.00     0.123 C 
BRANCH   9  10
HETATM   10  C   UNL     1      42.749 -11.839   6.041  1.00  0.00     0.223 C 
HETATM   11  N   UNL     1      43.493 -12.160   7.158  1.00  0.00    -0.327 N 
HETATM   12  H   UNL     1      43.804 -13.124   7.221  1.00  0.00     0.169 HD
HETATM   13  O   UNL     1      42.746 -10.753   5.468  1.00  0.00    -0.273 OA
BRANCH  11  14
HETATM   14  C   UNL     1      44.219 -11.238   7.948  1.00  0.00     0.042 A 
HETATM   15  C   UNL     1      45.515 -10.775   7.646  1.00  0.00    -0.035 A 
HETATM   16  C   UNL     1      46.277 -11.139   6.400  1.00  0.00     0.050 C 
HETATM   17  C   UNL     1      46.140  -9.873   8.533  1.00  0.00     0.010 A 
HETATM   18  C   UNL     1      45.479  -9.394   9.661  1.00  0.00     0.020 A 
HETATM   19  C   UNL     1      44.179  -9.807   9.915  1.00  0.00     0.013 A 
HETATM   20  C   UNL     1      43.547 -10.712   9.063  1.00  0.00     0.049 A 
HETATM   21 BR   UNL     1      43.262  -9.149  11.432  1.00  0.00    -0.051 Br
ENDBRANCH  11  14
ENDBRANCH   9  10
ENDBRANCH   8   9
ENDBRANCH   1   8
BRANCH   6  22
HETATM   22  C   UNL     1      41.856 -16.385   3.465  1.00  0.00     0.012 A 
HETATM   23  C   UNL     1      42.172 -16.634   4.804  1.00  0.00     0.018 A 
HETATM   24  C   UNL     1      43.154 -17.574   5.124  1.00  0.00     0.037 A 
HETATM   25  C   UNL     1      43.832 -18.266   4.118  1.00  0.00     0.068 A 
HETATM   26  C   UNL     1      43.534 -17.994   2.781  1.00  0.00     0.037 A 
HETATM   27  C   UNL     1      42.557 -17.045   2.454  1.00  0.00     0.018 A 
BRANCH  25  28
HETATM   28  O   UNL     1      44.766 -19.156   4.569  1.00  0.00    -0.356 OA
HETATM   29  C   UNL     1      44.294 -20.428   4.997  1.00  0.00     0.210 C 
ENDBRANCH  25  28
ENDBRANCH   6  22
TORSDOF 6
ENDMDL
MODEL 3
REMARK VINA RESULT:      -7.5      3.575      6.922
REMARK  6 active torsions:
REMARK  status: ('A' for Active; 'I' for Inactive)
REMARK    1  A    between atoms: C_3  and  N_4 
REMARK       I    between atoms: N_4  and  C_5 
REMARK    2  A    between atoms: C_5  and  C_6 
REMARK    3  A    between atoms: C_6  and  C_7 
REMARK    4  A    between atoms: C_7  and  N_8 
REMARK    5  A    between atoms: C_13  and  C_14 
REMARK    6  A    between atoms: C_17  and  O_18 
ROOT
HETATM    1  N   UNL     1      41.715 -12.357   4.373  1.00  0.00    -0.305 N 
HETATM    2  C   UNL     1      41.374 -12.458   3.045  1.00  0.00     0.196 A 
HETATM    3  S   UNL     1      40.131 -13.278   2.321  1.00  0.00    -0.039 SA
HETATM    4  N   UNL     1      42.282 -11.683   2.347  1.00  0.00    -0.251 N 
HETATM    5  N   UNL     1      43.175 -11.113   3.199  1.00  0.00    -0.153 NA
HETATM    6  C   UNL     1      42.823 -11.545   4.378  1.00  0.00     0.162 A 
HETATM    7  H   UNL     1      42.316 -11.527   1.347  1.00  0.00     0.191 HD
ENDROOT
BRANCH   1   8
HETATM    8  C   UNL     1      40.990 -12.941   5.513  1.00  0.00     0.142 C 
BRANCH   8   9
HETATM    9  C   UNL     1      41.812 -13.976   6.270  1.00  0.00     0.123 C 
BRANCH   9  10
HETATM   10  C   UNL     1      41.824 -15.343   5.619  1.00  0.00     0.223 C 
HETATM   11  N   UNL     1      43.069 -15.748   5.179  1.00  0.00    -0.327 N 
HETATM   12  H   UNL     1      43.858 -15.441   5.738  1.00  0.00     0.169 HD
HETATM   13  O   UNL     1      40.779 -15.979   5.503  1.00  0.00    -0.273 OA
BRANCH  11  14
HETATM   14  C   UNL     1      43.316 -16.864   4.345  1.00  0.00     0.042 A 
HETATM   15  C   UNL     1      43.316 -16.824   2.936  1.00  0.00    -0.035 A 
HETATM   16  C   UNL     1      43.129 -15.570   2.124  1.00  0.00     0.050 C 
HETATM   17  C   UNL     1      43.552 -18.016   2.221  1.00  0.00     0.010 A 
HETATM   18  C   UNL     1      43.838 -19.209   2.879  1.00  0.00     0.020 A 
HETATM   19  C   UNL     1      43.899 -19.224   4.265  1.00  0.00     0.013 A 
HETATM   20  C   UNL     1      43.652 -18.062   4.995  1.00  0.00     0.049 A 
HETATM   21 BR   UNL     1      44.307 -20.832   5.171  1.00  0.00    -0.051 Br
ENDBRANCH  11  14
ENDBRANCH   9  10
ENDBRANCH   8   9
ENDBRANCH   1   8
BRANCH   6  22
HETATM   22  C   UNL     1      43.543 -11.143   5.599  1.00  0.00     0.012 A 
HETATM   23  C   UNL     1      42.919 -10.235   6.460  1.00  0.00     0.018 A 
HETATM   24  C   UNL     1      43.574  -9.811   7.618  1.00  0.00     0.037 A 
HETATM   25  C   UNL     1      44.853 -10.280   7.924  1.00  0.00     0.068 A 
HETATM   26  C   UNL     1      45.485 -11.165   7.048  1.00  0.00     0.037 A 
HETATM   27  C   UNL     1      44.837 -11.586   5.879  1.00  0.00     0.018 A 
BRANCH  25  28
HETATM   28  O   UNL     1      45.377  -9.787   9.087  1.00  0.00    -0.356 OA
HETATM   29  C   UNL     1      44.768 -10.207  10.301  1.00  0.00     0.210 C 
ENDBRANCH  25  28
ENDBRANCH   6  22
TORSDOF 6
ENDMDL
MODEL 4
REMARK VINA RESULT:      -7.3      4.407      7.040
REMARK  6 active torsions:
REMARK  status: ('A' for Active; 'I' for Inactive)
REMARK    1  A    between atoms: C_3  and  N_4 
REMARK       I    between atoms: N_4  and  C_5 
REMARK    2  A    between atoms: C_5  and  C_6 
REMARK    3  A    between atoms: C_6  and  C_7 
REMARK    4  A    between atoms: C_7  and  N_8 
REMARK    5  A    between atoms: C_13  and  C_14 
REMARK    6  A    between atoms: C_17  and  O_18 
ROOT
HETATM    1  N   UNL     1      40.685 -11.821   0.883  1.00  0.00    -0.305 N 
HETATM    2  C   UNL     1      40.470 -11.405  -0.410  1.00  0.00     0.196 A 
HETATM    3  S   UNL     1      39.465 -12.016  -1.575  1.00  0.00    -0.039 SA
HETATM    4  N   UNL     1      41.265 -10.289  -0.600  1.00  0.00    -0.251 N 
HETATM    5  N   UNL     1      41.966 -10.006   0.530  1.00  0.00    -0.153 NA
HETATM    6  C   UNL     1      41.615 -10.937   1.374  1.00  0.00     0.162 A 
HETATM    7  H   UNL     1      41.343  -9.726  -1.439  1.00  0.00     0.191 HD
ENDROOT
BRANCH   1   8
HETATM    8  C   UNL     1      40.001 -12.924   1.575  1.00  0.00     0.142 C 
BRANCH   8   9
HETATM    9  C   UNL     1      40.390 -14.294   1.036  1.00  0.00     0.123 C 
BRANCH   9  10
HETATM   10  C   UNL     1      40.836 -15.269   2.107  1.00  0.00     0.223 C 
HETATM   11  N   UNL     1      42.200 -15.477   2.149  1.00  0.00    -0.327 N 
HETATM   12  H   UNL     1      42.777 -14.677   1.913  1.00  0.00     0.169 HD
HETATM   13  O   UNL     1      40.004 -15.810   2.831  1.00  0.00    -0.273 OA
BRANCH  11  14
HETATM   14  C   UNL     1      42.848 -16.494   2.889  1.00  0.00     0.042 A 
HETATM   15  C   UNL     1      43.307 -16.347   4.213  1.00  0.00    -0.035 A 
HETATM   16  C   UNL     1      43.103 -15.113   5.050  1.00  0.00     0.050 C 
HETATM   17  C   UNL     1      43.963 -17.433   4.831  1.00  0.00     0.010 A 
HETATM   18  C   UNL     1      44.110 -18.654   4.178  1.00  0.00     0.020 A 
HETATM   19  C   UNL     1      43.597 -18.808   2.898  1.00  0.00     0.013 A 
HETATM   20  C   UNL     1      42.961 -17.743   2.259  1.00  0.00     0.049 A 
HETATM   21 BR   UNL     1      43.772 -20.466   2.008  1.00  0.00    -0.051 Br
ENDBRANCH  11  14
ENDBRANCH   9  10
ENDBRANCH   8   9
ENDBRANCH   1   8
BRANCH   6  22
HETATM   22  C   UNL     1      42.150 -10.983   2.745  1.00  0.00     0.012 A 
HETATM   23  C   UNL     1      41.515 -10.214   3.724  1.00  0.00     0.018 A 
HETATM   24  C   UNL     1      42.002 -10.213   5.033  1.00  0.00     0.037 A 
HETATM   25  C   UNL     1      43.125 -10.969   5.375  1.00  0.00     0.068 A 
HETATM   26  C   UNL     1      43.774 -11.714   4.389  1.00  0.00     0.037 A 
HETATM   27  C   UNL     1      43.296 -11.711   3.072  1.00  0.00     0.018 A 
BRANCH  25  28
HETATM   28  O   UNL     1      43.494 -10.879   6.689  1.00  0.00    -0.356 OA
HETATM   29  C   UNL     1      44.601 -11.668   7.105  1.00  0.00     0.210 C 
ENDBRANCH  25  28
ENDBRANCH   6  22
TORSDOF 6
ENDMDL
MODEL 5
REMARK VINA RESULT:      -7.3      3.944      5.376
REMARK  6 active torsions:
REMARK  status: ('A' for Active; 'I' for Inactive)
REMARK    1  A    between atoms: C_3  and  N_4 
REMARK       I    between atoms: N_4  and  C_5 
REMARK    2  A    between atoms: C_5  and  C_6 
REMARK    3  A    between atoms: C_6  and  C_7 
REMARK    4  A    between atoms: C_7  and  N_8 
REMARK    5  A    between atoms: C_13  and  C_14 
REMARK    6  A    between atoms: C_17  and  O_18 
ROOT
HETATM    1  N   UNL     1      39.412 -12.997   0.486  1.00  0.00    -0.305 N 
HETATM    2  C   UNL     1      38.619 -12.717  -0.602  1.00  0.00     0.196 A 
HETATM    3  S   UNL     1      37.666 -11.400  -0.917  1.00  0.00    -0.039 SA
HETATM    4  N   UNL     1      38.770 -13.774  -1.479  1.00  0.00    -0.251 N 
HETATM    5  N   UNL     1      39.625 -14.699  -0.968  1.00  0.00    -0.153 NA
HETATM    6  C   UNL     1      39.968 -14.219   0.194  1.00  0.00     0.162 A 
HETATM    7  H   UNL     1      38.333 -13.887  -2.387  1.00  0.00     0.191 HD
ENDROOT
BRANCH   1   8
HETATM    8  C   UNL     1      39.647 -12.127   1.649  1.00  0.00     0.142 C 
BRANCH   8   9
HETATM    9  C   UNL     1      38.866 -12.562   2.882  1.00  0.00     0.123 C 
BRANCH   9  10
HETATM   10  C   UNL     1      39.681 -12.549   4.158  1.00  0.00     0.223 C 
HETATM   11  N   UNL     1      40.886 -13.217   4.067  1.00  0.00    -0.327 N 
HETATM   12  H   UNL     1      41.348 -13.176   3.164  1.00  0.00     0.169 HD
HETATM   13  O   UNL     1      39.244 -11.991   5.162  1.00  0.00    -0.273 OA
BRANCH  11  14
HETATM   14  C   UNL     1      41.722 -13.547   5.159  1.00  0.00     0.042 A 
HETATM   15  C   UNL     1      41.552 -14.678   5.982  1.00  0.00    -0.035 A 
HETATM   16  C   UNL     1      40.502 -15.734   5.765  1.00  0.00     0.050 C 
HETATM   17  C   UNL     1      42.442 -14.878   7.058  1.00  0.00     0.010 A 
HETATM   18  C   UNL     1      43.510 -14.013   7.282  1.00  0.00     0.020 A 
HETATM   19  C   UNL     1      43.706 -12.938   6.427  1.00  0.00     0.013 A 
HETATM   20  C   UNL     1      42.829 -12.709   5.367  1.00  0.00     0.049 A 
HETATM   21 BR   UNL     1      45.164 -11.768   6.707  1.00  0.00    -0.051 Br
ENDBRANCH  11  14
ENDBRANCH   9  10
ENDBRANCH   8   9
ENDBRANCH   1   8
BRANCH   6  22
HETATM   22  C   UNL     1      40.910 -14.926   1.079  1.00  0.00     0.012 A 
HETATM   23  C   UNL     1      42.230 -14.467   1.134  1.00  0.00     0.018 A 
HETATM   24  C   UNL     1      43.160 -15.121   1.944  1.00  0.00     0.037 A 
HETATM   25  C   UNL     1      42.789 -16.236   2.698  1.00  0.00     0.068 A 
HETATM   26  C   UNL     1      41.478 -16.709   2.619  1.00  0.00     0.037 A 
HETATM   27  C   UNL     1      40.542 -16.063   1.800  1.00  0.00     0.018 A 
BRANCH  25  28
HETATM   28  O   UNL     1      43.796 -16.778   3.447  1.00  0.00    -0.356 OA
HETATM   29  C   UNL     1      43.418 -17.627   4.523  1.00  0.00     0.210 C 
ENDBRANCH  25  28
ENDBRANCH   6  22
TORSDOF 6
ENDMDL
MODEL 6
REMARK VINA RESULT:      -7.2      3.768      6.446
REMARK  6 active torsions:
REMARK  status: ('A' for Active; 'I' for Inactive)
REMARK    1  A    between atoms: C_3  and  N_4 
REMARK       I    between atoms: N_4  and  C_5 
REMARK    2  A    between atoms: C_5  and  C_6 
REMARK    3  A    between atoms: C_6  and  C_7 
REMARK    4  A    between atoms: C_7  and  N_8 
REMARK    5  A    between atoms: C_13  and  C_14 
REMARK    6  A    between atoms: C_17  and  O_18 
ROOT
HETATM    1  N   UNL     1      41.670 -11.386   4.827  1.00  0.00    -0.305 N 
HETATM    2  C   UNL     1      41.476 -10.324   5.679  1.00  0.00     0.196 A 
HETATM    3  S   UNL     1      42.253  -9.929   7.086  1.00  0.00    -0.039 SA
HETATM    4  N   UNL     1      40.470  -9.555   5.124  1.00  0.00    -0.251 N 
HETATM    5  N   UNL     1      40.033 -10.108   3.962  1.00  0.00    -0.153 NA
HETATM    6  C   UNL     1      40.747 -11.191   3.828  1.00  0.00     0.162 A 
HETATM    7  H   UNL     1      40.083  -8.692   5.489  1.00  0.00     0.191 HD
ENDROOT
BRANCH   1   8
HETATM    8  C   UNL     1      42.694 -12.434   4.949  1.00  0.00     0.142 C 
BRANCH   8   9
HETATM    9  C   UNL     1      42.343 -13.486   5.993  1.00  0.00     0.123 C 
BRANCH   9  10
HETATM   10  C   UNL     1      42.175 -14.880   5.424  1.00  0.00     0.223 C 
HETATM   11  N   UNL     1      43.350 -15.454   4.981  1.00  0.00    -0.327 N 
HETATM   12  H   UNL     1      44.186 -15.212   5.503  1.00  0.00     0.169 HD
HETATM   13  O   UNL     1      41.060 -15.393   5.370  1.00  0.00    -0.273 OA
BRANCH  11  14
HETATM   14  C   UNL     1      43.441 -16.637   4.210  1.00  0.00     0.042 A 
HETATM   15  C   UNL     1      43.340 -16.684   2.805  1.00  0.00    -0.035 A 
HETATM   16  C   UNL     1      43.198 -15.472   1.925  1.00  0.00     0.050 C 
HETATM   17  C   UNL     1      43.421 -17.935   2.158  1.00  0.00     0.010 A 
HETATM   18  C   UNL     1      43.655 -19.106   2.875  1.00  0.00     0.020 A 
HETATM   19  C   UNL     1      43.817 -19.040   4.252  1.00  0.00     0.013 A 
HETATM   20  C   UNL     1      43.722 -17.817   4.916  1.00  0.00     0.049 A 
HETATM   21 BR   UNL     1      44.155 -20.618   5.235  1.00  0.00    -0.051 Br
ENDBRANCH  11  14
ENDBRANCH   9  10
ENDBRANCH   8   9
ENDBRANCH   1   8
BRANCH   6  22
HETATM   22  C   UNL     1      40.588 -12.087   2.670  1.00  0.00     0.012 A 
HETATM   23  C   UNL     1      39.819 -13.243   2.835  1.00  0.00     0.018 A 
HETATM   24  C   UNL     1      39.659 -14.130   1.768  1.00  0.00     0.037 A 
HETATM   25  C   UNL     1      40.265 -13.879   0.535  1.00  0.00     0.068 A 
HETATM   26  C   UNL     1      41.055 -12.738   0.382  1.00  0.00     0.037 A 
HETATM   27  C   UNL     1      41.228 -11.849   1.452  1.00  0.00     0.018 A 
BRANCH  25  28
HETATM   28  O   UNL     1      40.025 -14.826  -0.421  1.00  0.00    -0.356 OA
HETATM   29  C   UNL     1      39.223 -14.438  -1.529  1.00  0.00     0.210 C 
ENDBRANCH  25  28
ENDBRANCH   6  22
TORSDOF 6
ENDMDL
MODEL 7
REMARK VINA RESULT:      -7.2      3.815      5.229
REMARK  6 active torsions:
REMARK  status: ('A' for Active; 'I' for Inactive)
REMARK    1  A    between atoms: C_3  and  N_4 
REMARK       I    between atoms: N_4  and  C_5 
REMARK    2  A    between atoms: C_5  and  C_6 
REMARK    3  A    between atoms: C_6  and  C_7 
REMARK    4  A    between atoms: C_7  and  N_8 
REMARK    5  A    between atoms: C_13  and  C_14 
REMARK    6  A    between atoms: C_17  and  O_18 
ROOT
HETATM    1  N   UNL     1      39.865 -13.135   1.170  1.00  0.00    -0.305 N 
HETATM    2  C   UNL     1      39.073 -12.743   0.116  1.00  0.00     0.196 A 
HETATM    3  S   UNL     1      38.286 -11.311  -0.152  1.00  0.00    -0.039 SA
HETATM    4  N   UNL     1      39.053 -13.800  -0.774  1.00  0.00    -0.251 N 
HETATM    5  N   UNL     1      39.801 -14.833  -0.303  1.00  0.00    -0.153 NA
HETATM    6  C   UNL     1      40.247 -14.415   0.848  1.00  0.00     0.162 A 
HETATM    7  H   UNL     1      38.570 -13.845  -1.664  1.00  0.00     0.191 HD
ENDROOT
BRANCH   1   8
HETATM    8  C   UNL     1      40.254 -12.316   2.329  1.00  0.00     0.142 C 
BRANCH   8   9
HETATM    9  C   UNL     1      39.354 -12.534   3.537  1.00  0.00     0.123 C 
BRANCH   9  10
HETATM   10  C   UNL     1      40.060 -12.358   4.866  1.00  0.00     0.223 C 
HETATM   11  N   UNL     1      41.273 -11.704   4.778  1.00  0.00    -0.327 N 
HETATM   12  H   UNL     1      41.337 -10.985   4.065  1.00  0.00     0.169 HD
HETATM   13  O   UNL     1      39.555 -12.800   5.895  1.00  0.00    -0.273 OA
BRANCH  11  14
HETATM   14  C   UNL     1      42.227 -11.611   5.818  1.00  0.00     0.042 A 
HETATM   15  C   UNL     1      43.091 -12.656   6.204  1.00  0.00    -0.035 A 
HETATM   16  C   UNL     1      43.170 -13.990   5.512  1.00  0.00     0.050 C 
HETATM   17  C   UNL     1      43.981 -12.442   7.278  1.00  0.00     0.010 A 
HETATM   18  C   UNL     1      44.058 -11.208   7.918  1.00  0.00     0.020 A 
HETATM   19  C   UNL     1      43.248 -10.167   7.487  1.00  0.00     0.013 A 
HETATM   20  C   UNL     1      42.347 -10.359   6.440  1.00  0.00     0.049 A 
HETATM   21 BR   UNL     1      43.357  -8.480   8.334  1.00  0.00    -0.051 Br
ENDBRANCH  11  14
ENDBRANCH   9  10
ENDBRANCH   8   9
ENDBRANCH   1   8
BRANCH   6  22
HETATM   22  C   UNL     1      41.124 -15.247   1.689  1.00  0.00     0.012 A 
HETATM   23  C   UNL     1      42.449 -15.428   1.280  1.00  0.00     0.018 A 
HETATM   24  C   UNL     1      43.308 -16.226   2.038  1.00  0.00     0.037 A 
HETATM   25  C   UNL     1      42.857 -16.854   3.201  1.00  0.00     0.068 A 
HETATM   26  C   UNL     1      41.526 -16.695   3.591  1.00  0.00     0.037 A 
HETATM   27  C   UNL     1      40.656 -15.904   2.830  1.00  0.00     0.018 A 
BRANCH  25  28
HETATM   28  O   UNL     1      43.801 -17.603   3.846  1.00  0.00    -0.356 OA
HETATM   29  C   UNL     1      44.133 -18.861   3.271  1.00  0.00     0.210 C 
ENDBRANCH  25  28
ENDBRANCH   6  22
TORSDOF 6
ENDMDL
MODEL 8
REMARK VINA RESULT:      -7.2      4.662      7.137
REMARK  6 active torsions:
REMARK  status: ('A' for Active; 'I' for Inactive)
REMARK    1  A    between atoms: C_3  and  N_4 
REMARK       I    between atoms: N_4  and  C_5 
REMARK    2  A    between atoms: C_5  and  C_6 
REMARK    3  A    between atoms: C_6  and  C_7 
REMARK    4  A    between atoms: C_7  and  N_8 
REMARK    5  A    between atoms: C_13  and  C_14 
REMARK    6  A    between atoms: C_17  and  O_18 
ROOT
HETATM    1  N   UNL     1      39.216 -12.343   0.271  1.00  0.00    -0.305 N 
HETATM    2  C   UNL     1      38.167 -12.191  -0.605  1.00  0.00     0.196 A 
HETATM    3  S   UNL     1      37.998 -12.708  -2.168  1.00  0.00    -0.039 SA
HETATM    4  N   UNL     1      37.178 -11.511   0.083  1.00  0.00    -0.251 N 
HETATM    5  N   UNL     1      37.584 -11.233   1.350  1.00  0.00    -0.153 NA
HETATM    6  C   UNL     1      38.792 -11.720   1.420  1.00  0.00     0.162 A 
HETATM    7  H   UNL     1      36.265 -11.240  -0.263  1.00  0.00     0.191 HD
ENDROOT
BRANCH   1   8
HETATM    8  C   UNL     1      40.467 -13.078   0.024  1.00  0.00     0.142 C 
BRANCH   8   9
HETATM    9  C   UNL     1      40.271 -14.588   0.001  1.00  0.00     0.123 C 
BRANCH   9  10
HETATM   10  C   UNL     1      40.714 -15.282   1.272  1.00  0.00     0.223 C 
HETATM   11  N   UNL     1      42.076 -15.490   1.357  1.00  0.00    -0.327 N 
HETATM   12  H   UNL     1      42.660 -14.777   0.934  1.00  0.00     0.169 HD
HETATM   13  O   UNL     1      39.881 -15.624   2.108  1.00  0.00    -0.273 OA
BRANCH  11  14
HETATM   14  C   UNL     1      42.719 -16.307   2.318  1.00  0.00     0.042 A 
HETATM   15  C   UNL     1      43.168 -15.857   3.575  1.00  0.00    -0.035 A 
HETATM   16  C   UNL     1      42.958 -14.462   4.102  1.00  0.00     0.050 C 
HETATM   17  C   UNL     1      43.819 -16.769   4.432  1.00  0.00     0.010 A 
HETATM   18  C   UNL     1      43.971 -18.108   4.081  1.00  0.00     0.020 A 
HETATM   19  C   UNL     1      43.467 -18.554   2.867  1.00  0.00     0.013 A 
HETATM   20  C   UNL     1      42.836 -17.668   1.995  1.00  0.00     0.049 A 
HETATM   21 BR   UNL     1      43.649 -20.373   2.386  1.00  0.00    -0.051 Br
ENDBRANCH  11  14
ENDBRANCH   9  10
ENDBRANCH   8   9
ENDBRANCH   1   8
BRANCH   6  22
HETATM   22  C   UNL     1      39.592 -11.636   2.653  1.00  0.00     0.012 A 
HETATM   23  C   UNL     1      39.287 -12.517   3.695  1.00  0.00     0.018 A 
HETATM   24  C   UNL     1      40.008 -12.457   4.890  1.00  0.00     0.037 A 
HETATM   25  C   UNL     1      41.030 -11.521   5.060  1.00  0.00     0.068 A 
HETATM   26  C   UNL     1      41.313 -10.624   4.028  1.00  0.00     0.037 A 
HETATM   27  C   UNL     1      40.587 -10.672   2.830  1.00  0.00     0.018 A 
BRANCH  25  28
HETATM   28  O   UNL     1      41.654 -11.573   6.275  1.00  0.00    -0.356 OA
HETATM   29  C   UNL     1      42.912 -10.918   6.385  1.00  0.00     0.210 C 
ENDBRANCH  25  28
ENDBRANCH   6  22
TORSDOF 6
ENDMDL
MODEL 9
REMARK VINA RESULT:      -6.9      3.710      6.467
REMARK  6 active torsions:
REMARK  status: ('A' for Active; 'I' for Inactive)
REMARK    1  A    between atoms: C_3  and  N_4 
REMARK       I    between atoms: N_4  and  C_5 
REMARK    2  A    between atoms: C_5  and  C_6 
REMARK    3  A    between atoms: C_6  and  C_7 
REMARK    4  A    between atoms: C_7  and  N_8 
REMARK    5  A    between atoms: C_13  and  C_14 
REMARK    6  A    between atoms: C_17  and  O_18 
ROOT
HETATM    1  N   UNL     1      41.031 -12.350   0.927  1.00  0.00    -0.305 N 
HETATM    2  C   UNL     1      40.868 -11.813  -0.328  1.00  0.00     0.196 A 
HETATM    3  S   UNL     1      40.148 -12.450  -1.676  1.00  0.00    -0.039 SA
HETATM    4  N   UNL     1      41.416 -10.544  -0.285  1.00  0.00    -0.251 N 
HETATM    5  N   UNL     1      41.915 -10.283   0.951  1.00  0.00    -0.153 NA
HETATM    6  C   UNL     1      41.688 -11.371   1.632  1.00  0.00     0.162 A 
HETATM    7  H   UNL     1      41.458  -9.868  -1.039  1.00  0.00     0.191 HD
ENDROOT
BRANCH   1   8
HETATM    8  C   UNL     1      40.535 -13.653   1.396  1.00  0.00     0.142 C 
BRANCH   8   9
HETATM    9  C   UNL     1      41.279 -14.829   0.776  1.00  0.00     0.123 C 
BRANCH   9  10
HETATM   10  C   UNL     1      42.317 -15.446   1.690  1.00  0.00     0.223 C 
HETATM   11  N   UNL     1      41.796 -16.303   2.639  1.00  0.00    -0.327 N 
HETATM   12  H   UNL     1      40.983 -16.838   2.353  1.00  0.00     0.169 HD
HETATM   13  O   UNL     1      43.503 -15.153   1.561  1.00  0.00    -0.273 OA
BRANCH  11  14
HETATM   14  C   UNL     1      42.508 -16.827   3.744  1.00  0.00     0.042 A 
HETATM   15  C   UNL     1      43.319 -17.979   3.698  1.00  0.00    -0.035 A 
HETATM   16  C   UNL     1      43.601 -18.767   2.447  1.00  0.00     0.050 C 
HETATM   17  C   UNL     1      43.955 -18.411   4.880  1.00  0.00     0.010 A 
HETATM   18  C   UNL     1      43.841 -17.692   6.067  1.00  0.00     0.020 A 
HETATM   19  C   UNL     1      43.092 -16.524   6.085  1.00  0.00     0.013 A 
HETATM   20  C   UNL     1      42.439 -16.086   4.934  1.00  0.00     0.049 A 
HETATM   21 BR   UNL     1      42.945 -15.527   7.685  1.00  0.00    -0.051 Br
ENDBRANCH  11  14
ENDBRANCH   9  10
ENDBRANCH   8   9
ENDBRANCH   1   8
BRANCH   6  22
HETATM   22  C   UNL     1      42.074 -11.495   3.048  1.00  0.00     0.012 A 
HETATM   23  C   UNL     1      43.243 -12.200   3.351  1.00  0.00     0.018 A 
HETATM   24  C   UNL     1      43.634 -12.359   4.683  1.00  0.00     0.037 A 
HETATM   25  C   UNL     1      42.865 -11.825   5.719  1.00  0.00     0.068 A 
HETATM   26  C   UNL     1      41.684 -11.147   5.415  1.00  0.00     0.037 A 
HETATM   27  C   UNL     1      41.280 -10.993   4.082  1.00  0.00     0.018 A 
BRANCH  25  28
HETATM   28  O   UNL     1      43.363 -12.052   6.972  1.00  0.00    -0.356 OA
HETATM   29  C   UNL     1      44.207 -11.050   7.524  1.00  0.00     0.210 C 
ENDBRANCH  25  28
ENDBRANCH   6  22
TORSDOF 6
ENDMDL
MODEL 10
REMARK VINA RESULT:      -6.9      3.227      5.168
REMARK  6 active torsions:
REMARK  status: ('A' for Active; 'I' for Inactive)
REMARK    1  A    between atoms: C_3  and  N_4 
REMARK       I    between atoms: N_4  and  C_5 
REMARK    2  A    between atoms: C_5  and  C_6 
REMARK    3  A    between atoms: C_6  and  C_7 
REMARK    4  A    between atoms: C_7  and  N_8 
REMARK    5  A    between atoms: C_13  and  C_14 
REMARK    6  A    between atoms: C_17  and  O_18 
ROOT
HETATM    1  N   UNL     1      42.955 -17.871   3.526  1.00  0.00    -0.305 N 
HETATM    2  C   UNL     1      43.687 -19.035   3.549  1.00  0.00     0.196 A 
HETATM    3  S   UNL     1      43.910 -20.180   2.373  1.00  0.00    -0.039 SA
HETATM    4  N   UNL     1      44.283 -19.098   4.795  1.00  0.00    -0.251 N 
HETATM    5  N   UNL     1      43.939 -18.016   5.542  1.00  0.00    -0.153 NA
HETATM    6  C   UNL     1      43.144 -17.327   4.772  1.00  0.00     0.162 A 
HETATM    7  H   UNL     1      44.899 -19.823   5.145  1.00  0.00     0.191 HD
ENDROOT
BRANCH   1   8
HETATM    8  C   UNL     1      42.209 -17.326   2.381  1.00  0.00     0.142 C 
BRANCH   8   9
HETATM    9  C   UNL     1      43.007 -16.296   1.591  1.00  0.00     0.123 C 
BRANCH   9  10
HETATM   10  C   UNL     1      42.338 -14.940   1.505  1.00  0.00     0.223 C 
HETATM   11  N   UNL     1      41.019 -14.985   1.099  1.00  0.00    -0.327 N 
HETATM   12  H   UNL     1      40.491 -15.797   1.399  1.00  0.00     0.169 HD
HETATM   13  O   UNL     1      42.974 -13.922   1.767  1.00  0.00    -0.273 OA
BRANCH  11  14
HETATM   14  C   UNL     1      40.242 -13.864   0.722  1.00  0.00     0.042 A 
HETATM   15  C   UNL     1      39.535 -13.044   1.623  1.00  0.00    -0.035 A 
HETATM   16  C   UNL     1      39.570 -13.201   3.120  1.00  0.00     0.050 C 
HETATM   17  C   UNL     1      38.775 -11.970   1.114  1.00  0.00     0.010 A 
HETATM   18  C   UNL     1      38.759 -11.677  -0.247  1.00  0.00     0.020 A 
HETATM   19  C   UNL     1      39.512 -12.452  -1.118  1.00  0.00     0.013 A 
HETATM   20  C   UNL     1      40.256 -13.530  -0.641  1.00  0.00     0.049 A 
HETATM   21 BR   UNL     1      39.516 -12.053  -2.966  1.00  0.00    -0.051 Br
ENDBRANCH  11  14
ENDBRANCH   9  10
ENDBRANCH   8   9
ENDBRANCH   1   8
BRANCH   6  22
HETATM   22  C   UNL     1      42.552 -16.052   5.212  1.00  0.00     0.012 A 
HETATM   23  C   UNL     1      43.307 -14.886   5.050  1.00  0.00     0.018 A 
HETATM   24  C   UNL     1      42.791 -13.659   5.472  1.00  0.00     0.037 A 
HETATM   25  C   UNL     1      41.527 -13.582   6.061  1.00  0.00     0.068 A 
HETATM   26  C   UNL     1      40.788 -14.752   6.246  1.00  0.00     0.037 A 
HETATM   27  C   UNL     1      41.304 -15.988   5.835  1.00  0.00     0.018 A 
BRANCH  25  28
HETATM   28  O   UNL     1      41.144 -12.321   6.425  1.00  0.00    -0.356 OA
HETATM   29  C   UNL     1      42.012 -11.253   6.068  1.00  0.00     0.210 C 
ENDBRANCH  25  28
ENDBRANCH   6  22
TORSDOF 6
ENDMDL
