MODEL 1
REMARK VINA RESULT:      -9.9      0.000      0.000
REMARK  6 active torsions:
REMARK  status: ('A' for Active; 'I' for Inactive)
REMARK    1  A    between atoms: C_9  and  C_10 
REMARK       I    between atoms: C_10  and  N_11 
REMARK    2  A    between atoms: N_11  and  N_12 
REMARK       I    between atoms: N_12  and  C_13 
REMARK       I    between atoms: C_13  and  N_14 
REMARK    3  A    between atoms: N_14  and  C_15 
REMARK    4  A    between atoms: C_15  and  C_16 
REMARK    5  A    between atoms: C_16  and  C_17 
REMARK    6  A    between atoms: C_16  and  C_27 
ROOT
HETATM    1  N   UNL     1      44.158 -13.020   6.725  1.00  0.00    -0.249 N 
HETATM    2  C   UNL     1      43.707 -14.308   6.905  1.00  0.00     0.334 C 
HETATM    3  N   UNL     1      44.515 -15.217   6.270  1.00  0.00    -0.341 N 
HETATM    4  O   UNL     1      42.698 -14.595   7.538  1.00  0.00    -0.246 OA
HETATM    5  H   UNL     1      45.138 -12.855   6.523  1.00  0.00     0.192 HD
HETATM    6  H   UNL     1      44.978 -14.863   5.443  1.00  0.00     0.164 HD
ENDROOT
BRANCH   1   7
HETATM    7  N   UNL     1      43.473 -11.974   7.357  1.00  0.00    -0.261 N 
HETATM    8  C   UNL     1      44.227 -11.043   8.044  1.00  0.00     0.291 C 
HETATM    9  O   UNL     1      45.402 -11.198   8.344  1.00  0.00    -0.264 OA
HETATM   10  H   UNL     1      42.588 -11.680   6.934  1.00  0.00     0.190 HD
BRANCH   8  11
HETATM   11  C   UNL     1      43.461  -9.753   8.366  1.00  0.00     0.157 A 
HETATM   12  C   UNL     1      43.246  -9.302   9.761  1.00  0.00     0.016 A 
HETATM   13  C   UNL     1      43.612 -10.036  10.896  1.00  0.00     0.015 A 
HETATM   14  C   UNL     1      42.638  -8.057   9.933  1.00  0.00     0.046 A 
HETATM   15  C   UNL     1      43.404  -9.510  12.176  1.00  0.00     0.001 A 
HETATM   16  C   UNL     1      42.822  -8.255  12.337  1.00  0.00     0.001 A 
HETATM   17  C   UNL     1      42.430  -7.528  11.215  1.00  0.00     0.018 A 
HETATM   18  C   UNL     1      42.188  -7.302   8.753  1.00  0.00     0.272 A 
HETATM   19  O   UNL     1      41.647  -6.206   8.859  1.00  0.00    -0.266 OA
HETATM   20  N   UNL     1      42.397  -7.903   7.536  1.00  0.00    -0.242 N 
HETATM   21  N   UNL     1      43.040  -9.083   7.327  1.00  0.00    -0.166 NA
HETATM   22  H   UNL     1      42.094  -7.393   6.710  1.00  0.00     0.192 HD
ENDBRANCH   8  11
ENDBRANCH   1   7
BRANCH   3  23
HETATM   23  C   UNL     1      44.155 -16.626   6.235  1.00  0.00     0.139 C 
BRANCH  23  24
HETATM   24  C   UNL     1      43.628 -17.146   4.876  1.00  0.00     0.079 C 
BRANCH  24  25
HETATM   25  C   UNL     1      42.251 -16.628   4.519  1.00  0.00    -0.020 A 
HETATM   26  C   UNL     1      41.860 -16.068   3.252  1.00  0.00    -0.001 A 
HETATM   27  C   UNL     1      40.514 -15.713   3.344  1.00  0.00     0.042 A 
HETATM   28  C   UNL     1      42.529 -15.831   2.032  1.00  0.00     0.014 A 
HETATM   29  C   UNL     1      39.805 -15.133   2.285  1.00  0.00     0.030 A 
HETATM   30  N   UNL     1      40.094 -16.040   4.610  1.00  0.00    -0.365 N 
HETATM   31  C   UNL     1      40.493 -14.911   1.089  1.00  0.00     0.002 A 
HETATM   32  C   UNL     1      41.835 -15.254   0.961  1.00  0.00     0.001 A 
HETATM   33  H   UNL     1      39.157 -15.893   4.958  1.00  0.00     0.165 HD
HETATM   34  C   UNL     1      41.125 -16.587   5.323  1.00  0.00     0.097 A 
ENDBRANCH  24  25
BRANCH  24  35
HETATM   35  C   UNL     1      43.762 -18.653   4.674  1.00  0.00    -0.007 A 
HETATM   36  S   UNL     1      43.872 -19.381   3.122  1.00  0.00    -0.106 SA
HETATM   37  C   UNL     1      43.995 -20.951   3.783  1.00  0.00     0.050 A 
HETATM   38  C   UNL     1      43.957 -20.936   5.158  1.00  0.00     0.008 A 
HETATM   39  C   UNL     1      43.827 -19.614   5.671  1.00  0.00     0.016 A 
ENDBRANCH  24  35
ENDBRANCH  23  24
ENDBRANCH   3  23
TORSDOF 6
ENDMDL
MODEL 2
REMARK VINA RESULT:      -9.8      1.890      3.658
REMARK  6 active torsions:
REMARK  status: ('A' for Active; 'I' for Inactive)
REMARK    1  A    between atoms: C_9  and  C_10 
REMARK       I    between atoms: C_10  and  N_11 
REMARK    2  A    between atoms: N_11  and  N_12 
REMARK       I    between atoms: N_12  and  C_13 
REMARK       I    between atoms: C_13  and  N_14 
REMARK    3  A    between atoms: N_14  and  C_15 
REMARK    4  A    between atoms: C_15  and  C_16 
REMARK    5  A    between atoms: C_16  and  C_17 
REMARK    6  A    between atoms: C_16  and  C_27 
ROOT
HETATM    1  N   UNL     1      43.706 -11.811   7.828  1.00  0.00    -0.249 N 
HETATM    2  C   UNL     1      43.059 -12.132   6.657  1.00  0.00     0.334 C 
HETATM    3  N   UNL     1      43.639 -13.214   6.043  1.00  0.00    -0.341 N 
HETATM    4  O   UNL     1      42.100 -11.511   6.216  1.00  0.00    -0.246 OA
HETATM    5  H   UNL     1      44.230 -12.524   8.324  1.00  0.00     0.192 HD
HETATM    6  H   UNL     1      44.629 -13.316   6.218  1.00  0.00     0.164 HD
ENDROOT
BRANCH   1   7
HETATM    7  N   UNL     1      43.203 -10.761   8.608  1.00  0.00    -0.261 N 
HETATM    8  C   UNL     1      44.090 -10.098   9.432  1.00  0.00     0.291 C 
HETATM    9  O   UNL     1      45.206 -10.511   9.712  1.00  0.00    -0.264 OA
HETATM   10  H   UNL     1      42.401 -10.250   8.229  1.00  0.00     0.190 HD
BRANCH   8  11
HETATM   11  C   UNL     1      43.562  -8.750   9.941  1.00  0.00     0.157 A 
HETATM   12  C   UNL     1      43.064  -8.582  11.327  1.00  0.00     0.016 A 
HETATM   13  C   UNL     1      42.926  -9.625  12.251  1.00  0.00     0.015 A 
HETATM   14  C   UNL     1      42.715  -7.288  11.717  1.00  0.00     0.046 A 
HETATM   15  C   UNL     1      42.482  -9.363  13.552  1.00  0.00     0.001 A 
HETATM   16  C   UNL     1      42.164  -8.065  13.940  1.00  0.00     0.001 A 
HETATM   17  C   UNL     1      42.273  -7.024  13.021  1.00  0.00     0.018 A 
HETATM   18  C   UNL     1      42.792  -6.191  10.739  1.00  0.00     0.272 A 
HETATM   19  O   UNL     1      42.493  -5.040  11.038  1.00  0.00    -0.266 OA
HETATM   20  N   UNL     1      43.202  -6.538   9.475  1.00  0.00    -0.242 N 
HETATM   21  N   UNL     1      43.608  -7.773   9.076  1.00  0.00    -0.166 NA
HETATM   22  H   UNL     1      43.263  -5.791   8.788  1.00  0.00     0.192 HD
ENDBRANCH   8  11
ENDBRANCH   1   7
BRANCH   3  23
HETATM   23  C   UNL     1      43.183 -13.649   4.731  1.00  0.00     0.139 C 
BRANCH  23  24
HETATM   24  C   UNL     1      42.083 -14.736   4.735  1.00  0.00     0.079 C 
BRANCH  24  25
HETATM   25  C   UNL     1      42.495 -16.016   5.432  1.00  0.00    -0.020 A 
HETATM   26  C   UNL     1      43.105 -17.160   4.807  1.00  0.00    -0.001 A 
HETATM   27  C   UNL     1      43.318 -18.120   5.797  1.00  0.00     0.042 A 
HETATM   28  C   UNL     1      43.498 -17.469   3.487  1.00  0.00     0.014 A 
HETATM   29  C   UNL     1      43.898 -19.367   5.538  1.00  0.00     0.030 A 
HETATM   30  N   UNL     1      42.860 -17.590   6.979  1.00  0.00    -0.365 N 
HETATM   31  C   UNL     1      44.277 -19.645   4.222  1.00  0.00     0.002 A 
HETATM   32  C   UNL     1      44.081 -18.711   3.209  1.00  0.00     0.001 A 
HETATM   33  H   UNL     1      42.888 -18.068   7.869  1.00  0.00     0.165 HD
HETATM   34  C   UNL     1      42.364 -16.332   6.773  1.00  0.00     0.097 A 
ENDBRANCH  24  25
BRANCH  24  35
HETATM   35  C   UNL     1      41.430 -14.988   3.379  1.00  0.00    -0.007 A 
HETATM   36  S   UNL     1      42.060 -14.364   1.908  1.00  0.00    -0.106 SA
HETATM   37  C   UNL     1      40.819 -15.083   0.981  1.00  0.00     0.050 A 
HETATM   38  C   UNL     1      39.936 -15.791   1.763  1.00  0.00     0.008 A 
HETATM   39  C   UNL     1      40.289 -15.740   3.141  1.00  0.00     0.016 A 
ENDBRANCH  24  35
ENDBRANCH  23  24
ENDBRANCH   3  23
TORSDOF 6
ENDMDL
MODEL 3
REMARK VINA RESULT:      -9.6      5.784      9.678
REMARK  6 active torsions:
REMARK  status: ('A' for Active; 'I' for Inactive)
REMARK    1  A    between atoms: C_9  and  C_10 
REMARK       I    between atoms: C_10  and  N_11 
REMARK    2  A    between atoms: N_11  and  N_12 
REMARK       I    between atoms: N_12  and  C_13 
REMARK       I    between atoms: C_13  and  N_14 
REMARK    3  A    between atoms: N_14  and  C_15 
REMARK    4  A    between atoms: C_15  and  C_16 
REMARK    5  A    between atoms: C_16  and  C_17 
REMARK    6  A    between atoms: C_16  and  C_27 
ROOT
HETATM    1  N   UNL     1      38.841 -14.064   2.541  1.00  0.00    -0.249 N 
HETATM    2  C   UNL     1      39.016 -12.699   2.555  1.00  0.00     0.334 C 
HETATM    3  N   UNL     1      38.040 -12.060   1.832  1.00  0.00    -0.341 N 
HETATM    4  O   UNL     1      39.941 -12.136   3.128  1.00  0.00    -0.246 OA
HETATM    5  H   UNL     1      37.916 -14.450   2.380  1.00  0.00     0.192 HD
HETATM    6  H   UNL     1      37.665 -12.599   1.064  1.00  0.00     0.164 HD
ENDROOT
BRANCH   1   7
HETATM    7  N   UNL     1      39.723 -14.863   3.280  1.00  0.00    -0.261 N 
HETATM    8  C   UNL     1      40.926 -15.198   2.691  1.00  0.00     0.291 C 
HETATM    9  O   UNL     1      41.168 -15.060   1.501  1.00  0.00    -0.264 OA
HETATM   10  H   UNL     1      39.677 -14.777   4.300  1.00  0.00     0.190 HD
BRANCH   8  11
HETATM   11  C   UNL     1      41.967 -15.728   3.686  1.00  0.00     0.157 A 
HETATM   12  C   UNL     1      42.687 -17.002   3.454  1.00  0.00     0.016 A 
HETATM   13  C   UNL     1      42.423 -17.880   2.396  1.00  0.00     0.015 A 
HETATM   14  C   UNL     1      43.694 -17.331   4.364  1.00  0.00     0.046 A 
HETATM   15  C   UNL     1      43.183 -19.045   2.236  1.00  0.00     0.001 A 
HETATM   16  C   UNL     1      44.204 -19.349   3.133  1.00  0.00     0.001 A 
HETATM   17  C   UNL     1      44.458 -18.496   4.204  1.00  0.00     0.018 A 
HETATM   18  C   UNL     1      43.940 -16.452   5.519  1.00  0.00     0.272 A 
HETATM   19  O   UNL     1      44.813 -16.704   6.343  1.00  0.00    -0.266 OA
HETATM   20  N   UNL     1      43.128 -15.349   5.623  1.00  0.00    -0.242 N 
HETATM   21  N   UNL     1      42.181 -14.966   4.725  1.00  0.00    -0.166 NA
HETATM   22  H   UNL     1      43.288 -14.730   6.413  1.00  0.00     0.192 HD
ENDBRANCH   8  11
ENDBRANCH   1   7
BRANCH   3  23
HETATM   23  C   UNL     1      38.103 -10.621   1.620  1.00  0.00     0.139 C 
BRANCH  23  24
HETATM   24  C   UNL     1      38.652 -10.174   0.245  1.00  0.00     0.079 C 
BRANCH  24  25
HETATM   25  C   UNL     1      39.478 -11.233  -0.454  1.00  0.00    -0.020 A 
HETATM   26  C   UNL     1      38.979 -12.228  -1.367  1.00  0.00    -0.001 A 
HETATM   27  C   UNL     1      40.062 -13.006  -1.778  1.00  0.00     0.042 A 
HETATM   28  C   UNL     1      37.703 -12.540  -1.882  1.00  0.00     0.014 A 
HETATM   29  C   UNL     1      39.936 -14.076  -2.672  1.00  0.00     0.030 A 
HETATM   30  N   UNL     1      41.178 -12.511  -1.148  1.00  0.00    -0.365 N 
HETATM   31  C   UNL     1      38.661 -14.361  -3.167  1.00  0.00     0.002 A 
HETATM   32  C   UNL     1      37.558 -13.606  -2.779  1.00  0.00     0.001 A 
HETATM   33  H   UNL     1      42.110 -12.883  -1.261  1.00  0.00     0.165 HD
HETATM   34  C   UNL     1      40.841 -11.451  -0.353  1.00  0.00     0.097 A 
ENDBRANCH  24  25
BRANCH  24  35
HETATM   35  C   UNL     1      39.326  -8.804   0.242  1.00  0.00    -0.007 A 
HETATM   36  S   UNL     1      39.511  -7.857  -1.179  1.00  0.00    -0.106 SA
HETATM   37  C   UNL     1      40.288  -6.596  -0.330  1.00  0.00     0.050 A 
HETATM   38  C   UNL     1      40.407  -6.875   1.011  1.00  0.00     0.008 A 
HETATM   39  C   UNL     1      39.851  -8.143   1.341  1.00  0.00     0.016 A 
ENDBRANCH  24  35
ENDBRANCH  23  24
ENDBRANCH   3  23
TORSDOF 6
ENDMDL
MODEL 4
REMARK VINA RESULT:      -9.5      3.099     10.769
REMARK  6 active torsions:
REMARK  status: ('A' for Active; 'I' for Inactive)
REMARK    1  A    between atoms: C_9  and  C_10 
REMARK       I    between atoms: C_10  and  N_11 
REMARK    2  A    between atoms: N_11  and  N_12 
REMARK       I    between atoms: N_12  and  C_13 
REMARK       I    between atoms: C_13  and  N_14 
REMARK    3  A    between atoms: N_14  and  C_15 
REMARK    4  A    between atoms: C_15  and  C_16 
REMARK    5  A    between atoms: C_16  and  C_17 
REMARK    6  A    between atoms: C_16  and  C_27 
ROOT
HETATM    1  N   UNL     1      42.871 -12.036   6.874  1.00  0.00    -0.249 N 
HETATM    2  C   UNL     1      43.614 -11.245   7.720  1.00  0.00     0.334 C 
HETATM    3  N   UNL     1      43.188  -9.940   7.691  1.00  0.00    -0.341 N 
HETATM    4  O   UNL     1      44.549 -11.658   8.395  1.00  0.00    -0.246 OA
HETATM    5  H   UNL     1      41.928 -11.759   6.627  1.00  0.00     0.192 HD
HETATM    6  H   UNL     1      42.786  -9.649   6.810  1.00  0.00     0.164 HD
ENDROOT
BRANCH   1   7
HETATM    7  N   UNL     1      43.143 -13.410   6.828  1.00  0.00    -0.261 N 
HETATM    8  C   UNL     1      42.111 -14.252   6.463  1.00  0.00     0.291 C 
HETATM    9  O   UNL     1      40.937 -13.917   6.418  1.00  0.00    -0.264 OA
HETATM   10  H   UNL     1      44.106 -13.682   6.610  1.00  0.00     0.190 HD
BRANCH   8  11
HETATM   11  C   UNL     1      42.580 -15.658   6.067  1.00  0.00     0.157 A 
HETATM   12  C   UNL     1      42.771 -16.045   4.649  1.00  0.00     0.016 A 
HETATM   13  C   UNL     1      42.448 -15.232   3.556  1.00  0.00     0.015 A 
HETATM   14  C   UNL     1      43.310 -17.311   4.409  1.00  0.00     0.046 A 
HETATM   15  C   UNL     1      42.698 -15.669   2.250  1.00  0.00     0.001 A 
HETATM   16  C   UNL     1      43.263 -16.922   2.023  1.00  0.00     0.001 A 
HETATM   17  C   UNL     1      43.564 -17.749   3.102  1.00  0.00     0.018 A 
HETATM   18  C   UNL     1      43.593 -18.204   5.544  1.00  0.00     0.272 A 
HETATM   19  O   UNL     1      44.065 -19.324   5.379  1.00  0.00    -0.266 OA
HETATM   20  N   UNL     1      43.285 -17.713   6.790  1.00  0.00    -0.242 N 
HETATM   21  N   UNL     1      42.818 -16.466   7.065  1.00  0.00    -0.166 NA
HETATM   22  H   UNL     1      43.478 -18.317   7.585  1.00  0.00     0.192 HD
ENDBRANCH   8  11
ENDBRANCH   1   7
BRANCH   3  23
HETATM   23  C   UNL     1      43.911  -8.912   8.423  1.00  0.00     0.139 C 
BRANCH  23  24
HETATM   24  C   UNL     1      43.065  -8.081   9.416  1.00  0.00     0.079 C 
BRANCH  24  25
HETATM   25  C   UNL     1      42.821  -8.778  10.739  1.00  0.00    -0.020 A 
HETATM   26  C   UNL     1      42.631  -8.133  12.011  1.00  0.00    -0.001 A 
HETATM   27  C   UNL     1      42.444  -9.131  12.968  1.00  0.00     0.042 A 
HETATM   28  C   UNL     1      42.600  -6.788  12.439  1.00  0.00     0.014 A 
HETATM   29  C   UNL     1      42.230  -8.857  14.324  1.00  0.00     0.030 A 
HETATM   30  N   UNL     1      42.514 -10.337  12.313  1.00  0.00    -0.365 N 
HETATM   31  C   UNL     1      42.205  -7.517  14.719  1.00  0.00     0.002 A 
HETATM   32  C   UNL     1      42.387  -6.495  13.791  1.00  0.00     0.001 A 
HETATM   33  H   UNL     1      42.413 -11.237  12.761  1.00  0.00     0.165 HD
HETATM   34  C   UNL     1      42.741 -10.138  10.979  1.00  0.00     0.097 A 
ENDBRANCH  24  25
BRANCH  24  35
HETATM   35  C   UNL     1      41.792  -7.481   8.824  1.00  0.00    -0.007 A 
HETATM   36  S   UNL     1      41.806  -6.364   7.519  1.00  0.00    -0.106 SA
HETATM   37  C   UNL     1      40.103  -6.243   7.505  1.00  0.00     0.050 A 
HETATM   38  C   UNL     1      39.521  -7.035   8.467  1.00  0.00     0.008 A 
HETATM   39  C   UNL     1      40.492  -7.750   9.223  1.00  0.00     0.016 A 
ENDBRANCH  24  35
ENDBRANCH  23  24
ENDBRANCH   3  23
TORSDOF 6
ENDMDL
MODEL 5
REMARK VINA RESULT:      -9.5      2.802     10.214
REMARK  6 active torsions:
REMARK  status: ('A' for Active; 'I' for Inactive)
REMARK    1  A    between atoms: C_9  and  C_10 
REMARK       I    between atoms: C_10  and  N_11 
REMARK    2  A    between atoms: N_11  and  N_12 
REMARK       I    between atoms: N_12  and  C_13 
REMARK       I    between atoms: C_13  and  N_14 
REMARK    3  A    between atoms: N_14  and  C_15 
REMARK    4  A    between atoms: C_15  and  C_16 
REMARK    5  A    between atoms: C_16  and  C_17 
REMARK    6  A    between atoms: C_16  and  C_27 
ROOT
HETATM    1  N   UNL     1      43.366 -13.175   7.454  1.00  0.00    -0.249 N 
HETATM    2  C   UNL     1      44.082 -12.001   7.422  1.00  0.00     0.334 C 
HETATM    3  N   UNL     1      43.632 -11.112   8.366  1.00  0.00    -0.341 N 
HETATM    4  O   UNL     1      44.992 -11.778   6.633  1.00  0.00    -0.246 OA
HETATM    5  H   UNL     1      42.896 -13.454   8.309  1.00  0.00     0.192 HD
HETATM    6  H   UNL     1      42.650 -11.200   8.592  1.00  0.00     0.164 HD
ENDROOT
BRANCH   1   7
HETATM    7  N   UNL     1      43.736 -14.212   6.588  1.00  0.00    -0.261 N 
HETATM    8  C   UNL     1      43.235 -15.472   6.850  1.00  0.00     0.291 C 
HETATM    9  O   UNL     1      42.703 -15.793   7.903  1.00  0.00    -0.264 OA
HETATM   10  H   UNL     1      43.940 -13.952   5.618  1.00  0.00     0.190 HD
BRANCH   8  11
HETATM   11  C   UNL     1      43.365 -16.441   5.667  1.00  0.00     0.157 A 
HETATM   12  C   UNL     1      42.472 -16.355   4.488  1.00  0.00     0.016 A 
HETATM   13  C   UNL     1      41.383 -15.482   4.382  1.00  0.00     0.015 A 
HETATM   14  C   UNL     1      42.754 -17.211   3.422  1.00  0.00     0.046 A 
HETATM   15  C   UNL     1      40.617 -15.445   3.211  1.00  0.00     0.001 A 
HETATM   16  C   UNL     1      40.924 -16.282   2.142  1.00  0.00     0.001 A 
HETATM   17  C   UNL     1      41.989 -17.173   2.247  1.00  0.00     0.018 A 
HETATM   18  C   UNL     1      43.854 -18.180   3.543  1.00  0.00     0.272 A 
HETATM   19  O   UNL     1      44.134 -18.952   2.632  1.00  0.00    -0.266 OA
HETATM   20  N   UNL     1      44.533 -18.177   4.737  1.00  0.00    -0.242 N 
HETATM   21  N   UNL     1      44.327 -17.318   5.771  1.00  0.00    -0.166 NA
HETATM   22  H   UNL     1      45.298 -18.839   4.835  1.00  0.00     0.192 HD
ENDBRANCH   8  11
ENDBRANCH   1   7
BRANCH   3  23
HETATM   23  C   UNL     1      44.174  -9.763   8.427  1.00  0.00     0.139 C 
BRANCH  23  24
HETATM   24  C   UNL     1      43.137  -8.622   8.301  1.00  0.00     0.079 C 
BRANCH  24  25
HETATM   25  C   UNL     1      42.948  -7.829   9.577  1.00  0.00    -0.020 A 
HETATM   26  C   UNL     1      42.791  -8.377  10.898  1.00  0.00    -0.001 A 
HETATM   27  C   UNL     1      42.641  -7.310  11.784  1.00  0.00     0.042 A 
HETATM   28  C   UNL     1      42.764  -9.687  11.424  1.00  0.00     0.014 A 
HETATM   29  C   UNL     1      42.463  -7.483  13.162  1.00  0.00     0.030 A 
HETATM   30  N   UNL     1      42.704  -6.156  11.042  1.00  0.00    -0.365 N 
HETATM   31  C   UNL     1      42.440  -8.790  13.655  1.00  0.00     0.002 A 
HETATM   32  C   UNL     1      42.589  -9.879  12.800  1.00  0.00     0.001 A 
HETATM   33  H   UNL     1      42.624  -5.225  11.425  1.00  0.00     0.165 HD
HETATM   34  C   UNL     1      42.886  -6.453   9.720  1.00  0.00     0.097 A 
ENDBRANCH  24  25
BRANCH  24  35
HETATM   35  C   UNL     1      41.813  -9.031   7.661  1.00  0.00    -0.007 A 
HETATM   36  S   UNL     1      41.634  -9.295   5.973  1.00  0.00    -0.106 SA
HETATM   37  C   UNL     1      39.981  -9.692   6.133  1.00  0.00     0.050 A 
HETATM   38  C   UNL     1      39.560  -9.632   7.440  1.00  0.00     0.008 A 
HETATM   39  C   UNL     1      40.614  -9.255   8.320  1.00  0.00     0.016 A 
ENDBRANCH  24  35
ENDBRANCH  23  24
ENDBRANCH   3  23
TORSDOF 6
ENDMDL
MODEL 6
REMARK VINA RESULT:      -9.5      4.020      8.963
REMARK  6 active torsions:
REMARK  status: ('A' for Active; 'I' for Inactive)
REMARK    1  A    between atoms: C_9  and  C_10 
REMARK       I    between atoms: C_10  and  N_11 
REMARK    2  A    between atoms: N_11  and  N_12 
REMARK       I    between atoms: N_12  and  C_13 
REMARK       I    between atoms: C_13  and  N_14 
REMARK    3  A    between atoms: N_14  and  C_15 
REMARK    4  A    between atoms: C_15  and  C_16 
REMARK    5  A    between atoms: C_16  and  C_17 
REMARK    6  A    between atoms: C_16  and  C_27 
ROOT
HETATM    1  N   UNL     1      42.983 -13.930   7.320  1.00  0.00    -0.249 N 
HETATM    2  C   UNL     1      42.906 -13.026   6.285  1.00  0.00     0.334 C 
HETATM    3  N   UNL     1      42.528 -11.784   6.730  1.00  0.00    -0.341 N 
HETATM    4  O   UNL     1      43.129 -13.309   5.114  1.00  0.00    -0.246 OA
HETATM    5  H   UNL     1      43.145 -13.598   8.265  1.00  0.00     0.192 HD
HETATM    6  H   UNL     1      41.939 -11.793   7.552  1.00  0.00     0.164 HD
ENDROOT
BRANCH   1   7
HETATM    7  N   UNL     1      43.411 -15.235   7.042  1.00  0.00    -0.261 N 
HETATM    8  C   UNL     1      42.440 -16.201   6.870  1.00  0.00     0.291 C 
HETATM    9  O   UNL     1      41.266 -16.057   7.180  1.00  0.00    -0.264 OA
HETATM   10  H   UNL     1      44.301 -15.331   6.544  1.00  0.00     0.190 HD
BRANCH   8  11
HETATM   11  C   UNL     1      42.961 -17.480   6.201  1.00  0.00     0.157 A 
HETATM   12  C   UNL     1      43.114 -17.582   4.730  1.00  0.00     0.016 A 
HETATM   13  C   UNL     1      42.710 -16.598   3.821  1.00  0.00     0.015 A 
HETATM   14  C   UNL     1      43.705 -18.748   4.239  1.00  0.00     0.046 A 
HETATM   15  C   UNL     1      42.931 -16.767   2.449  1.00  0.00     0.001 A 
HETATM   16  C   UNL     1      43.547 -17.921   1.972  1.00  0.00     0.001 A 
HETATM   17  C   UNL     1      43.929 -18.919   2.866  1.00  0.00     0.018 A 
HETATM   18  C   UNL     1      44.076 -19.822   5.175  1.00  0.00     0.272 A 
HETATM   19  O   UNL     1      44.594 -20.863   4.787  1.00  0.00    -0.266 OA
HETATM   20  N   UNL     1      43.793 -19.592   6.500  1.00  0.00    -0.242 N 
HETATM   21  N   UNL     1      43.276 -18.446   7.020  1.00  0.00    -0.166 NA
HETATM   22  H   UNL     1      44.046 -20.322   7.160  1.00  0.00     0.192 HD
ENDBRANCH   8  11
ENDBRANCH   1   7
BRANCH   3  23
HETATM   23  C   UNL     1      42.273 -10.708   5.784  1.00  0.00     0.139 C 
BRANCH  23  24
HETATM   24  C   UNL     1      40.955 -10.825   4.982  1.00  0.00     0.079 C 
BRANCH  24  25
HETATM   25  C   UNL     1      41.160 -11.184   3.524  1.00  0.00    -0.020 A 
HETATM   26  C   UNL     1      40.747 -12.407   2.889  1.00  0.00    -0.001 A 
HETATM   27  C   UNL     1      41.129 -12.337   1.549  1.00  0.00     0.042 A 
HETATM   28  C   UNL     1      40.082 -13.571   3.331  1.00  0.00     0.014 A 
HETATM   29  C   UNL     1      40.884 -13.366   0.632  1.00  0.00     0.030 A 
HETATM   30  N   UNL     1      41.748 -11.124   1.367  1.00  0.00    -0.365 N 
HETATM   31  C   UNL     1      40.223 -14.506   1.097  1.00  0.00     0.002 A 
HETATM   32  C   UNL     1      39.827 -14.610   2.428  1.00  0.00     0.001 A 
HETATM   33  H   UNL     1      42.128 -10.802   0.488  1.00  0.00     0.165 HD
HETATM   34  C   UNL     1      41.773 -10.425   2.542  1.00  0.00     0.097 A 
ENDBRANCH  24  25
BRANCH  24  35
HETATM   35  C   UNL     1      39.987  -9.661   5.171  1.00  0.00    -0.007 A 
HETATM   36  S   UNL     1      40.489  -8.104   5.695  1.00  0.00    -0.106 SA
HETATM   37  C   UNL     1      38.900  -7.483   5.623  1.00  0.00     0.050 A 
HETATM   38  C   UNL     1      37.995  -8.430   5.206  1.00  0.00     0.008 A 
HETATM   39  C   UNL     1      38.620  -9.682   4.943  1.00  0.00     0.016 A 
ENDBRANCH  24  35
ENDBRANCH  23  24
ENDBRANCH   3  23
TORSDOF 6
ENDMDL
MODEL 7
REMARK VINA RESULT:      -9.4      3.308     10.330
REMARK  6 active torsions:
REMARK  status: ('A' for Active; 'I' for Inactive)
REMARK    1  A    between atoms: C_9  and  C_10 
REMARK       I    between atoms: C_10  and  N_11 
REMARK    2  A    between atoms: N_11  and  N_12 
REMARK       I    between atoms: N_12  and  C_13 
REMARK       I    between atoms: C_13  and  N_14 
REMARK    3  A    between atoms: N_14  and  C_15 
REMARK    4  A    between atoms: C_15  and  C_16 
REMARK    5  A    between atoms: C_16  and  C_17 
REMARK    6  A    between atoms: C_16  and  C_27 
ROOT
HETATM    1  N   UNL     1      43.554 -12.695   7.652  1.00  0.00    -0.249 N 
HETATM    2  C   UNL     1      44.111 -11.437   7.649  1.00  0.00     0.334 C 
HETATM    3  N   UNL     1      43.842 -10.765   8.815  1.00  0.00    -0.341 N 
HETATM    4  O   UNL     1      44.749 -10.976   6.710  1.00  0.00    -0.246 OA
HETATM    5  H   UNL     1      43.362 -13.157   8.535  1.00  0.00     0.192 HD
HETATM    6  H   UNL     1      42.971 -11.025   9.259  1.00  0.00     0.164 HD
ENDROOT
BRANCH   1   7
HETATM    7  N   UNL     1      43.783 -13.534   6.554  1.00  0.00    -0.261 N 
HETATM    8  C   UNL     1      42.742 -14.343   6.141  1.00  0.00     0.291 C 
HETATM    9  O   UNL     1      41.737 -14.557   6.803  1.00  0.00    -0.264 OA
HETATM   10  H   UNL     1      44.464 -13.211   5.861  1.00  0.00     0.190 HD
BRANCH   8  11
HETATM   11  C   UNL     1      42.940 -14.924   4.735  1.00  0.00     0.157 A 
HETATM   12  C   UNL     1      43.339 -16.335   4.525  1.00  0.00     0.016 A 
HETATM   13  C   UNL     1      43.673 -17.225   5.552  1.00  0.00     0.015 A 
HETATM   14  C   UNL     1      43.378 -16.788   3.205  1.00  0.00     0.046 A 
HETATM   15  C   UNL     1      44.002 -18.554   5.260  1.00  0.00     0.001 A 
HETATM   16  C   UNL     1      44.010 -19.004   3.942  1.00  0.00     0.001 A 
HETATM   17  C   UNL     1      43.705 -18.119   2.909  1.00  0.00     0.018 A 
HETATM   18  C   UNL     1      43.093 -15.849   2.108  1.00  0.00     0.272 A 
HETATM   19  O   UNL     1      43.118 -16.204   0.935  1.00  0.00    -0.266 OA
HETATM   20  N   UNL     1      42.815 -14.556   2.479  1.00  0.00    -0.242 N 
HETATM   21  N   UNL     1      42.708 -14.094   3.753  1.00  0.00    -0.166 NA
HETATM   22  H   UNL     1      42.613 -13.895   1.733  1.00  0.00     0.192 HD
ENDBRANCH   8  11
ENDBRANCH   1   7
BRANCH   3  23
HETATM   23  C   UNL     1      44.240  -9.375   8.974  1.00  0.00     0.139 C 
BRANCH  23  24
HETATM   24  C   UNL     1      43.098  -8.391   9.323  1.00  0.00     0.079 C 
BRANCH  24  25
HETATM   25  C   UNL     1      42.120  -8.932  10.346  1.00  0.00    -0.020 A 
HETATM   26  C   UNL     1      42.184  -8.722  11.768  1.00  0.00    -0.001 A 
HETATM   27  C   UNL     1      41.103  -9.391  12.343  1.00  0.00     0.042 A 
HETATM   28  C   UNL     1      43.063  -8.023  12.623  1.00  0.00     0.014 A 
HETATM   29  C   UNL     1      40.857  -9.400  13.721  1.00  0.00     0.030 A 
HETATM   30  N   UNL     1      40.404  -9.985  11.320  1.00  0.00    -0.365 N 
HETATM   31  C   UNL     1      41.744  -8.699  14.542  1.00  0.00     0.002 A 
HETATM   32  C   UNL     1      42.832  -8.019  14.003  1.00  0.00     0.001 A 
HETATM   33  H   UNL     1      39.569 -10.539  11.444  1.00  0.00     0.165 HD
HETATM   34  C   UNL     1      41.004  -9.718  10.120  1.00  0.00     0.097 A 
ENDBRANCH  24  25
BRANCH  24  35
HETATM   35  C   UNL     1      42.402  -7.767   8.116  1.00  0.00    -0.007 A 
HETATM   36  S   UNL     1      41.829  -6.148   8.102  1.00  0.00    -0.106 SA
HETATM   37  C   UNL     1      41.255  -6.284   6.499  1.00  0.00     0.050 A 
HETATM   38  C   UNL     1      41.492  -7.531   5.971  1.00  0.00     0.008 A 
HETATM   39  C   UNL     1      42.154  -8.383   6.899  1.00  0.00     0.016 A 
ENDBRANCH  24  35
ENDBRANCH  23  24
ENDBRANCH   3  23
TORSDOF 6
ENDMDL
MODEL 8
REMARK VINA RESULT:      -9.4      5.680      9.727
REMARK  6 active torsions:
REMARK  status: ('A' for Active; 'I' for Inactive)
REMARK    1  A    between atoms: C_9  and  C_10 
REMARK       I    between atoms: C_10  and  N_11 
REMARK    2  A    between atoms: N_11  and  N_12 
REMARK       I    between atoms: N_12  and  C_13 
REMARK       I    between atoms: C_13  and  N_14 
REMARK    3  A    between atoms: N_14  and  C_15 
REMARK    4  A    between atoms: C_15  and  C_16 
REMARK    5  A    between atoms: C_16  and  C_17 
REMARK    6  A    between atoms: C_16  and  C_27 
ROOT
HETATM    1  N   UNL     1      38.898 -13.623   2.409  1.00  0.00    -0.249 N 
HETATM    2  C   UNL     1      39.442 -12.573   1.705  1.00  0.00     0.334 C 
HETATM    3  N   UNL     1      38.525 -12.013   0.851  1.00  0.00    -0.341 N 
HETATM    4  O   UNL     1      40.605 -12.206   1.818  1.00  0.00    -0.246 OA
HETATM    5  H   UNL     1      37.895 -13.662   2.557  1.00  0.00     0.192 HD
HETATM    6  H   UNL     1      37.823 -12.654   0.508  1.00  0.00     0.164 HD
ENDROOT
BRANCH   1   7
HETATM    7  N   UNL     1      39.689 -14.271   3.368  1.00  0.00    -0.261 N 
HETATM    8  C   UNL     1      40.400 -15.382   2.961  1.00  0.00     0.291 C 
HETATM    9  O   UNL     1      40.202 -15.977   1.912  1.00  0.00    -0.264 OA
HETATM   10  H   UNL     1      40.064 -13.691   4.123  1.00  0.00     0.190 HD
BRANCH   8  11
HETATM   11  C   UNL     1      41.512 -15.787   3.937  1.00  0.00     0.157 A 
HETATM   12  C   UNL     1      42.438 -16.907   3.643  1.00  0.00     0.016 A 
HETATM   13  C   UNL     1      42.329 -17.753   2.533  1.00  0.00     0.015 A 
HETATM   14  C   UNL     1      43.482 -17.114   4.546  1.00  0.00     0.046 A 
HETATM   15  C   UNL     1      43.275 -18.762   2.317  1.00  0.00     0.001 A 
HETATM   16  C   UNL     1      44.329 -18.942   3.208  1.00  0.00     0.001 A 
HETATM   17  C   UNL     1      44.431 -18.123   4.330  1.00  0.00     0.018 A 
HETATM   18  C   UNL     1      43.573 -16.276   5.753  1.00  0.00     0.272 A 
HETATM   19  O   UNL     1      44.472 -16.426   6.573  1.00  0.00    -0.266 OA
HETATM   20  N   UNL     1      42.586 -15.333   5.908  1.00  0.00    -0.242 N 
HETATM   21  N   UNL     1      41.592 -15.063   5.021  1.00  0.00    -0.166 NA
HETATM   22  H   UNL     1      42.636 -14.744   6.735  1.00  0.00     0.192 HD
ENDBRANCH   8  11
ENDBRANCH   1   7
BRANCH   3  23
HETATM   23  C   UNL     1      38.925 -10.963  -0.073  1.00  0.00     0.139 C 
BRANCH  23  24
HETATM   24  C   UNL     1      39.744 -11.431  -1.300  1.00  0.00     0.079 C 
BRANCH  24  25
HETATM   25  C   UNL     1      40.055 -10.322  -2.283  1.00  0.00    -0.020 A 
HETATM   26  C   UNL     1      41.138  -9.380  -2.180  1.00  0.00    -0.001 A 
HETATM   27  C   UNL     1      41.065  -8.528  -3.282  1.00  0.00     0.042 A 
HETATM   28  C   UNL     1      42.178  -9.173  -1.248  1.00  0.00     0.014 A 
HETATM   29  C   UNL     1      41.971  -7.484  -3.500  1.00  0.00     0.030 A 
HETATM   30  N   UNL     1      39.986  -8.929  -4.032  1.00  0.00    -0.365 N 
HETATM   31  C   UNL     1      42.990  -7.302  -2.561  1.00  0.00     0.002 A 
HETATM   32  C   UNL     1      43.094  -8.134  -1.450  1.00  0.00     0.001 A 
HETATM   33  H   UNL     1      39.692  -8.489  -4.893  1.00  0.00     0.165 HD
HETATM   34  C   UNL     1      39.373 -10.000  -3.443  1.00  0.00     0.097 A 
ENDBRANCH  24  25
BRANCH  24  35
HETATM   35  C   UNL     1      39.211 -12.689  -1.980  1.00  0.00    -0.007 A 
HETATM   36  S   UNL     1      37.571 -12.870  -2.457  1.00  0.00    -0.106 SA
HETATM   37  C   UNL     1      37.847 -14.432  -3.088  1.00  0.00     0.050 A 
HETATM   38  C   UNL     1      39.158 -14.820  -2.949  1.00  0.00     0.008 A 
HETATM   39  C   UNL     1      39.944 -13.817  -2.315  1.00  0.00     0.016 A 
ENDBRANCH  24  35
ENDBRANCH  23  24
ENDBRANCH   3  23
TORSDOF 6
ENDMDL
MODEL 9
REMARK VINA RESULT:      -9.2      3.599     10.347
REMARK  6 active torsions:
REMARK  status: ('A' for Active; 'I' for Inactive)
REMARK    1  A    between atoms: C_9  and  C_10 
REMARK       I    between atoms: C_10  and  N_11 
REMARK    2  A    between atoms: N_11  and  N_12 
REMARK       I    between atoms: N_12  and  C_13 
REMARK       I    between atoms: C_13  and  N_14 
REMARK    3  A    between atoms: N_14  and  C_15 
REMARK    4  A    between atoms: C_15  and  C_16 
REMARK    5  A    between atoms: C_16  and  C_17 
REMARK    6  A    between atoms: C_16  and  C_27 
ROOT
HETATM    1  N   UNL     1      41.033 -12.351   6.390  1.00  0.00    -0.249 N 
HETATM    2  C   UNL     1      41.720 -11.163   6.305  1.00  0.00     0.334 C 
HETATM    3  N   UNL     1      40.872 -10.086   6.370  1.00  0.00    -0.341 N 
HETATM    4  O   UNL     1      42.935 -11.086   6.168  1.00  0.00    -0.246 OA
HETATM    5  H   UNL     1      40.128 -12.376   6.848  1.00  0.00     0.192 HD
HETATM    6  H   UNL     1      39.944 -10.259   6.008  1.00  0.00     0.164 HD
ENDROOT
BRANCH   1   7
HETATM    7  N   UNL     1      41.759 -13.550   6.395  1.00  0.00    -0.261 N 
HETATM    8  C   UNL     1      41.044 -14.729   6.341  1.00  0.00     0.291 C 
HETATM    9  O   UNL     1      39.840 -14.810   6.536  1.00  0.00    -0.264 OA
HETATM   10  H   UNL     1      42.699 -13.520   5.988  1.00  0.00     0.190 HD
BRANCH   8  11
HETATM   11  C   UNL     1      41.899 -15.946   5.965  1.00  0.00     0.157 A 
HETATM   12  C   UNL     1      42.186 -16.290   4.552  1.00  0.00     0.016 A 
HETATM   13  C   UNL     1      41.635 -15.627   3.448  1.00  0.00     0.015 A 
HETATM   14  C   UNL     1      43.068 -17.349   4.328  1.00  0.00     0.046 A 
HETATM   15  C   UNL     1      41.995 -15.998   2.148  1.00  0.00     0.001 A 
HETATM   16  C   UNL     1      42.897 -17.037   1.936  1.00  0.00     0.001 A 
HETATM   17  C   UNL     1      43.431 -17.720   3.026  1.00  0.00     0.018 A 
HETATM   18  C   UNL     1      43.604 -18.099   5.475  1.00  0.00     0.272 A 
HETATM   19  O   UNL     1      44.380 -19.036   5.324  1.00  0.00    -0.266 OA
HETATM   20  N   UNL     1      43.174 -17.694   6.715  1.00  0.00    -0.242 N 
HETATM   21  N   UNL     1      42.366 -16.631   6.974  1.00  0.00    -0.166 NA
HETATM   22  H   UNL     1      43.538 -18.200   7.518  1.00  0.00     0.192 HD
ENDBRANCH   8  11
ENDBRANCH   1   7
BRANCH   3  23
HETATM   23  C   UNL     1      41.380  -8.735   6.182  1.00  0.00     0.139 C 
BRANCH  23  24
HETATM   24  C   UNL     1      41.420  -7.855   7.454  1.00  0.00     0.079 C 
BRANCH  24  25
HETATM   25  C   UNL     1      41.787  -8.618   8.710  1.00  0.00    -0.020 A 
HETATM   26  C   UNL     1      43.116  -8.998   9.109  1.00  0.00    -0.001 A 
HETATM   27  C   UNL     1      43.014  -9.686  10.318  1.00  0.00     0.042 A 
HETATM   28  C   UNL     1      44.401  -8.821   8.553  1.00  0.00     0.014 A 
HETATM   29  C   UNL     1      44.123 -10.205  10.997  1.00  0.00     0.030 A 
HETATM   30  N   UNL     1      41.681  -9.726  10.650  1.00  0.00    -0.365 N 
HETATM   31  C   UNL     1      45.382 -10.014  10.422  1.00  0.00     0.002 A 
HETATM   32  C   UNL     1      45.522  -9.332   9.217  1.00  0.00     0.001 A 
HETATM   33  H   UNL     1      41.311 -10.165  11.481  1.00  0.00     0.165 HD
HETATM   34  C   UNL     1      40.937  -9.091   9.694  1.00  0.00     0.097 A 
ENDBRANCH  24  25
BRANCH  24  35
HETATM   35  C   UNL     1      40.202  -6.955   7.646  1.00  0.00    -0.007 A 
HETATM   36  S   UNL     1      40.284  -5.427   8.425  1.00  0.00    -0.106 SA
HETATM   37  C   UNL     1      38.615  -5.139   8.204  1.00  0.00     0.050 A 
HETATM   38  C   UNL     1      37.996  -6.176   7.547  1.00  0.00     0.008 A 
HETATM   39  C   UNL     1      38.909  -7.219   7.223  1.00  0.00     0.016 A 
ENDBRANCH  24  35
ENDBRANCH  23  24
ENDBRANCH   3  23
TORSDOF 6
ENDMDL
MODEL 10
REMARK VINA RESULT:      -9.1      3.445     10.703
REMARK  6 active torsions:
REMARK  status: ('A' for Active; 'I' for Inactive)
REMARK    1  A    between atoms: C_9  and  C_10 
REMARK       I    between atoms: C_10  and  N_11 
REMARK    2  A    between atoms: N_11  and  N_12 
REMARK       I    between atoms: N_12  and  C_13 
REMARK       I    between atoms: C_13  and  N_14 
REMARK    3  A    between atoms: N_14  and  C_15 
REMARK    4  A    between atoms: C_15  and  C_16 
REMARK    5  A    between atoms: C_16  and  C_17 
REMARK    6  A    between atoms: C_16  and  C_27 
ROOT
HETATM    1  N   UNL     1      40.182 -11.286   6.787  1.00  0.00    -0.249 N 
HETATM    2  C   UNL     1      40.967 -10.224   7.172  1.00  0.00     0.334 C 
HETATM    3  N   UNL     1      40.532  -9.681   8.355  1.00  0.00    -0.341 N 
HETATM    4  O   UNL     1      41.920  -9.810   6.523  1.00  0.00    -0.246 OA
HETATM    5  H   UNL     1      39.662 -11.806   7.486  1.00  0.00     0.192 HD
HETATM    6  H   UNL     1      39.539  -9.772   8.520  1.00  0.00     0.164 HD
ENDROOT
BRANCH   1   7
HETATM    7  N   UNL     1      40.526 -11.989   5.624  1.00  0.00    -0.261 N 
HETATM    8  C   UNL     1      40.152 -13.316   5.548  1.00  0.00     0.291 C 
HETATM    9  O   UNL     1      39.770 -13.977   6.503  1.00  0.00    -0.264 OA
HETATM   10  H   UNL     1      40.597 -11.444   4.760  1.00  0.00     0.190 HD
BRANCH   8  11
HETATM   11  C   UNL     1      40.216 -13.889   4.126  1.00  0.00     0.157 A 
HETATM   12  C   UNL     1      41.112 -15.018   3.781  1.00  0.00     0.016 A 
HETATM   13  C   UNL     1      42.041 -15.589   4.659  1.00  0.00     0.015 A 
HETATM   14  C   UNL     1      41.005 -15.533   2.487  1.00  0.00     0.046 A 
HETATM   15  C   UNL     1      42.819 -16.680   4.255  1.00  0.00     0.001 A 
HETATM   16  C   UNL     1      42.685 -17.205   2.972  1.00  0.00     0.001 A 
HETATM   17  C   UNL     1      41.782 -16.628   2.082  1.00  0.00     0.018 A 
HETATM   18  C   UNL     1      40.081 -14.903   1.531  1.00  0.00     0.272 A 
HETATM   19  O   UNL     1      39.957 -15.322   0.385  1.00  0.00    -0.266 OA
HETATM   20  N   UNL     1      39.381 -13.816   1.995  1.00  0.00    -0.242 N 
HETATM   21  N   UNL     1      39.414 -13.326   3.263  1.00  0.00    -0.166 NA
HETATM   22  H   UNL     1      38.736 -13.372   1.348  1.00  0.00     0.192 HD
ENDBRANCH   8  11
ENDBRANCH   1   7
BRANCH   3  23
HETATM   23  C   UNL     1      41.150  -8.474   8.884  1.00  0.00     0.139 C 
BRANCH  23  24
HETATM   24  C   UNL     1      42.118  -8.687  10.072  1.00  0.00     0.079 C 
BRANCH  24  25
HETATM   25  C   UNL     1      42.079  -7.571  11.095  1.00  0.00    -0.020 A 
HETATM   26  C   UNL     1      42.050  -7.735  12.524  1.00  0.00    -0.001 A 
HETATM   27  C   UNL     1      42.014  -6.463  13.096  1.00  0.00     0.042 A 
HETATM   28  C   UNL     1      42.050  -8.852  13.388  1.00  0.00     0.014 A 
HETATM   29  C   UNL     1      41.977  -6.249  14.479  1.00  0.00     0.030 A 
HETATM   30  N   UNL     1      42.023  -5.556  12.064  1.00  0.00    -0.365 N 
HETATM   31  C   UNL     1      41.979  -7.373  15.309  1.00  0.00     0.002 A 
HETATM   32  C   UNL     1      42.015  -8.657  14.773  1.00  0.00     0.001 A 
HETATM   33  H   UNL     1      42.003  -4.553  12.184  1.00  0.00     0.165 HD
HETATM   34  C   UNL     1      42.061  -6.207  10.862  1.00  0.00     0.097 A 
ENDBRANCH  24  25
BRANCH  24  35
HETATM   35  C   UNL     1      43.540  -9.073   9.675  1.00  0.00    -0.007 A 
HETATM   36  S   UNL     1      44.508  -8.121   8.623  1.00  0.00    -0.106 SA
HETATM   37  C   UNL     1      45.826  -9.201   8.734  1.00  0.00     0.050 A 
HETATM   38  C   UNL     1      45.551 -10.268   9.556  1.00  0.00     0.008 A 
HETATM   39  C   UNL     1      44.238 -10.193  10.100  1.00  0.00     0.016 A 
ENDBRANCH  24  35
ENDBRANCH  23  24
ENDBRANCH   3  23
TORSDOF 6
ENDMDL
