MODEL 1
REMARK VINA RESULT:      -7.9      0.000      0.000
REMARK  8 active torsions:
REMARK  status: ('A' for Active; 'I' for Inactive)
REMARK    1  A    between atoms: C_2  and  C_3 
REMARK    2  A    between atoms: C_3  and  O_4 
REMARK    3  A    between atoms: O_4  and  C_5 
REMARK    4  A    between atoms: C_8  and  C_9 
REMARK    5  A    between atoms: N_10  and  N_11 
REMARK       I    between atoms: N_11  and  C_12 
REMARK    6  A    between atoms: C_12  and  C_13 
REMARK    7  A    between atoms: C_17  and  C_18 
REMARK    8  A    between atoms: C_21  and  O_22 
ROOT
HETATM    1  N   UNL     1      38.989 -13.994   2.129  1.00  0.00    -0.242 N 
HETATM    2  C   UNL     1      39.039 -12.707   2.655  1.00  0.00     0.289 C 
HETATM    3  O   UNL     1      38.469 -11.794   2.058  1.00  0.00    -0.264 OA
HETATM    4  H   UNL     1      38.508 -14.082   1.240  1.00  0.00     0.192 HD
ENDROOT
BRANCH   2   5
HETATM    5  C   UNL     1      39.782 -12.508   3.877  1.00  0.00     0.121 A 
HETATM    6  N   UNL     1      39.425 -13.014   5.092  1.00  0.00    -0.272 N 
HETATM    7  H   UNL     1      38.617 -13.604   5.269  1.00  0.00     0.189 HD
HETATM    8  N   UNL     1      40.270 -12.729   6.090  1.00  0.00    -0.174 NA
HETATM    9  C   UNL     1      41.242 -12.009   5.505  1.00  0.00     0.089 A 
HETATM   10  C   UNL     1      40.950 -11.814   4.124  1.00  0.00     0.071 A 
BRANCH   9  11
HETATM   11  C   UNL     1      42.410 -11.557   6.264  1.00  0.00    -0.005 A 
HETATM   12  C   UNL     1      43.567 -12.339   6.344  1.00  0.00     0.016 A 
HETATM   13  C   UNL     1      44.660 -11.909   7.105  1.00  0.00     0.037 A 
HETATM   14  C   UNL     1      44.620 -10.694   7.793  1.00  0.00     0.068 A 
HETATM   15  C   UNL     1      43.471  -9.907   7.715  1.00  0.00     0.037 A 
HETATM   16  C   UNL     1      42.375 -10.339   6.958  1.00  0.00     0.016 A 
BRANCH  14  17
HETATM   17  O   UNL     1      45.752 -10.398   8.500  1.00  0.00    -0.356 OA
HETATM   18  C   UNL     1      46.415  -9.185   8.167  1.00  0.00     0.210 C 
ENDBRANCH  14  17
ENDBRANCH   9  11
ENDBRANCH   2   5
BRANCH   1  19
HETATM   19  N   UNL     1      39.782 -15.005   2.586  1.00  0.00    -0.184 NA
HETATM   20  C   UNL     1      41.010 -15.016   2.177  1.00  0.00     0.150 C 
BRANCH  20  21
HETATM   21  C   UNL     1      41.954 -16.036   2.680  1.00  0.00    -0.017 A 
HETATM   22  C   UNL     1      42.663 -15.815   3.866  1.00  0.00     0.016 A 
HETATM   23  C   UNL     1      43.563 -16.774   4.336  1.00  0.00     0.037 A 
HETATM   24  C   UNL     1      43.762 -17.956   3.625  1.00  0.00     0.068 A 
HETATM   25  C   UNL     1      43.056 -18.166   2.434  1.00  0.00     0.037 A 
HETATM   26  C   UNL     1      42.152 -17.212   1.957  1.00  0.00     0.016 A 
BRANCH  24  27
HETATM   27  O   UNL     1      44.613 -18.967   3.981  1.00  0.00    -0.351 OA
BRANCH  27  28
HETATM   28  C   UNL     1      44.076 -20.293   3.958  1.00  0.00     0.175 C 
BRANCH  28  29
HETATM   29  C   UNL     1      44.155 -20.865   5.369  1.00  0.00     0.022 C 
HETATM   30  C   UNL     1      43.438 -19.980   6.373  1.00  0.00     0.007 C 
ENDBRANCH  28  29
ENDBRANCH  27  28
ENDBRANCH  24  27
ENDBRANCH  20  21
ENDBRANCH   1  19
TORSDOF 8
ENDMDL
MODEL 2
REMARK VINA RESULT:      -7.8      1.987      7.610
REMARK  8 active torsions:
REMARK  status: ('A' for Active; 'I' for Inactive)
REMARK    1  A    between atoms: C_2  and  C_3 
REMARK    2  A    between atoms: C_3  and  O_4 
REMARK    3  A    between atoms: O_4  and  C_5 
REMARK    4  A    between atoms: C_8  and  C_9 
REMARK    5  A    between atoms: N_10  and  N_11 
REMARK       I    between atoms: N_11  and  C_12 
REMARK    6  A    between atoms: C_12  and  C_13 
REMARK    7  A    between atoms: C_17  and  C_18 
REMARK    8  A    between atoms: C_21  and  O_22 
ROOT
HETATM    1  N   UNL     1      41.856 -11.069   2.078  1.00  0.00    -0.242 N 
HETATM    2  C   UNL     1      41.471 -12.212   1.384  1.00  0.00     0.289 C 
HETATM    3  O   UNL     1      41.078 -12.103   0.223  1.00  0.00    -0.264 OA
HETATM    4  H   UNL     1      41.739 -10.195   1.575  1.00  0.00     0.192 HD
ENDROOT
BRANCH   2   5
HETATM    5  C   UNL     1      41.540 -13.476   2.079  1.00  0.00     0.121 A 
HETATM    6  N   UNL     1      40.526 -14.010   2.819  1.00  0.00    -0.272 N 
HETATM    7  H   UNL     1      39.608 -13.595   2.944  1.00  0.00     0.189 HD
HETATM    8  N   UNL     1      40.793 -15.205   3.358  1.00  0.00    -0.174 NA
HETATM    9  C   UNL     1      42.040 -15.483   2.944  1.00  0.00     0.089 A 
HETATM   10  C   UNL     1      42.558 -14.403   2.173  1.00  0.00     0.071 A 
BRANCH   9  11
HETATM   11  C   UNL     1      42.681 -16.759   3.273  1.00  0.00    -0.005 A 
HETATM   12  C   UNL     1      43.168 -17.012   4.560  1.00  0.00     0.016 A 
HETATM   13  C   UNL     1      43.812 -18.221   4.847  1.00  0.00     0.037 A 
HETATM   14  C   UNL     1      43.975 -19.197   3.862  1.00  0.00     0.068 A 
HETATM   15  C   UNL     1      43.489 -18.954   2.578  1.00  0.00     0.037 A 
HETATM   16  C   UNL     1      42.851 -17.742   2.288  1.00  0.00     0.016 A 
BRANCH  14  17
HETATM   17  O   UNL     1      44.625 -20.327   4.276  1.00  0.00    -0.356 OA
HETATM   18  C   UNL     1      44.133 -20.950   5.456  1.00  0.00     0.210 C 
ENDBRANCH  14  17
ENDBRANCH   9  11
ENDBRANCH   2   5
BRANCH   1  19
HETATM   19  N   UNL     1      42.073 -11.066   3.425  1.00  0.00    -0.184 NA
HETATM   20  C   UNL     1      43.302 -11.159   3.819  1.00  0.00     0.150 C 
BRANCH  20  21
HETATM   21  C   UNL     1      43.629 -11.092   5.259  1.00  0.00    -0.017 A 
HETATM   22  C   UNL     1      42.736 -10.495   6.157  1.00  0.00     0.016 A 
HETATM   23  C   UNL     1      43.049 -10.422   7.515  1.00  0.00     0.037 A 
HETATM   24  C   UNL     1      44.255 -10.940   7.986  1.00  0.00     0.068 A 
HETATM   25  C   UNL     1      45.148 -11.526   7.080  1.00  0.00     0.037 A 
HETATM   26  C   UNL     1      44.841 -11.605   5.718  1.00  0.00     0.016 A 
BRANCH  24  27
HETATM   27  O   UNL     1      44.675 -10.929   9.288  1.00  0.00    -0.351 OA
BRANCH  27  28
HETATM   28  C   UNL     1      45.097  -9.667   9.813  1.00  0.00     0.175 C 
BRANCH  28  29
HETATM   29  C   UNL     1      44.162  -9.287  10.955  1.00  0.00     0.022 C 
HETATM   30  C   UNL     1      43.522 -10.511  11.586  1.00  0.00     0.007 C 
ENDBRANCH  28  29
ENDBRANCH  27  28
ENDBRANCH  24  27
ENDBRANCH  20  21
ENDBRANCH   1  19
TORSDOF 8
ENDMDL
MODEL 3
REMARK VINA RESULT:      -7.7      2.635      7.532
REMARK  8 active torsions:
REMARK  status: ('A' for Active; 'I' for Inactive)
REMARK    1  A    between atoms: C_2  and  C_3 
REMARK    2  A    between atoms: C_3  and  O_4 
REMARK    3  A    between atoms: O_4  and  C_5 
REMARK    4  A    between atoms: C_8  and  C_9 
REMARK    5  A    between atoms: N_10  and  N_11 
REMARK       I    between atoms: N_11  and  C_12 
REMARK    6  A    between atoms: C_12  and  C_13 
REMARK    7  A    between atoms: C_17  and  C_18 
REMARK    8  A    between atoms: C_21  and  O_22 
ROOT
HETATM    1  N   UNL     1      43.114 -11.188   6.317  1.00  0.00    -0.242 N 
HETATM    2  C   UNL     1      43.738 -12.191   7.054  1.00  0.00     0.289 C 
HETATM    3  O   UNL     1      44.547 -11.877   7.927  1.00  0.00    -0.264 OA
HETATM    4  H   UNL     1      43.415 -10.243   6.530  1.00  0.00     0.192 HD
ENDROOT
BRANCH   2   5
HETATM    5  C   UNL     1      43.409 -13.561   6.738  1.00  0.00     0.121 A 
HETATM    6  N   UNL     1      42.268 -14.195   7.130  1.00  0.00    -0.272 N 
HETATM    7  H   UNL     1      41.513 -13.772   7.663  1.00  0.00     0.189 HD
HETATM    8  N   UNL     1      42.152 -15.459   6.706  1.00  0.00    -0.174 NA
HETATM    9  C   UNL     1      43.267 -15.669   5.986  1.00  0.00     0.089 A 
HETATM   10  C   UNL     1      44.101 -14.515   6.018  1.00  0.00     0.071 A 
BRANCH   9  11
HETATM   11  C   UNL     1      43.488 -16.936   5.285  1.00  0.00    -0.005 A 
HETATM   12  C   UNL     1      43.458 -17.004   3.888  1.00  0.00     0.016 A 
HETATM   13  C   UNL     1      43.632 -18.230   3.235  1.00  0.00     0.037 A 
HETATM   14  C   UNL     1      43.845 -19.403   3.962  1.00  0.00     0.068 A 
HETATM   15  C   UNL     1      43.881 -19.344   5.354  1.00  0.00     0.037 A 
HETATM   16  C   UNL     1      43.700 -18.119   6.008  1.00  0.00     0.016 A 
BRANCH  14  17
HETATM   17  O   UNL     1      43.996 -20.529   3.200  1.00  0.00    -0.356 OA
HETATM   18  C   UNL     1      43.618 -20.431   1.833  1.00  0.00     0.210 C 
ENDBRANCH  14  17
ENDBRANCH   9  11
ENDBRANCH   2   5
BRANCH   1  19
HETATM   19  N   UNL     1      42.397 -11.447   5.186  1.00  0.00    -0.184 NA
HETATM   20  C   UNL     1      43.055 -11.478   4.072  1.00  0.00     0.150 C 
BRANCH  20  21
HETATM   21  C   UNL     1      42.366 -11.821   2.810  1.00  0.00    -0.017 A 
HETATM   22  C   UNL     1      42.233 -13.158   2.421  1.00  0.00     0.016 A 
HETATM   23  C   UNL     1      41.592 -13.482   1.223  1.00  0.00     0.037 A 
HETATM   24  C   UNL     1      41.082 -12.473   0.407  1.00  0.00     0.068 A 
HETATM   25  C   UNL     1      41.227 -11.136   0.798  1.00  0.00     0.037 A 
HETATM   26  C   UNL     1      41.867 -10.804   1.996  1.00  0.00     0.016 A 
BRANCH  24  27
HETATM   27  O   UNL     1      40.437 -12.661  -0.785  1.00  0.00    -0.351 OA
BRANCH  27  28
HETATM   28  C   UNL     1      39.970 -13.985  -1.058  1.00  0.00     0.175 C 
BRANCH  28  29
HETATM   29  C   UNL     1      39.914 -14.171  -2.569  1.00  0.00     0.022 C 
HETATM   30  C   UNL     1      38.490 -14.366  -3.057  1.00  0.00     0.007 C 
ENDBRANCH  28  29
ENDBRANCH  27  28
ENDBRANCH  24  27
ENDBRANCH  20  21
ENDBRANCH   1  19
TORSDOF 8
ENDMDL
MODEL 4
REMARK VINA RESULT:      -7.6      3.390      6.203
REMARK  8 active torsions:
REMARK  status: ('A' for Active; 'I' for Inactive)
REMARK    1  A    between atoms: C_2  and  C_3 
REMARK    2  A    between atoms: C_3  and  O_4 
REMARK    3  A    between atoms: O_4  and  C_5 
REMARK    4  A    between atoms: C_8  and  C_9 
REMARK    5  A    between atoms: N_10  and  N_11 
REMARK       I    between atoms: N_11  and  C_12 
REMARK    6  A    between atoms: C_12  and  C_13 
REMARK    7  A    between atoms: C_17  and  C_18 
REMARK    8  A    between atoms: C_21  and  O_22 
ROOT
HETATM    1  N   UNL     1      40.219 -12.526   6.660  1.00  0.00    -0.242 N 
HETATM    2  C   UNL     1      39.252 -11.775   5.998  1.00  0.00     0.289 C 
HETATM    3  O   UNL     1      38.376 -11.213   6.656  1.00  0.00    -0.264 OA
HETATM    4  H   UNL     1      40.102 -12.594   7.666  1.00  0.00     0.192 HD
ENDROOT
BRANCH   2   5
HETATM    5  C   UNL     1      39.321 -11.709   4.557  1.00  0.00     0.121 A 
HETATM    6  N   UNL     1      39.539 -10.570   3.842  1.00  0.00    -0.272 N 
HETATM    7  H   UNL     1      39.702  -9.648   4.239  1.00  0.00     0.189 HD
HETATM    8  N   UNL     1      39.591 -10.739   2.516  1.00  0.00    -0.174 NA
HETATM    9  C   UNL     1      39.411 -12.059   2.344  1.00  0.00     0.089 A 
HETATM   10  C   UNL     1      39.196 -12.696   3.600  1.00  0.00     0.071 A 
BRANCH   9  11
HETATM   11  C   UNL     1      39.469 -12.664   1.011  1.00  0.00    -0.005 A 
HETATM   12  C   UNL     1      38.866 -12.046  -0.091  1.00  0.00     0.016 A 
HETATM   13  C   UNL     1      38.898 -12.657  -1.349  1.00  0.00     0.037 A 
HETATM   14  C   UNL     1      39.534 -13.887  -1.532  1.00  0.00     0.068 A 
HETATM   15  C   UNL     1      40.140 -14.508  -0.440  1.00  0.00     0.037 A 
HETATM   16  C   UNL     1      40.103 -13.900   0.821  1.00  0.00     0.016 A 
BRANCH  14  17
HETATM   17  O   UNL     1      39.487 -14.373  -2.809  1.00  0.00    -0.356 OA
HETATM   18  C   UNL     1      38.197 -14.515  -3.391  1.00  0.00     0.210 C 
ENDBRANCH  14  17
ENDBRANCH   9  11
ENDBRANCH   2   5
BRANCH   1  19
HETATM   19  N   UNL     1      41.071 -13.366   6.006  1.00  0.00    -0.184 NA
HETATM   20  C   UNL     1      40.778 -14.626   6.026  1.00  0.00     0.150 C 
BRANCH  20  21
HETATM   21  C   UNL     1      41.610 -15.596   5.283  1.00  0.00    -0.017 A 
HETATM   22  C   UNL     1      42.517 -16.414   5.965  1.00  0.00     0.016 A 
HETATM   23  C   UNL     1      43.311 -17.323   5.262  1.00  0.00     0.037 A 
HETATM   24  C   UNL     1      43.207 -17.418   3.875  1.00  0.00     0.068 A 
HETATM   25  C   UNL     1      42.305 -16.588   3.198  1.00  0.00     0.037 A 
HETATM   26  C   UNL     1      41.505 -15.676   3.894  1.00  0.00     0.016 A 
BRANCH  24  27
HETATM   27  O   UNL     1      43.927 -18.263   3.077  1.00  0.00    -0.351 OA
BRANCH  27  28
HETATM   28  C   UNL     1      43.179 -19.101   2.192  1.00  0.00     0.175 C 
BRANCH  28  29
HETATM   29  C   UNL     1      43.729 -20.519   2.295  1.00  0.00     0.022 C 
HETATM   30  C   UNL     1      43.848 -20.969   3.741  1.00  0.00     0.007 C 
ENDBRANCH  28  29
ENDBRANCH  27  28
ENDBRANCH  24  27
ENDBRANCH  20  21
ENDBRANCH   1  19
TORSDOF 8
ENDMDL
MODEL 5
REMARK VINA RESULT:      -7.5      2.620      7.846
REMARK  8 active torsions:
REMARK  status: ('A' for Active; 'I' for Inactive)
REMARK    1  A    between atoms: C_2  and  C_3 
REMARK    2  A    between atoms: C_3  and  O_4 
REMARK    3  A    between atoms: O_4  and  C_5 
REMARK    4  A    between atoms: C_8  and  C_9 
REMARK    5  A    between atoms: N_10  and  N_11 
REMARK       I    between atoms: N_11  and  C_12 
REMARK    6  A    between atoms: C_12  and  C_13 
REMARK    7  A    between atoms: C_17  and  C_18 
REMARK    8  A    between atoms: C_21  and  O_22 
ROOT
HETATM    1  N   UNL     1      39.066 -12.931   0.780  1.00  0.00    -0.242 N 
HETATM    2  C   UNL     1      39.836 -13.881   0.116  1.00  0.00     0.289 C 
HETATM    3  O   UNL     1      39.539 -14.192  -1.038  1.00  0.00    -0.264 OA
HETATM    4  H   UNL     1      38.264 -12.584   0.264  1.00  0.00     0.192 HD
ENDROOT
BRANCH   2   5
HETATM    5  C   UNL     1      40.943 -14.470   0.831  1.00  0.00     0.121 A 
HETATM    6  N   UNL     1      42.109 -13.826   1.122  1.00  0.00    -0.272 N 
HETATM    7  H   UNL     1      42.320 -12.859   0.892  1.00  0.00     0.189 HD
HETATM    8  N   UNL     1      42.994 -14.550   1.817  1.00  0.00    -0.174 NA
HETATM    9  C   UNL     1      42.378 -15.729   2.008  1.00  0.00     0.089 A 
HETATM   10  C   UNL     1      41.106 -15.732   1.368  1.00  0.00     0.071 A 
BRANCH   9  11
HETATM   11  C   UNL     1      43.004 -16.791   2.800  1.00  0.00    -0.005 A 
HETATM   12  C   UNL     1      43.156 -18.083   2.284  1.00  0.00     0.016 A 
HETATM   13  C   UNL     1      43.721 -19.095   3.069  1.00  0.00     0.037 A 
HETATM   14  C   UNL     1      44.148 -18.836   4.373  1.00  0.00     0.068 A 
HETATM   15  C   UNL     1      44.003 -17.550   4.893  1.00  0.00     0.037 A 
HETATM   16  C   UNL     1      43.432 -16.538   4.111  1.00  0.00     0.016 A 
BRANCH  14  17
HETATM   17  O   UNL     1      44.676 -19.914   5.028  1.00  0.00    -0.356 OA
HETATM   18  C   UNL     1      43.890 -21.099   5.045  1.00  0.00     0.210 C 
ENDBRANCH  14  17
ENDBRANCH   9  11
ENDBRANCH   2   5
BRANCH   1  19
HETATM   19  N   UNL     1      39.174 -12.706   2.121  1.00  0.00    -0.184 NA
HETATM   20  C   UNL     1      38.968 -11.495   2.528  1.00  0.00     0.150 C 
BRANCH  20  21
HETATM   21  C   UNL     1      38.996 -11.181   3.972  1.00  0.00    -0.017 A 
HETATM   22  C   UNL     1      39.430 -12.140   4.894  1.00  0.00     0.016 A 
HETATM   23  C   UNL     1      39.446 -11.848   6.259  1.00  0.00     0.037 A 
HETATM   24  C   UNL     1      39.027 -10.598   6.713  1.00  0.00     0.068 A 
HETATM   25  C   UNL     1      38.584  -9.647   5.786  1.00  0.00     0.037 A 
HETATM   26  C   UNL     1      38.566  -9.931   4.417  1.00  0.00     0.016 A 
BRANCH  24  27
HETATM   27  O   UNL     1      38.995 -10.194   8.019  1.00  0.00    -0.351 OA
BRANCH  27  28
HETATM   28  C   UNL     1      39.551  -8.907   8.305  1.00  0.00     0.175 C 
BRANCH  28  29
HETATM   29  C   UNL     1      40.806  -9.104   9.147  1.00  0.00     0.022 C 
HETATM   30  C   UNL     1      42.039  -9.286   8.281  1.00  0.00     0.007 C 
ENDBRANCH  28  29
ENDBRANCH  27  28
ENDBRANCH  24  27
ENDBRANCH  20  21
ENDBRANCH   1  19
TORSDOF 8
ENDMDL
MODEL 6
REMARK VINA RESULT:      -7.0      4.371      6.762
REMARK  8 active torsions:
REMARK  status: ('A' for Active; 'I' for Inactive)
REMARK    1  A    between atoms: C_2  and  C_3 
REMARK    2  A    between atoms: C_3  and  O_4 
REMARK    3  A    between atoms: O_4  and  C_5 
REMARK    4  A    between atoms: C_8  and  C_9 
REMARK    5  A    between atoms: N_10  and  N_11 
REMARK       I    between atoms: N_11  and  C_12 
REMARK    6  A    between atoms: C_12  and  C_13 
REMARK    7  A    between atoms: C_17  and  C_18 
REMARK    8  A    between atoms: C_21  and  O_22 
ROOT
HETATM    1  N   UNL     1      46.103 -10.364   6.655  1.00  0.00    -0.242 N 
HETATM    2  C   UNL     1      46.268  -9.670   7.851  1.00  0.00     0.289 C 
HETATM    3  O   UNL     1      47.244  -8.934   7.985  1.00  0.00    -0.264 OA
HETATM    4  H   UNL     1      46.847 -10.242   5.976  1.00  0.00     0.192 HD
ENDROOT
BRANCH   2   5
HETATM    5  C   UNL     1      45.281  -9.869   8.886  1.00  0.00     0.121 A 
HETATM    6  N   UNL     1      44.648 -11.050   9.136  1.00  0.00    -0.272 N 
HETATM    7  H   UNL     1      44.815 -11.923   8.644  1.00  0.00     0.189 HD
HETATM    8  N   UNL     1      43.787 -11.021  10.160  1.00  0.00    -0.174 NA
HETATM    9  C   UNL     1      43.862  -9.760  10.619  1.00  0.00     0.089 A 
HETATM   10  C   UNL     1      44.759  -8.996   9.819  1.00  0.00     0.071 A 
BRANCH   9  11
HETATM   11  C   UNL     1      43.106  -9.338  11.800  1.00  0.00    -0.005 A 
HETATM   12  C   UNL     1      43.525  -8.252  12.576  1.00  0.00     0.016 A 
HETATM   13  C   UNL     1      42.812  -7.886  13.724  1.00  0.00     0.037 A 
HETATM   14  C   UNL     1      41.670  -8.590  14.112  1.00  0.00     0.068 A 
HETATM   15  C   UNL     1      41.244  -9.671  13.341  1.00  0.00     0.037 A 
HETATM   16  C   UNL     1      41.960 -10.042  12.197  1.00  0.00     0.016 A 
BRANCH  14  17
HETATM   17  O   UNL     1      41.073  -8.130  15.253  1.00  0.00    -0.356 OA
HETATM   18  C   UNL     1      40.369  -6.898  15.154  1.00  0.00     0.210 C 
ENDBRANCH  14  17
ENDBRANCH   9  11
ENDBRANCH   2   5
BRANCH   1  19
HETATM   19  N   UNL     1      45.195 -11.372   6.511  1.00  0.00    -0.184 NA
HETATM   20  C   UNL     1      44.451 -11.340   5.452  1.00  0.00     0.150 C 
BRANCH  20  21
HETATM   21  C   UNL     1      43.492 -12.432   5.184  1.00  0.00    -0.017 A 
HETATM   22  C   UNL     1      43.424 -13.536   6.041  1.00  0.00     0.016 A 
HETATM   23  C   UNL     1      42.526 -14.573   5.783  1.00  0.00     0.037 A 
HETATM   24  C   UNL     1      41.691 -14.516   4.667  1.00  0.00     0.068 A 
HETATM   25  C   UNL     1      41.772 -13.413   3.808  1.00  0.00     0.037 A 
HETATM   26  C   UNL     1      42.668 -12.369   4.061  1.00  0.00     0.016 A 
BRANCH  24  27
HETATM   27  O   UNL     1      40.774 -15.465   4.307  1.00  0.00    -0.351 OA
BRANCH  27  28
HETATM   28  C   UNL     1      41.293 -16.716   3.849  1.00  0.00     0.175 C 
BRANCH  28  29
HETATM   29  C   UNL     1      41.564 -16.603   2.353  1.00  0.00     0.022 C 
HETATM   30  C   UNL     1      43.047 -16.698   2.045  1.00  0.00     0.007 C 
ENDBRANCH  28  29
ENDBRANCH  27  28
ENDBRANCH  24  27
ENDBRANCH  20  21
ENDBRANCH   1  19
TORSDOF 8
ENDMDL
MODEL 7
REMARK VINA RESULT:      -7.0      3.234      6.054
REMARK  8 active torsions:
REMARK  status: ('A' for Active; 'I' for Inactive)
REMARK    1  A    between atoms: C_2  and  C_3 
REMARK    2  A    between atoms: C_3  and  O_4 
REMARK    3  A    between atoms: O_4  and  C_5 
REMARK    4  A    between atoms: C_8  and  C_9 
REMARK    5  A    between atoms: N_10  and  N_11 
REMARK       I    between atoms: N_11  and  C_12 
REMARK    6  A    between atoms: C_12  and  C_13 
REMARK    7  A    between atoms: C_17  and  C_18 
REMARK    8  A    between atoms: C_21  and  O_22 
ROOT
HETATM    1  N   UNL     1      40.552 -12.707   6.455  1.00  0.00    -0.242 N 
HETATM    2  C   UNL     1      39.539 -12.166   5.669  1.00  0.00     0.289 C 
HETATM    3  O   UNL     1      38.656 -11.499   6.207  1.00  0.00    -0.264 OA
HETATM    4  H   UNL     1      40.462 -12.544   7.453  1.00  0.00     0.192 HD
ENDROOT
BRANCH   2   5
HETATM    5  C   UNL     1      39.573 -12.434   4.250  1.00  0.00     0.121 A 
HETATM    6  N   UNL     1      39.311 -13.646   3.685  1.00  0.00    -0.272 N 
HETATM    7  H   UNL     1      39.042 -14.486   4.190  1.00  0.00     0.189 HD
HETATM    8  N   UNL     1      39.373 -13.668   2.348  1.00  0.00    -0.174 NA
HETATM    9  C   UNL     1      39.678 -12.404   2.011  1.00  0.00     0.089 A 
HETATM   10  C   UNL     1      39.852 -11.608   3.179  1.00  0.00     0.071 A 
BRANCH   9  11
HETATM   11  C   UNL     1      39.770 -11.996   0.607  1.00  0.00    -0.005 A 
HETATM   12  C   UNL     1      40.433 -10.820   0.238  1.00  0.00     0.016 A 
HETATM   13  C   UNL     1      40.478 -10.425  -1.104  1.00  0.00     0.037 A 
HETATM   14  C   UNL     1      39.871 -11.196  -2.098  1.00  0.00     0.068 A 
HETATM   15  C   UNL     1      39.212 -12.371  -1.739  1.00  0.00     0.037 A 
HETATM   16  C   UNL     1      39.161 -12.764  -0.396  1.00  0.00     0.016 A 
BRANCH  14  17
HETATM   17  O   UNL     1      39.988 -10.693  -3.364  1.00  0.00    -0.356 OA
HETATM   18  C   UNL     1      40.499  -9.371  -3.482  1.00  0.00     0.210 C 
ENDBRANCH  14  17
ENDBRANCH   9  11
ENDBRANCH   2   5
BRANCH   1  19
HETATM   19  N   UNL     1      41.424 -13.645   5.985  1.00  0.00    -0.184 NA
HETATM   20  C   UNL     1      41.265 -14.856   6.413  1.00  0.00     0.150 C 
BRANCH  20  21
HETATM   21  C   UNL     1      42.122 -15.945   5.900  1.00  0.00    -0.017 A 
HETATM   22  C   UNL     1      42.342 -16.080   4.524  1.00  0.00     0.016 A 
HETATM   23  C   UNL     1      43.143 -17.115   4.038  1.00  0.00     0.037 A 
HETATM   24  C   UNL     1      43.727 -18.023   4.920  1.00  0.00     0.068 A 
HETATM   25  C   UNL     1      43.494 -17.889   6.294  1.00  0.00     0.037 A 
HETATM   26  C   UNL     1      42.694 -16.854   6.790  1.00  0.00     0.016 A 
BRANCH  24  27
HETATM   27  O   UNL     1      44.527 -19.075   4.568  1.00  0.00    -0.351 OA
BRANCH  27  28
HETATM   28  C   UNL     1      44.674 -19.327   3.168  1.00  0.00     0.175 C 
BRANCH  28  29
HETATM   29  C   UNL     1      43.826 -20.541   2.808  1.00  0.00     0.022 C 
HETATM   30  C   UNL     1      42.689 -20.171   1.872  1.00  0.00     0.007 C 
ENDBRANCH  28  29
ENDBRANCH  27  28
ENDBRANCH  24  27
ENDBRANCH  20  21
ENDBRANCH   1  19
TORSDOF 8
ENDMDL
MODEL 8
REMARK VINA RESULT:      -6.9      2.695      8.346
REMARK  8 active torsions:
REMARK  status: ('A' for Active; 'I' for Inactive)
REMARK    1  A    between atoms: C_2  and  C_3 
REMARK    2  A    between atoms: C_3  and  O_4 
REMARK    3  A    between atoms: O_4  and  C_5 
REMARK    4  A    between atoms: C_8  and  C_9 
REMARK    5  A    between atoms: N_10  and  N_11 
REMARK       I    between atoms: N_11  and  C_12 
REMARK    6  A    between atoms: C_12  and  C_13 
REMARK    7  A    between atoms: C_17  and  C_18 
REMARK    8  A    between atoms: C_21  and  O_22 
ROOT
HETATM    1  N   UNL     1      43.480 -16.641   3.947  1.00  0.00    -0.242 N 
HETATM    2  C   UNL     1      42.715 -17.183   2.917  1.00  0.00     0.289 C 
HETATM    3  O   UNL     1      42.963 -18.323   2.525  1.00  0.00    -0.264 OA
HETATM    4  H   UNL     1      44.238 -17.227   4.279  1.00  0.00     0.192 HD
ENDROOT
BRANCH   2   5
HETATM    5  C   UNL     1      41.673 -16.362   2.349  1.00  0.00     0.121 A 
HETATM    6  N   UNL     1      40.499 -16.058   2.972  1.00  0.00    -0.272 N 
HETATM    7  H   UNL     1      40.237 -16.351   3.908  1.00  0.00     0.189 HD
HETATM    8  N   UNL     1      39.683 -15.259   2.274  1.00  0.00    -0.174 NA
HETATM    9  C   UNL     1      40.355 -15.011   1.138  1.00  0.00     0.089 A 
HETATM   10  C   UNL     1      41.591 -15.719   1.129  1.00  0.00     0.071 A 
BRANCH   9  11
HETATM   11  C   UNL     1      39.816 -14.103   0.122  1.00  0.00    -0.005 A 
HETATM   12  C   UNL     1      39.599 -12.750   0.403  1.00  0.00     0.016 A 
HETATM   13  C   UNL     1      39.047 -11.906  -0.567  1.00  0.00     0.037 A 
HETATM   14  C   UNL     1      38.709 -12.393  -1.832  1.00  0.00     0.068 A 
HETATM   15  C   UNL     1      38.925 -13.740  -2.121  1.00  0.00     0.037 A 
HETATM   16  C   UNL     1      39.471 -14.587  -1.149  1.00  0.00     0.016 A 
BRANCH  14  17
HETATM   17  O   UNL     1      38.175 -11.463  -2.680  1.00  0.00    -0.356 OA
HETATM   18  C   UNL     1      37.257 -10.536  -2.116  1.00  0.00     0.210 C 
ENDBRANCH  14  17
ENDBRANCH   9  11
ENDBRANCH   2   5
BRANCH   1  19
HETATM   19  N   UNL     1      43.434 -15.318   4.276  1.00  0.00    -0.184 NA
HETATM   20  C   UNL     1      43.158 -15.032   5.507  1.00  0.00     0.150 C 
BRANCH  20  21
HETATM   21  C   UNL     1      43.158 -13.626   5.963  1.00  0.00    -0.017 A 
HETATM   22  C   UNL     1      42.400 -12.665   5.284  1.00  0.00     0.016 A 
HETATM   23  C   UNL     1      42.409 -11.335   5.707  1.00  0.00     0.037 A 
HETATM   24  C   UNL     1      43.175 -10.954   6.808  1.00  0.00     0.068 A 
HETATM   25  C   UNL     1      43.940 -11.918   7.475  1.00  0.00     0.037 A 
HETATM   26  C   UNL     1      43.936 -13.254   7.059  1.00  0.00     0.016 A 
BRANCH  24  27
HETATM   27  O   UNL     1      43.267  -9.688   7.316  1.00  0.00    -0.351 OA
BRANCH  27  28
HETATM   28  C   UNL     1      43.841  -9.561   8.620  1.00  0.00     0.175 C 
BRANCH  28  29
HETATM   29  C   UNL     1      44.976  -8.546   8.548  1.00  0.00     0.022 C 
HETATM   30  C   UNL     1      46.277  -9.192   8.106  1.00  0.00     0.007 C 
ENDBRANCH  28  29
ENDBRANCH  27  28
ENDBRANCH  24  27
ENDBRANCH  20  21
ENDBRANCH   1  19
TORSDOF 8
ENDMDL
MODEL 9
REMARK VINA RESULT:      -6.9      2.511      3.126
REMARK  8 active torsions:
REMARK  status: ('A' for Active; 'I' for Inactive)
REMARK    1  A    between atoms: C_2  and  C_3 
REMARK    2  A    between atoms: C_3  and  O_4 
REMARK    3  A    between atoms: O_4  and  C_5 
REMARK    4  A    between atoms: C_8  and  C_9 
REMARK    5  A    between atoms: N_10  and  N_11 
REMARK       I    between atoms: N_11  and  C_12 
REMARK    6  A    between atoms: C_12  and  C_13 
REMARK    7  A    between atoms: C_17  and  C_18 
REMARK    8  A    between atoms: C_21  and  O_22 
ROOT
HETATM    1  N   UNL     1      41.397 -11.511   2.812  1.00  0.00    -0.242 N 
HETATM    2  C   UNL     1      41.564 -10.330   3.530  1.00  0.00     0.289 C 
HETATM    3  O   UNL     1      41.195  -9.269   3.029  1.00  0.00    -0.264 OA
HETATM    4  H   UNL     1      41.010 -11.402   1.880  1.00  0.00     0.192 HD
ENDROOT
BRANCH   2   5
HETATM    5  C   UNL     1      42.186 -10.416   4.830  1.00  0.00     0.121 A 
HETATM    6  N   UNL     1      43.407 -10.972   5.070  1.00  0.00    -0.272 N 
HETATM    7  H   UNL     1      44.024 -11.364   4.365  1.00  0.00     0.189 HD
HETATM    8  N   UNL     1      43.806 -10.924   6.347  1.00  0.00    -0.174 NA
HETATM    9  C   UNL     1      42.805 -10.292   6.982  1.00  0.00     0.089 A 
HETATM   10  C   UNL     1      41.751  -9.994   6.071  1.00  0.00     0.071 A 
BRANCH   9  11
HETATM   11  C   UNL     1      42.892  -9.978   8.410  1.00  0.00    -0.005 A 
HETATM   12  C   UNL     1      43.972 -10.420   9.183  1.00  0.00     0.016 A 
HETATM   13  C   UNL     1      44.020 -10.145  10.554  1.00  0.00     0.037 A 
HETATM   14  C   UNL     1      43.000  -9.421  11.175  1.00  0.00     0.068 A 
HETATM   15  C   UNL     1      41.922  -8.974  10.412  1.00  0.00     0.037 A 
HETATM   16  C   UNL     1      41.870  -9.255   9.041  1.00  0.00     0.016 A 
BRANCH  14  17
HETATM   17  O   UNL     1      43.171  -9.227  12.518  1.00  0.00    -0.356 OA
HETATM   18  C   UNL     1      43.193  -7.880  12.971  1.00  0.00     0.210 C 
ENDBRANCH  14  17
ENDBRANCH   9  11
ENDBRANCH   2   5
BRANCH   1  19
HETATM   19  N   UNL     1      41.987 -12.684   3.181  1.00  0.00    -0.184 NA
HETATM   20  C   UNL     1      41.580 -13.757   2.582  1.00  0.00     0.150 C 
BRANCH  20  21
HETATM   21  C   UNL     1      42.216 -15.059   2.872  1.00  0.00    -0.017 A 
HETATM   22  C   UNL     1      42.032 -16.142   2.005  1.00  0.00     0.016 A 
HETATM   23  C   UNL     1      42.624 -17.375   2.285  1.00  0.00     0.037 A 
HETATM   24  C   UNL     1      43.401 -17.536   3.431  1.00  0.00     0.068 A 
HETATM   25  C   UNL     1      43.573 -16.450   4.300  1.00  0.00     0.037 A 
HETATM   26  C   UNL     1      42.984 -15.211   4.026  1.00  0.00     0.016 A 
BRANCH  24  27
HETATM   27  O   UNL     1      44.030 -18.688   3.813  1.00  0.00    -0.351 OA
BRANCH  27  28
HETATM   28  C   UNL     1      43.851 -19.827   2.967  1.00  0.00     0.175 C 
BRANCH  28  29
HETATM   29  C   UNL     1      43.871 -21.078   3.836  1.00  0.00     0.022 C 
HETATM   30  C   UNL     1      44.036 -20.736   5.306  1.00  0.00     0.007 C 
ENDBRANCH  28  29
ENDBRANCH  27  28
ENDBRANCH  24  27
ENDBRANCH  20  21
ENDBRANCH   1  19
TORSDOF 8
ENDMDL
MODEL 10
REMARK VINA RESULT:      -6.8     16.089     19.680
REMARK  8 active torsions:
REMARK  status: ('A' for Active; 'I' for Inactive)
REMARK    1  A    between atoms: C_2  and  C_3 
REMARK    2  A    between atoms: C_3  and  O_4 
REMARK    3  A    between atoms: O_4  and  C_5 
REMARK    4  A    between atoms: C_8  and  C_9 
REMARK    5  A    between atoms: N_10  and  N_11 
REMARK       I    between atoms: N_11  and  C_12 
REMARK    6  A    between atoms: C_12  and  C_13 
REMARK    7  A    between atoms: C_17  and  C_18 
REMARK    8  A    between atoms: C_21  and  O_22 
ROOT
HETATM    1  N   UNL     1      48.066 -29.486   3.429  1.00  0.00    -0.242 N 
HETATM    2  C   UNL     1      49.341 -30.020   3.594  1.00  0.00     0.289 C 
HETATM    3  O   UNL     1      49.961 -29.780   4.629  1.00  0.00    -0.264 OA
HETATM    4  H   UNL     1      47.749 -28.882   4.180  1.00  0.00     0.192 HD
ENDROOT
BRANCH   2   5
HETATM    5  C   UNL     1      49.879 -30.822   2.520  1.00  0.00     0.121 A 
HETATM    6  N   UNL     1      49.518 -32.111   2.260  1.00  0.00    -0.272 N 
HETATM    7  H   UNL     1      48.819 -32.641   2.772  1.00  0.00     0.189 HD
HETATM    8  N   UNL     1      50.122 -32.661   1.200  1.00  0.00    -0.174 NA
HETATM    9  C   UNL     1      50.912 -31.683   0.726  1.00  0.00     0.089 A 
HETATM   10  C   UNL     1      50.818 -30.527   1.552  1.00  0.00     0.071 A 
BRANCH   9  11
HETATM   11  C   UNL     1      51.702 -31.872  -0.493  1.00  0.00    -0.005 A 
HETATM   12  C   UNL     1      52.722 -32.828  -0.552  1.00  0.00     0.016 A 
HETATM   13  C   UNL     1      53.493 -32.968  -1.712  1.00  0.00     0.037 A 
HETATM   14  C   UNL     1      53.257 -32.165  -2.830  1.00  0.00     0.068 A 
HETATM   15  C   UNL     1      52.240 -31.213  -2.780  1.00  0.00     0.037 A 
HETATM   16  C   UNL     1      51.472 -31.068  -1.619  1.00  0.00     0.016 A 
BRANCH  14  17
HETATM   17  O   UNL     1      54.085 -32.404  -3.892  1.00  0.00    -0.356 OA
HETATM   18  C   UNL     1      55.206 -33.246  -3.652  1.00  0.00     0.210 C 
ENDBRANCH  14  17
ENDBRANCH   9  11
ENDBRANCH   2   5
BRANCH   1  19
HETATM   19  N   UNL     1      47.414 -29.501   2.232  1.00  0.00    -0.184 NA
HETATM   20  C   UNL     1      47.318 -28.373   1.605  1.00  0.00     0.150 C 
BRANCH  20  21
HETATM   21  C   UNL     1      46.688 -28.315   0.269  1.00  0.00    -0.017 A 
HETATM   22  C   UNL     1      45.319 -28.567   0.124  1.00  0.00     0.016 A 
HETATM   23  C   UNL     1      44.726 -28.523  -1.139  1.00  0.00     0.037 A 
HETATM   24  C   UNL     1      45.494 -28.231  -2.265  1.00  0.00     0.068 A 
HETATM   25  C   UNL     1      46.866 -27.990  -2.114  1.00  0.00     0.037 A 
HETATM   26  C   UNL     1      47.468 -28.031  -0.852  1.00  0.00     0.016 A 
BRANCH  24  27
HETATM   27  O   UNL     1      45.032 -28.159  -3.550  1.00  0.00    -0.351 OA
BRANCH  27  28
HETATM   28  C   UNL     1      44.103 -29.169  -3.953  1.00  0.00     0.175 C 
BRANCH  28  29
HETATM   29  C   UNL     1      44.850 -30.200  -4.791  1.00  0.00     0.022 C 
HETATM   30  C   UNL     1      43.963 -30.791  -5.872  1.00  0.00     0.007 C 
ENDBRANCH  28  29
ENDBRANCH  27  28
ENDBRANCH  24  27
ENDBRANCH  20  21
ENDBRANCH   1  19
TORSDOF 8
ENDMDL
