MODEL 1
REMARK VINA RESULT:      -9.7      0.000      0.000
REMARK  8 active torsions:
REMARK  status: ('A' for Active; 'I' for Inactive)
REMARK    1  A    between atoms: C_6  and  N_7 
REMARK       I    between atoms: N_7  and  C_8 
REMARK    2  A    between atoms: C_8  and  C_9 
REMARK    3  A    between atoms: C_9  and  S_10 
REMARK    4  A    between atoms: S_10  and  C_11 
REMARK    5  A    between atoms: N_12  and  C_13 
REMARK    6  A    between atoms: C_13  and  C_14 
REMARK    7  A    between atoms: C_14  and  C_15 
REMARK       I    between atoms: C_15  and  N_16 
REMARK    8  A    between atoms: N_16  and  C_17 
ROOT
HETATM    1  C   UNL     1      41.889 -11.148   6.394  1.00  0.00     0.172 A 
HETATM    2  N   UNL     1      41.432 -10.015   7.042  1.00  0.00    -0.292 N 
HETATM    3  C   UNL     1      42.345  -9.147   7.648  1.00  0.00     0.262 A 
HETATM    4  O   UNL     1      42.036  -8.067   8.148  1.00  0.00    -0.267 OA
HETATM    5  C   UNL     1      43.754  -9.563   7.660  1.00  0.00     0.061 A 
HETATM    6  C   UNL     1      44.083 -10.741   6.999  1.00  0.00     0.075 A 
HETATM    7  C   UNL     1      44.723  -8.812   8.335  1.00  0.00     0.019 A 
HETATM    8  C   UNL     1      46.043  -9.258   8.361  1.00  0.00     0.001 A 
HETATM    9  C   UNL     1      46.383 -10.449   7.724  1.00  0.00     0.002 A 
HETATM   10  C   UNL     1      45.405 -11.187   7.049  1.00  0.00     0.032 A 
HETATM   11  N   UNL     1      43.130 -11.500   6.307  1.00  0.00    -0.224 NA
ENDROOT
BRANCH   1  12
HETATM   12  S   UNL     1      40.749 -12.217   5.614  1.00  0.00    -0.082 SA
BRANCH  12  13
HETATM   13  C   UNL     1      41.832 -12.953   4.376  1.00  0.00     0.185 C 
BRANCH  13  14
HETATM   14  C   UNL     1      41.780 -14.470   4.357  1.00  0.00     0.231 C 
HETATM   15  N   UNL     1      43.017 -15.072   4.209  1.00  0.00    -0.326 N 
HETATM   16  H   UNL     1      43.829 -14.520   4.490  1.00  0.00     0.169 HD
HETATM   17  O   UNL     1      40.697 -15.050   4.360  1.00  0.00    -0.272 OA
BRANCH  15  18
HETATM   18  C   UNL     1      43.276 -16.384   3.758  1.00  0.00     0.036 A 
HETATM   19  C   UNL     1      43.677 -17.430   4.591  1.00  0.00     0.053 A 
HETATM   20  C   UNL     1      43.826 -18.727   4.080  1.00  0.00     0.042 A 
HETATM   21  C   UNL     1      43.585 -19.001   2.726  1.00  0.00    -0.040 A 
HETATM   22 CL   UNL     1      44.287 -19.979   5.181  1.00  0.00    -0.084 Cl
HETATM   23  C   UNL     1      43.690 -20.389   2.162  1.00  0.00     0.050 C 
HETATM   24  C   UNL     1      43.192 -17.945   1.895  1.00  0.00     0.011 A 
HETATM   25  C   UNL     1      43.042 -16.653   2.407  1.00  0.00     0.030 A 
ENDBRANCH  15  18
ENDBRANCH  13  14
ENDBRANCH  12  13
ENDBRANCH   1  12
BRANCH   2  26
HETATM   26  C   UNL     1      40.023  -9.590   7.114  1.00  0.00     0.144 C 
BRANCH  26  27
HETATM   27  C   UNL     1      39.258 -10.322   8.220  1.00  0.00     0.123 C 
BRANCH  27  28
HETATM   28  C   UNL     1      39.203  -9.467   9.465  1.00  0.00     0.219 C 
HETATM   29  N   UNL     1      40.215  -9.729  10.362  1.00  0.00    -0.356 N 
HETATM   30  H   UNL     1      40.953 -10.371  10.101  1.00  0.00     0.162 HD
HETATM   31  O   UNL     1      38.347  -8.605   9.638  1.00  0.00    -0.274 OA
BRANCH  29  32
HETATM   32  C   UNL     1      40.321  -9.029  11.638  1.00  0.00     0.084 C 
HETATM   33  C   UNL     1      40.913  -9.944  12.718  1.00  0.00     0.025 C 
HETATM   34  C   UNL     1      42.416 -10.172  12.553  1.00  0.00     0.002 C 
HETATM   35  C   UNL     1      43.175  -8.854  12.449  1.00  0.00     0.000 C 
HETATM   36  C   UNL     1      42.622  -7.976  11.331  1.00  0.00     0.002 C 
HETATM   37  C   UNL     1      41.125  -7.729  11.500  1.00  0.00     0.025 C 
ENDBRANCH  29  32
ENDBRANCH  27  28
ENDBRANCH  26  27
ENDBRANCH   2  26
TORSDOF 8
ENDMDL
MODEL 2
REMARK VINA RESULT:      -9.6      4.001      6.742
REMARK  8 active torsions:
REMARK  status: ('A' for Active; 'I' for Inactive)
REMARK    1  A    between atoms: C_6  and  N_7 
REMARK       I    between atoms: N_7  and  C_8 
REMARK    2  A    between atoms: C_8  and  C_9 
REMARK    3  A    between atoms: C_9  and  S_10 
REMARK    4  A    between atoms: S_10  and  C_11 
REMARK    5  A    between atoms: N_12  and  C_13 
REMARK    6  A    between atoms: C_13  and  C_14 
REMARK    7  A    between atoms: C_14  and  C_15 
REMARK       I    between atoms: C_15  and  N_16 
REMARK    8  A    between atoms: N_16  and  C_17 
ROOT
HETATM    1  C   UNL     1      42.122 -14.422   4.451  1.00  0.00     0.172 A 
HETATM    2  N   UNL     1      42.868 -14.749   5.569  1.00  0.00    -0.292 N 
HETATM    3  C   UNL     1      43.619 -15.927   5.584  1.00  0.00     0.262 A 
HETATM    4  O   UNL     1      44.391 -16.237   6.488  1.00  0.00    -0.267 OA
HETATM    5  C   UNL     1      43.474 -16.824   4.429  1.00  0.00     0.061 A 
HETATM    6  C   UNL     1      42.671 -16.396   3.378  1.00  0.00     0.075 A 
HETATM    7  C   UNL     1      44.104 -18.074   4.401  1.00  0.00     0.019 A 
HETATM    8  C   UNL     1      43.911 -18.916   3.308  1.00  0.00     0.001 A 
HETATM    9  C   UNL     1      43.089 -18.511   2.259  1.00  0.00     0.002 A 
HETATM   10  C   UNL     1      42.469 -17.257   2.298  1.00  0.00     0.032 A 
HETATM   11  N   UNL     1      42.042 -15.144   3.381  1.00  0.00    -0.224 NA
ENDROOT
BRANCH   1  12
HETATM   12  S   UNL     1      41.206 -12.936   4.425  1.00  0.00    -0.082 SA
BRANCH  12  13
HETATM   13  C   UNL     1      42.132 -12.038   3.167  1.00  0.00     0.185 C 
BRANCH  13  14
HETATM   14  C   UNL     1      41.380 -11.889   1.857  1.00  0.00     0.231 C 
HETATM   15  N   UNL     1      40.343 -12.791   1.700  1.00  0.00    -0.326 N 
HETATM   16  H   UNL     1      39.951 -13.188   2.555  1.00  0.00     0.169 HD
HETATM   17  O   UNL     1      41.776 -11.097   1.006  1.00  0.00    -0.272 OA
BRANCH  15  18
HETATM   18  C   UNL     1      39.734 -13.183   0.489  1.00  0.00     0.036 A 
HETATM   19  C   UNL     1      38.907 -12.357  -0.272  1.00  0.00     0.053 A 
HETATM   20  C   UNL     1      38.414 -12.791  -1.511  1.00  0.00     0.042 A 
HETATM   21  C   UNL     1      38.732 -14.063  -2.008  1.00  0.00    -0.040 A 
HETATM   22 CL   UNL     1      37.426 -11.696  -2.415  1.00  0.00    -0.084 Cl
HETATM   23  C   UNL     1      38.258 -14.537  -3.352  1.00  0.00     0.050 C 
HETATM   24  C   UNL     1      39.555 -14.890  -1.234  1.00  0.00     0.011 A 
HETATM   25  C   UNL     1      40.048 -14.454  -0.001  1.00  0.00     0.030 A 
ENDBRANCH  15  18
ENDBRANCH  13  14
ENDBRANCH  12  13
ENDBRANCH   1  12
BRANCH   2  26
HETATM   26  C   UNL     1      42.991 -13.914   6.778  1.00  0.00     0.144 C 
BRANCH  26  27
HETATM   27  C   UNL     1      44.288 -13.100   6.784  1.00  0.00     0.123 C 
BRANCH  27  28
HETATM   28  C   UNL     1      43.975 -11.625   6.876  1.00  0.00     0.219 C 
HETATM   29  N   UNL     1      43.749 -11.186   8.163  1.00  0.00    -0.356 N 
HETATM   30  H   UNL     1      43.900 -11.822   8.935  1.00  0.00     0.162 HD
HETATM   31  O   UNL     1      43.952 -10.891   5.893  1.00  0.00    -0.274 OA
BRANCH  29  32
HETATM   32  C   UNL     1      43.404  -9.800   8.459  1.00  0.00     0.084 C 
HETATM   33  C   UNL     1      42.343  -9.724   9.565  1.00  0.00     0.025 C 
HETATM   34  C   UNL     1      42.903 -10.034  10.954  1.00  0.00     0.002 C 
HETATM   35  C   UNL     1      44.119  -9.173  11.276  1.00  0.00     0.000 C 
HETATM   36  C   UNL     1      45.196  -9.302  10.203  1.00  0.00     0.002 C 
HETATM   37  C   UNL     1      44.648  -8.975   8.816  1.00  0.00     0.025 C 
ENDBRANCH  29  32
ENDBRANCH  27  28
ENDBRANCH  26  27
ENDBRANCH   2  26
TORSDOF 8
ENDMDL
MODEL 3
REMARK VINA RESULT:      -9.5      2.382      5.898
REMARK  8 active torsions:
REMARK  status: ('A' for Active; 'I' for Inactive)
REMARK    1  A    between atoms: C_6  and  N_7 
REMARK       I    between atoms: N_7  and  C_8 
REMARK    2  A    between atoms: C_8  and  C_9 
REMARK    3  A    between atoms: C_9  and  S_10 
REMARK    4  A    between atoms: S_10  and  C_11 
REMARK    5  A    between atoms: N_12  and  C_13 
REMARK    6  A    between atoms: C_13  and  C_14 
REMARK    7  A    between atoms: C_14  and  C_15 
REMARK       I    between atoms: C_15  and  N_16 
REMARK    8  A    between atoms: N_16  and  C_17 
ROOT
HETATM    1  C   UNL     1      43.695 -11.849   7.151  1.00  0.00     0.172 A 
HETATM    2  N   UNL     1      42.785 -10.990   6.561  1.00  0.00    -0.292 N 
HETATM    3  C   UNL     1      42.520  -9.750   7.147  1.00  0.00     0.262 A 
HETATM    4  O   UNL     1      41.812  -8.886   6.634  1.00  0.00    -0.267 OA
HETATM    5  C   UNL     1      43.152  -9.477   8.445  1.00  0.00     0.061 A 
HETATM    6  C   UNL     1      44.027 -10.433   8.949  1.00  0.00     0.075 A 
HETATM    7  C   UNL     1      42.864  -8.307   9.157  1.00  0.00     0.019 A 
HETATM    8  C   UNL     1      43.450  -8.100  10.404  1.00  0.00     0.001 A 
HETATM    9  C   UNL     1      44.309  -9.061  10.933  1.00  0.00     0.002 A 
HETATM   10  C   UNL     1      44.591 -10.223  10.208  1.00  0.00     0.032 A 
HETATM   11  N   UNL     1      44.338 -11.604   8.246  1.00  0.00    -0.224 NA
ENDROOT
BRANCH   1  12
HETATM   12  S   UNL     1      44.044 -13.387   6.402  1.00  0.00    -0.082 SA
BRANCH  12  13
HETATM   13  C   UNL     1      42.943 -14.441   7.364  1.00  0.00     0.185 C 
BRANCH  13  14
HETATM   14  C   UNL     1      42.798 -15.840   6.794  1.00  0.00     0.231 C 
HETATM   15  N   UNL     1      43.852 -16.228   5.986  1.00  0.00    -0.326 N 
HETATM   16  H   UNL     1      44.740 -15.749   6.134  1.00  0.00     0.169 HD
HETATM   17  O   UNL     1      41.762 -16.476   6.976  1.00  0.00    -0.272 OA
BRANCH  15  18
HETATM   18  C   UNL     1      43.845 -17.250   5.012  1.00  0.00     0.036 A 
HETATM   19  C   UNL     1      44.088 -18.596   5.291  1.00  0.00     0.053 A 
HETATM   20  C   UNL     1      43.973 -19.562   4.283  1.00  0.00     0.042 A 
HETATM   21  C   UNL     1      43.620 -19.202   2.975  1.00  0.00    -0.040 A 
HETATM   22 CL   UNL     1      44.252 -21.214   4.714  1.00  0.00    -0.084 Cl
HETATM   23  C   UNL     1      43.443 -20.221   1.886  1.00  0.00     0.050 C 
HETATM   24  C   UNL     1      43.387 -17.849   2.700  1.00  0.00     0.011 A 
HETATM   25  C   UNL     1      43.499 -16.887   3.708  1.00  0.00     0.030 A 
ENDBRANCH  15  18
ENDBRANCH  13  14
ENDBRANCH  12  13
ENDBRANCH   1  12
BRANCH   2  26
HETATM   26  C   UNL     1      42.075 -11.248   5.295  1.00  0.00     0.144 C 
BRANCH  26  27
HETATM   27  C   UNL     1      42.959 -10.974   4.075  1.00  0.00     0.123 C 
BRANCH  27  28
HETATM   28  C   UNL     1      42.181 -11.225   2.804  1.00  0.00     0.219 C 
HETATM   29  N   UNL     1      41.338 -12.313   2.877  1.00  0.00    -0.356 N 
HETATM   30  H   UNL     1      41.222 -12.789   3.762  1.00  0.00     0.162 HD
HETATM   31  O   UNL     1      42.280 -10.506   1.815  1.00  0.00    -0.274 OA
BRANCH  29  32
HETATM   32  C   UNL     1      40.522 -12.737   1.744  1.00  0.00     0.084 C 
HETATM   33  C   UNL     1      41.369 -13.496   0.713  1.00  0.00     0.025 C 
HETATM   34  C   UNL     1      41.738 -14.909   1.164  1.00  0.00     0.002 C 
HETATM   35  C   UNL     1      40.507 -15.706   1.581  1.00  0.00     0.000 C 
HETATM   36  C   UNL     1      39.705 -14.975   2.653  1.00  0.00     0.002 C 
HETATM   37  C   UNL     1      39.316 -13.569   2.202  1.00  0.00     0.025 C 
ENDBRANCH  29  32
ENDBRANCH  27  28
ENDBRANCH  26  27
ENDBRANCH   2  26
TORSDOF 8
ENDMDL
MODEL 4
REMARK VINA RESULT:      -9.3      4.419      7.549
REMARK  8 active torsions:
REMARK  status: ('A' for Active; 'I' for Inactive)
REMARK    1  A    between atoms: C_6  and  N_7 
REMARK       I    between atoms: N_7  and  C_8 
REMARK    2  A    between atoms: C_8  and  C_9 
REMARK    3  A    between atoms: C_9  and  S_10 
REMARK    4  A    between atoms: S_10  and  C_11 
REMARK    5  A    between atoms: N_12  and  C_13 
REMARK    6  A    between atoms: C_13  and  C_14 
REMARK    7  A    between atoms: C_14  and  C_15 
REMARK       I    between atoms: C_15  and  N_16 
REMARK    8  A    between atoms: N_16  and  C_17 
ROOT
HETATM    1  C   UNL     1      42.873 -15.813   3.999  1.00  0.00     0.172 A 
HETATM    2  N   UNL     1      42.935 -15.893   5.379  1.00  0.00    -0.292 N 
HETATM    3  C   UNL     1      43.354 -17.079   5.988  1.00  0.00     0.262 A 
HETATM    4  O   UNL     1      43.542 -17.200   7.196  1.00  0.00    -0.267 OA
HETATM    5  C   UNL     1      43.596 -18.231   5.108  1.00  0.00     0.061 A 
HETATM    6  C   UNL     1      43.472 -18.032   3.738  1.00  0.00     0.075 A 
HETATM    7  C   UNL     1      43.916 -19.487   5.635  1.00  0.00     0.019 A 
HETATM    8  C   UNL     1      44.099 -20.567   4.774  1.00  0.00     0.001 A 
HETATM    9  C   UNL     1      43.953 -20.389   3.400  1.00  0.00     0.002 A 
HETATM   10  C   UNL     1      43.637 -19.126   2.887  1.00  0.00     0.032 A 
HETATM   11  N   UNL     1      43.165 -16.780   3.190  1.00  0.00    -0.224 NA
ENDROOT
BRANCH   1  12
HETATM   12  S   UNL     1      42.375 -14.322   3.240  1.00  0.00    -0.082 SA
BRANCH  12  13
HETATM   13  C   UNL     1      42.415 -14.840   1.515  1.00  0.00     0.185 C 
BRANCH  13  14
HETATM   14  C   UNL     1      41.038 -14.943   0.884  1.00  0.00     0.231 C 
HETATM   15  N   UNL     1      40.923 -14.279  -0.324  1.00  0.00    -0.326 N 
HETATM   16  H   UNL     1      41.789 -14.117  -0.839  1.00  0.00     0.169 HD
HETATM   17  O   UNL     1      40.119 -15.484   1.495  1.00  0.00    -0.272 OA
BRANCH  15  18
HETATM   18  C   UNL     1      39.733 -13.844  -0.945  1.00  0.00     0.036 A 
HETATM   19  C   UNL     1      39.041 -12.687  -0.584  1.00  0.00     0.053 A 
HETATM   20  C   UNL     1      37.915 -12.276  -1.311  1.00  0.00     0.042 A 
HETATM   21  C   UNL     1      37.455 -13.018  -2.407  1.00  0.00    -0.040 A 
HETATM   22 CL   UNL     1      37.134 -10.811  -0.827  1.00  0.00    -0.084 Cl
HETATM   23  C   UNL     1      36.280 -12.576  -3.233  1.00  0.00     0.050 C 
HETATM   24  C   UNL     1      38.147 -14.182  -2.759  1.00  0.00     0.011 A 
HETATM   25  C   UNL     1      39.271 -14.590  -2.034  1.00  0.00     0.030 A 
ENDBRANCH  15  18
ENDBRANCH  13  14
ENDBRANCH  12  13
ENDBRANCH   1  12
BRANCH   2  26
HETATM   26  C   UNL     1      42.638 -14.786   6.305  1.00  0.00     0.144 C 
BRANCH  26  27
HETATM   27  C   UNL     1      43.902 -14.029   6.721  1.00  0.00     0.123 C 
BRANCH  27  28
HETATM   28  C   UNL     1      43.680 -12.539   6.597  1.00  0.00     0.219 C 
HETATM   29  N   UNL     1      44.390 -11.796   7.514  1.00  0.00    -0.356 N 
HETATM   30  H   UNL     1      45.060 -12.260   8.115  1.00  0.00     0.162 HD
HETATM   31  O   UNL     1      42.952 -12.048   5.740  1.00  0.00    -0.274 OA
BRANCH  29  32
HETATM   32  C   UNL     1      44.290 -10.342   7.576  1.00  0.00     0.084 C 
HETATM   33  C   UNL     1      43.087  -9.912   8.426  1.00  0.00     0.025 C 
HETATM   34  C   UNL     1      43.313 -10.106   9.926  1.00  0.00     0.002 C 
HETATM   35  C   UNL     1      44.602  -9.438  10.391  1.00  0.00     0.000 C 
HETATM   36  C   UNL     1      45.804  -9.919   9.584  1.00  0.00     0.002 C 
HETATM   37  C   UNL     1      45.592  -9.710   8.086  1.00  0.00     0.025 C 
ENDBRANCH  29  32
ENDBRANCH  27  28
ENDBRANCH  26  27
ENDBRANCH   2  26
TORSDOF 8
ENDMDL
MODEL 5
REMARK VINA RESULT:      -9.2      4.073     10.114
REMARK  8 active torsions:
REMARK  status: ('A' for Active; 'I' for Inactive)
REMARK    1  A    between atoms: C_6  and  N_7 
REMARK       I    between atoms: N_7  and  C_8 
REMARK    2  A    between atoms: C_8  and  C_9 
REMARK    3  A    between atoms: C_9  and  S_10 
REMARK    4  A    between atoms: S_10  and  C_11 
REMARK    5  A    between atoms: N_12  and  C_13 
REMARK    6  A    between atoms: C_13  and  C_14 
REMARK    7  A    between atoms: C_14  and  C_15 
REMARK       I    between atoms: C_15  and  N_16 
REMARK    8  A    between atoms: N_16  and  C_17 
ROOT
HETATM    1  C   UNL     1      42.570 -14.305   4.632  1.00  0.00     0.172 A 
HETATM    2  N   UNL     1      42.025 -14.264   3.361  1.00  0.00    -0.292 N 
HETATM    3  C   UNL     1      42.075 -15.399   2.547  1.00  0.00     0.262 A 
HETATM    4  O   UNL     1      41.522 -15.483   1.453  1.00  0.00    -0.267 OA
HETATM    5  C   UNL     1      42.823 -16.555   3.060  1.00  0.00     0.061 A 
HETATM    6  C   UNL     1      43.351 -16.462   4.343  1.00  0.00     0.075 A 
HETATM    7  C   UNL     1      43.017 -17.696   2.274  1.00  0.00     0.019 A 
HETATM    8  C   UNL     1      43.766 -18.758   2.776  1.00  0.00     0.001 A 
HETATM    9  C   UNL     1      44.323 -18.670   4.050  1.00  0.00     0.002 A 
HETATM   10  C   UNL     1      44.117 -17.524   4.827  1.00  0.00     0.032 A 
HETATM   11  N   UNL     1      43.158 -15.334   5.150  1.00  0.00    -0.224 NA
ENDROOT
BRANCH   1  12
HETATM   12  S   UNL     1      42.483 -12.894   5.656  1.00  0.00    -0.082 SA
BRANCH  12  13
HETATM   13  C   UNL     1      44.080 -13.029   6.482  1.00  0.00     0.185 C 
BRANCH  13  14
HETATM   14  C   UNL     1      44.408 -11.833   7.357  1.00  0.00     0.231 C 
HETATM   15  N   UNL     1      43.328 -11.349   8.074  1.00  0.00    -0.326 N 
HETATM   16  H   UNL     1      42.565 -12.004   8.246  1.00  0.00     0.169 HD
HETATM   17  O   UNL     1      45.522 -11.316   7.302  1.00  0.00    -0.272 OA
BRANCH  15  18
HETATM   18  C   UNL     1      43.189 -10.062   8.636  1.00  0.00     0.036 A 
HETATM   19  C   UNL     1      43.348  -9.783   9.994  1.00  0.00     0.053 A 
HETATM   20  C   UNL     1      43.283  -8.462  10.461  1.00  0.00     0.042 A 
HETATM   21  C   UNL     1      43.051  -7.397   9.579  1.00  0.00    -0.040 A 
HETATM   22 CL   UNL     1      43.529  -8.191  12.151  1.00  0.00    -0.084 Cl
HETATM   23  C   UNL     1      43.023  -5.968  10.043  1.00  0.00     0.050 C 
HETATM   24  C   UNL     1      42.883  -7.685   8.220  1.00  0.00     0.011 A 
HETATM   25  C   UNL     1      42.950  -9.003   7.757  1.00  0.00     0.030 A 
ENDBRANCH  15  18
ENDBRANCH  13  14
ENDBRANCH  12  13
ENDBRANCH   1  12
BRANCH   2  26
HETATM   26  C   UNL     1      41.324 -13.106   2.778  1.00  0.00     0.144 C 
BRANCH  26  27
HETATM   27  C   UNL     1      39.810 -13.184   2.993  1.00  0.00     0.123 C 
BRANCH  27  28
HETATM   28  C   UNL     1      39.087 -12.535   1.835  1.00  0.00     0.219 C 
HETATM   29  N   UNL     1      39.410 -13.074   0.609  1.00  0.00    -0.356 N 
HETATM   30  H   UNL     1      40.002 -13.894   0.570  1.00  0.00     0.162 HD
HETATM   31  O   UNL     1      38.272 -11.631   1.988  1.00  0.00    -0.274 OA
BRANCH  29  32
HETATM   32  C   UNL     1      38.840 -12.566  -0.634  1.00  0.00     0.084 C 
HETATM   33  C   UNL     1      39.661 -11.387  -1.172  1.00  0.00     0.025 C 
HETATM   34  C   UNL     1      40.994 -11.815  -1.788  1.00  0.00     0.002 C 
HETATM   35  C   UNL     1      40.803 -12.899  -2.842  1.00  0.00     0.000 C 
HETATM   36  C   UNL     1      40.041 -14.097  -2.282  1.00  0.00     0.002 C 
HETATM   37  C   UNL     1      38.700 -13.678  -1.683  1.00  0.00     0.025 C 
ENDBRANCH  29  32
ENDBRANCH  27  28
ENDBRANCH  26  27
ENDBRANCH   2  26
TORSDOF 8
ENDMDL
MODEL 6
REMARK VINA RESULT:      -9.1      2.299      4.600
REMARK  8 active torsions:
REMARK  status: ('A' for Active; 'I' for Inactive)
REMARK    1  A    between atoms: C_6  and  N_7 
REMARK       I    between atoms: N_7  and  C_8 
REMARK    2  A    between atoms: C_8  and  C_9 
REMARK    3  A    between atoms: C_9  and  S_10 
REMARK    4  A    between atoms: S_10  and  C_11 
REMARK    5  A    between atoms: N_12  and  C_13 
REMARK    6  A    between atoms: C_13  and  C_14 
REMARK    7  A    between atoms: C_14  and  C_15 
REMARK       I    between atoms: C_15  and  N_16 
REMARK    8  A    between atoms: N_16  and  C_17 
ROOT
HETATM    1  C   UNL     1      42.119 -12.792   4.089  1.00  0.00     0.172 A 
HETATM    2  N   UNL     1      41.459 -11.582   3.978  1.00  0.00    -0.292 N 
HETATM    3  C   UNL     1      40.535 -11.387   2.948  1.00  0.00     0.262 A 
HETATM    4  O   UNL     1      39.828 -10.388   2.841  1.00  0.00    -0.267 OA
HETATM    5  C   UNL     1      40.405 -12.464   1.957  1.00  0.00     0.061 A 
HETATM    6  C   UNL     1      41.145 -13.622   2.163  1.00  0.00     0.075 A 
HETATM    7  C   UNL     1      39.583 -12.316   0.833  1.00  0.00     0.019 A 
HETATM    8  C   UNL     1      39.515 -13.341  -0.108  1.00  0.00     0.001 A 
HETATM    9  C   UNL     1      40.271 -14.497   0.073  1.00  0.00     0.002 A 
HETATM   10  C   UNL     1      41.084 -14.634   1.203  1.00  0.00     0.032 A 
HETATM   11  N   UNL     1      41.963 -13.795   3.287  1.00  0.00    -0.224 NA
ENDROOT
BRANCH   1  12
HETATM   12  S   UNL     1      43.254 -13.042   5.392  1.00  0.00    -0.082 SA
BRANCH  12  13
HETATM   13  C   UNL     1      42.244 -14.073   6.472  1.00  0.00     0.185 C 
BRANCH  13  14
HETATM   14  C   UNL     1      42.307 -15.550   6.126  1.00  0.00     0.231 C 
HETATM   15  N   UNL     1      43.428 -15.908   5.399  1.00  0.00    -0.326 N 
HETATM   16  H   UNL     1      44.239 -15.294   5.479  1.00  0.00     0.169 HD
HETATM   17  O   UNL     1      41.362 -16.287   6.396  1.00  0.00    -0.272 OA
BRANCH  15  18
HETATM   18  C   UNL     1      43.589 -17.058   4.598  1.00  0.00     0.036 A 
HETATM   19  C   UNL     1      43.980 -18.304   5.090  1.00  0.00     0.053 A 
HETATM   20  C   UNL     1      44.029 -19.420   4.243  1.00  0.00     0.042 A 
HETATM   21  C   UNL     1      43.696 -19.310   2.885  1.00  0.00    -0.040 A 
HETATM   22 CL   UNL     1      44.484 -20.939   4.934  1.00  0.00    -0.084 Cl
HETATM   23  C   UNL     1      43.693 -20.497   1.965  1.00  0.00     0.050 C 
HETATM   24  C   UNL     1      43.314 -18.055   2.396  1.00  0.00     0.011 A 
HETATM   25  C   UNL     1      43.263 -16.944   3.243  1.00  0.00     0.030 A 
ENDBRANCH  15  18
ENDBRANCH  13  14
ENDBRANCH  12  13
ENDBRANCH   1  12
BRANCH   2  26
HETATM   26  C   UNL     1      41.606 -10.449   4.908  1.00  0.00     0.144 C 
BRANCH  26  27
HETATM   27  C   UNL     1      40.803 -10.654   6.196  1.00  0.00     0.123 C 
BRANCH  27  28
HETATM   28  C   UNL     1      41.097  -9.540   7.174  1.00  0.00     0.219 C 
HETATM   29  N   UNL     1      42.114  -9.833   8.056  1.00  0.00    -0.356 N 
HETATM   30  H   UNL     1      42.642 -10.688   7.936  1.00  0.00     0.162 HD
HETATM   31  O   UNL     1      40.497  -8.470   7.157  1.00  0.00    -0.274 OA
BRANCH  29  32
HETATM   32  C   UNL     1      42.529  -8.897   9.097  1.00  0.00     0.084 C 
HETATM   33  C   UNL     1      42.732  -9.622  10.434  1.00  0.00     0.025 C 
HETATM   34  C   UNL     1      44.011 -10.460  10.474  1.00  0.00     0.002 C 
HETATM   35  C   UNL     1      45.234  -9.638  10.083  1.00  0.00     0.000 C 
HETATM   36  C   UNL     1      45.050  -8.973   8.723  1.00  0.00     0.002 C 
HETATM   37  C   UNL     1      43.785  -8.118   8.683  1.00  0.00     0.025 C 
ENDBRANCH  29  32
ENDBRANCH  27  28
ENDBRANCH  26  27
ENDBRANCH   2  26
TORSDOF 8
ENDMDL
MODEL 7
REMARK VINA RESULT:      -9.0      4.159     10.053
REMARK  8 active torsions:
REMARK  status: ('A' for Active; 'I' for Inactive)
REMARK    1  A    between atoms: C_6  and  N_7 
REMARK       I    between atoms: N_7  and  C_8 
REMARK    2  A    between atoms: C_8  and  C_9 
REMARK    3  A    between atoms: C_9  and  S_10 
REMARK    4  A    between atoms: S_10  and  C_11 
REMARK    5  A    between atoms: N_12  and  C_13 
REMARK    6  A    between atoms: C_13  and  C_14 
REMARK    7  A    between atoms: C_14  and  C_15 
REMARK       I    between atoms: C_15  and  N_16 
REMARK    8  A    between atoms: N_16  and  C_17 
ROOT
HETATM    1  C   UNL     1      42.484 -13.772   4.836  1.00  0.00     0.172 A 
HETATM    2  N   UNL     1      41.955 -13.600   3.569  1.00  0.00    -0.292 N 
HETATM    3  C   UNL     1      41.969 -14.661   2.660  1.00  0.00     0.262 A 
HETATM    4  O   UNL     1      41.425 -14.628   1.559  1.00  0.00    -0.267 OA
HETATM    5  C   UNL     1      42.666 -15.886   3.076  1.00  0.00     0.061 A 
HETATM    6  C   UNL     1      43.183 -15.926   4.366  1.00  0.00     0.075 A 
HETATM    7  C   UNL     1      42.823 -16.962   2.195  1.00  0.00     0.019 A 
HETATM    8  C   UNL     1      43.525 -18.092   2.608  1.00  0.00     0.001 A 
HETATM    9  C   UNL     1      44.071 -18.137   3.890  1.00  0.00     0.002 A 
HETATM   10  C   UNL     1      43.902 -17.056   4.761  1.00  0.00     0.032 A 
HETATM   11  N   UNL     1      43.026 -14.865   5.266  1.00  0.00    -0.224 NA
ENDROOT
BRANCH   1  12
HETATM   12  S   UNL     1      42.442 -12.453   5.978  1.00  0.00    -0.082 SA
BRANCH  12  13
HETATM   13  C   UNL     1      44.196 -12.041   6.020  1.00  0.00     0.185 C 
BRANCH  13  14
HETATM   14  C   UNL     1      44.632 -11.398   7.324  1.00  0.00     0.231 C 
HETATM   15  N   UNL     1      43.598 -11.185   8.218  1.00  0.00    -0.326 N 
HETATM   16  H   UNL     1      42.771 -11.773   8.107  1.00  0.00     0.169 HD
HETATM   17  O   UNL     1      45.792 -11.019   7.466  1.00  0.00    -0.272 OA
BRANCH  15  18
HETATM   18  C   UNL     1      43.582 -10.277   9.299  1.00  0.00     0.036 A 
HETATM   19  C   UNL     1      43.416  -8.899   9.158  1.00  0.00     0.053 A 
HETATM   20  C   UNL     1      43.321  -8.076  10.288  1.00  0.00     0.042 A 
HETATM   21  C   UNL     1      43.397  -8.613  11.581  1.00  0.00    -0.040 A 
HETATM   22 CL   UNL     1      43.077  -6.382  10.034  1.00  0.00    -0.084 Cl
HETATM   23  C   UNL     1      43.250  -7.762  12.810  1.00  0.00     0.050 C 
HETATM   24  C   UNL     1      43.573  -9.995  11.715  1.00  0.00     0.011 A 
HETATM   25  C   UNL     1      43.666 -10.815  10.586  1.00  0.00     0.030 A 
ENDBRANCH  15  18
ENDBRANCH  13  14
ENDBRANCH  12  13
ENDBRANCH   1  12
BRANCH   2  26
HETATM   26  C   UNL     1      41.306 -12.369   3.084  1.00  0.00     0.144 C 
BRANCH  26  27
HETATM   27  C   UNL     1      42.315 -11.382   2.491  1.00  0.00     0.123 C 
BRANCH  27  28
HETATM   28  C   UNL     1      41.792 -10.827   1.185  1.00  0.00     0.219 C 
HETATM   29  N   UNL     1      41.125 -11.756   0.417  1.00  0.00    -0.356 N 
HETATM   30  H   UNL     1      40.947 -12.677   0.798  1.00  0.00     0.162 HD
HETATM   31  O   UNL     1      41.932  -9.652   0.863  1.00  0.00    -0.274 OA
BRANCH  29  32
HETATM   32  C   UNL     1      40.569 -11.424  -0.891  1.00  0.00     0.084 C 
HETATM   33  C   UNL     1      40.896 -12.516  -1.918  1.00  0.00     0.025 C 
HETATM   34  C   UNL     1      40.066 -13.786  -1.726  1.00  0.00     0.002 C 
HETATM   35  C   UNL     1      38.573 -13.481  -1.679  1.00  0.00     0.000 C 
HETATM   36  C   UNL     1      38.248 -12.440  -0.612  1.00  0.00     0.002 C 
HETATM   37  C   UNL     1      39.060 -11.162  -0.809  1.00  0.00     0.025 C 
ENDBRANCH  29  32
ENDBRANCH  27  28
ENDBRANCH  26  27
ENDBRANCH   2  26
TORSDOF 8
ENDMDL
MODEL 8
REMARK VINA RESULT:      -9.0      4.626      8.155
REMARK  8 active torsions:
REMARK  status: ('A' for Active; 'I' for Inactive)
REMARK    1  A    between atoms: C_6  and  N_7 
REMARK       I    between atoms: N_7  and  C_8 
REMARK    2  A    between atoms: C_8  and  C_9 
REMARK    3  A    between atoms: C_9  and  S_10 
REMARK    4  A    between atoms: S_10  and  C_11 
REMARK    5  A    between atoms: N_12  and  C_13 
REMARK    6  A    between atoms: C_13  and  C_14 
REMARK    7  A    between atoms: C_14  and  C_15 
REMARK       I    between atoms: C_15  and  N_16 
REMARK    8  A    between atoms: N_16  and  C_17 
ROOT
HETATM    1  C   UNL     1      42.712 -15.919   3.505  1.00  0.00     0.172 A 
HETATM    2  N   UNL     1      43.159 -15.996   4.812  1.00  0.00    -0.292 N 
HETATM    3  C   UNL     1      43.743 -17.177   5.278  1.00  0.00     0.262 A 
HETATM    4  O   UNL     1      44.264 -17.294   6.385  1.00  0.00    -0.267 OA
HETATM    5  C   UNL     1      43.741 -18.328   4.364  1.00  0.00     0.061 A 
HETATM    6  C   UNL     1      43.236 -18.132   3.084  1.00  0.00     0.075 A 
HETATM    7  C   UNL     1      44.209 -19.580   4.778  1.00  0.00     0.019 A 
HETATM    8  C   UNL     1      44.154 -20.660   3.899  1.00  0.00     0.001 A 
HETATM    9  C   UNL     1      43.627 -20.484   2.621  1.00  0.00     0.002 A 
HETATM   10  C   UNL     1      43.167 -19.226   2.219  1.00  0.00     0.032 A 
HETATM   11  N   UNL     1      42.775 -16.884   2.646  1.00  0.00    -0.224 NA
ENDROOT
BRANCH   1  12
HETATM   12  S   UNL     1      42.006 -14.435   2.918  1.00  0.00    -0.082 SA
BRANCH  12  13
HETATM   13  C   UNL     1      42.127 -14.729   1.145  1.00  0.00     0.185 C 
BRANCH  13  14
HETATM   14  C   UNL     1      40.778 -14.866   0.463  1.00  0.00     0.231 C 
HETATM   15  N   UNL     1      40.633 -14.068  -0.658  1.00  0.00    -0.326 N 
HETATM   16  H   UNL     1      41.493 -13.772  -1.122  1.00  0.00     0.169 HD
HETATM   17  O   UNL     1      39.896 -15.552   0.973  1.00  0.00    -0.272 OA
BRANCH  15  18
HETATM   18  C   UNL     1      39.424 -13.659  -1.259  1.00  0.00     0.036 A 
HETATM   19  C   UNL     1      38.744 -12.486  -0.926  1.00  0.00     0.053 A 
HETATM   20  C   UNL     1      37.596 -12.105  -1.634  1.00  0.00     0.042 A 
HETATM   21  C   UNL     1      37.100 -12.893  -2.683  1.00  0.00    -0.040 A 
HETATM   22 CL   UNL     1      36.830 -10.619  -1.190  1.00  0.00    -0.084 Cl
HETATM   23  C   UNL     1      35.899 -12.486  -3.489  1.00  0.00     0.050 C 
HETATM   24  C   UNL     1      37.781 -14.073  -3.005  1.00  0.00     0.011 A 
HETATM   25  C   UNL     1      38.928 -14.450  -2.300  1.00  0.00     0.030 A 
ENDBRANCH  15  18
ENDBRANCH  13  14
ENDBRANCH  12  13
ENDBRANCH   1  12
BRANCH   2  26
HETATM   26  C   UNL     1      43.122 -14.890   5.786  1.00  0.00     0.144 C 
BRANCH  26  27
HETATM   27  C   UNL     1      41.990 -15.057   6.802  1.00  0.00     0.123 C 
BRANCH  27  28
HETATM   28  C   UNL     1      40.874 -14.083   6.502  1.00  0.00     0.219 C 
HETATM   29  N   UNL     1      41.308 -12.792   6.296  1.00  0.00    -0.356 N 
HETATM   30  H   UNL     1      42.302 -12.604   6.259  1.00  0.00     0.162 HD
HETATM   31  O   UNL     1      39.699 -14.426   6.425  1.00  0.00    -0.274 OA
BRANCH  29  32
HETATM   32  C   UNL     1      40.383 -11.698   6.019  1.00  0.00     0.084 C 
HETATM   33  C   UNL     1      40.830 -10.411   6.724  1.00  0.00     0.025 C 
HETATM   34  C   UNL     1      42.037  -9.751   6.057  1.00  0.00     0.002 C 
HETATM   35  C   UNL     1      41.805  -9.528   4.567  1.00  0.00     0.000 C 
HETATM   36  C   UNL     1      41.422 -10.825   3.861  1.00  0.00     0.002 C 
HETATM   37  C   UNL     1      40.205 -11.480   4.511  1.00  0.00     0.025 C 
ENDBRANCH  29  32
ENDBRANCH  27  28
ENDBRANCH  26  27
ENDBRANCH   2  26
TORSDOF 8
ENDMDL
MODEL 9
REMARK VINA RESULT:      -8.7      3.235      9.347
REMARK  8 active torsions:
REMARK  status: ('A' for Active; 'I' for Inactive)
REMARK    1  A    between atoms: C_6  and  N_7 
REMARK       I    between atoms: N_7  and  C_8 
REMARK    2  A    between atoms: C_8  and  C_9 
REMARK    3  A    between atoms: C_9  and  S_10 
REMARK    4  A    between atoms: S_10  and  C_11 
REMARK    5  A    between atoms: N_12  and  C_13 
REMARK    6  A    between atoms: C_13  and  C_14 
REMARK    7  A    between atoms: C_14  and  C_15 
REMARK       I    between atoms: C_15  and  N_16 
REMARK    8  A    between atoms: N_16  and  C_17 
ROOT
HETATM    1  C   UNL     1      41.515 -10.083   6.489  1.00  0.00     0.172 A 
HETATM    2  N   UNL     1      41.883 -11.103   5.630  1.00  0.00    -0.292 N 
HETATM    3  C   UNL     1      43.172 -11.636   5.695  1.00  0.00     0.262 A 
HETATM    4  O   UNL     1      43.545 -12.612   5.048  1.00  0.00    -0.267 OA
HETATM    5  C   UNL     1      44.116 -10.987   6.616  1.00  0.00     0.061 A 
HETATM    6  C   UNL     1      43.634  -9.950   7.407  1.00  0.00     0.075 A 
HETATM    7  C   UNL     1      45.457 -11.383   6.674  1.00  0.00     0.019 A 
HETATM    8  C   UNL     1      46.334 -10.718   7.528  1.00  0.00     0.001 A 
HETATM    9  C   UNL     1      45.871  -9.661   8.308  1.00  0.00     0.002 A 
HETATM   10  C   UNL     1      44.527  -9.278   8.244  1.00  0.00     0.032 A 
HETATM   11  N   UNL     1      42.293  -9.547   7.373  1.00  0.00    -0.224 NA
ENDROOT
BRANCH   1  12
HETATM   12  S   UNL     1      39.895  -9.436   6.422  1.00  0.00    -0.082 SA
BRANCH  12  13
HETATM   13  C   UNL     1      39.210 -10.198   7.905  1.00  0.00     0.185 C 
BRANCH  13  14
HETATM   14  C   UNL     1      39.380  -9.348   9.152  1.00  0.00     0.231 C 
HETATM   15  N   UNL     1      40.565  -9.577   9.829  1.00  0.00    -0.326 N 
HETATM   16  H   UNL     1      41.332  -9.971   9.284  1.00  0.00     0.169 HD
HETATM   17  O   UNL     1      38.463  -8.626   9.535  1.00  0.00    -0.272 OA
BRANCH  15  18
HETATM   18  C   UNL     1      40.844  -9.276  11.179  1.00  0.00     0.036 A 
HETATM   19  C   UNL     1      41.671  -8.231  11.592  1.00  0.00     0.053 A 
HETATM   20  C   UNL     1      41.825  -7.942  12.955  1.00  0.00     0.042 A 
HETATM   21  C   UNL     1      41.160  -8.697  13.931  1.00  0.00    -0.040 A 
HETATM   22 CL   UNL     1      42.836  -6.607  13.387  1.00  0.00    -0.084 Cl
HETATM   23  C   UNL     1      41.269  -8.380  15.396  1.00  0.00     0.050 C 
HETATM   24  C   UNL     1      40.339  -9.750  13.511  1.00  0.00     0.011 A 
HETATM   25  C   UNL     1      40.185 -10.035  12.151  1.00  0.00     0.030 A 
ENDBRANCH  15  18
ENDBRANCH  13  14
ENDBRANCH  12  13
ENDBRANCH   1  12
BRANCH   2  26
HETATM   26  C   UNL     1      40.991 -11.741   4.644  1.00  0.00     0.144 C 
BRANCH  26  27
HETATM   27  C   UNL     1      41.071 -11.064   3.273  1.00  0.00     0.123 C 
BRANCH  27  28
HETATM   28  C   UNL     1      41.091 -12.107   2.180  1.00  0.00     0.219 C 
HETATM   29  N   UNL     1      41.907 -13.182   2.455  1.00  0.00    -0.356 N 
HETATM   30  H   UNL     1      42.341 -13.253   3.367  1.00  0.00     0.162 HD
HETATM   31  O   UNL     1      40.418 -12.007   1.159  1.00  0.00    -0.274 OA
BRANCH  29  32
HETATM   32  C   UNL     1      42.083 -14.282   1.512  1.00  0.00     0.084 C 
HETATM   33  C   UNL     1      43.361 -15.072   1.826  1.00  0.00     0.025 C 
HETATM   34  C   UNL     1      43.227 -15.961   3.063  1.00  0.00     0.002 C 
HETATM   35  C   UNL     1      42.007 -16.871   2.973  1.00  0.00     0.000 C 
HETATM   36  C   UNL     1      40.731 -16.072   2.724  1.00  0.00     0.002 C 
HETATM   37  C   UNL     1      40.851 -15.196   1.479  1.00  0.00     0.025 C 
ENDBRANCH  29  32
ENDBRANCH  27  28
ENDBRANCH  26  27
ENDBRANCH   2  26
TORSDOF 8
ENDMDL
MODEL 10
REMARK VINA RESULT:      -8.6      4.085      7.744
REMARK  8 active torsions:
REMARK  status: ('A' for Active; 'I' for Inactive)
REMARK    1  A    between atoms: C_6  and  N_7 
REMARK       I    between atoms: N_7  and  C_8 
REMARK    2  A    between atoms: C_8  and  C_9 
REMARK    3  A    between atoms: C_9  and  S_10 
REMARK    4  A    between atoms: S_10  and  C_11 
REMARK    5  A    between atoms: N_12  and  C_13 
REMARK    6  A    between atoms: C_13  and  C_14 
REMARK    7  A    between atoms: C_14  and  C_15 
REMARK       I    between atoms: C_15  and  N_16 
REMARK    8  A    between atoms: N_16  and  C_17 
ROOT
HETATM    1  C   UNL     1      41.081 -13.332   3.305  1.00  0.00     0.172 A 
HETATM    2  N   UNL     1      41.222 -11.958   3.241  1.00  0.00    -0.292 N 
HETATM    3  C   UNL     1      42.045 -11.300   4.159  1.00  0.00     0.262 A 
HETATM    4  O   UNL     1      42.311 -10.102   4.106  1.00  0.00    -0.267 OA
HETATM    5  C   UNL     1      42.633 -12.115   5.231  1.00  0.00     0.061 A 
HETATM    6  C   UNL     1      42.393 -13.484   5.204  1.00  0.00     0.075 A 
HETATM    7  C   UNL     1      43.385 -11.528   6.256  1.00  0.00     0.019 A 
HETATM    8  C   UNL     1      43.892 -12.326   7.279  1.00  0.00     0.001 A 
HETATM    9  C   UNL     1      43.639 -13.696   7.278  1.00  0.00     0.002 A 
HETATM   10  C   UNL     1      42.889 -14.270   6.246  1.00  0.00     0.032 A 
HETATM   11  N   UNL     1      41.654 -14.093   4.181  1.00  0.00    -0.224 NA
ENDROOT
BRANCH   1  12
HETATM   12  S   UNL     1      40.072 -14.154   2.142  1.00  0.00    -0.082 SA
BRANCH  12  13
HETATM   13  C   UNL     1      41.308 -14.518   0.882  1.00  0.00     0.185 C 
BRANCH  13  14
HETATM   14  C   UNL     1      42.431 -15.410   1.379  1.00  0.00     0.231 C 
HETATM   15  N   UNL     1      42.008 -16.651   1.821  1.00  0.00    -0.326 N 
HETATM   16  H   UNL     1      41.117 -16.986   1.452  1.00  0.00     0.169 HD
HETATM   17  O   UNL     1      43.576 -14.971   1.464  1.00  0.00    -0.272 OA
BRANCH  15  18
HETATM   18  C   UNL     1      42.697 -17.525   2.687  1.00  0.00     0.036 A 
HETATM   19  C   UNL     1      42.947 -17.254   4.033  1.00  0.00     0.053 A 
HETATM   20  C   UNL     1      43.559 -18.215   4.850  1.00  0.00     0.042 A 
HETATM   21  C   UNL     1      43.941 -19.462   4.335  1.00  0.00    -0.040 A 
HETATM   22 CL   UNL     1      43.800 -17.821   6.517  1.00  0.00    -0.084 Cl
HETATM   23  C   UNL     1      44.556 -20.528   5.197  1.00  0.00     0.050 C 
HETATM   24  C   UNL     1      43.697 -19.723   2.982  1.00  0.00     0.011 A 
HETATM   25  C   UNL     1      43.083 -18.765   2.169  1.00  0.00     0.030 A 
ENDBRANCH  15  18
ENDBRANCH  13  14
ENDBRANCH  12  13
ENDBRANCH   1  12
BRANCH   2  26
HETATM   26  C   UNL     1      40.600 -11.090   2.225  1.00  0.00     0.144 C 
BRANCH  26  27
HETATM   27  C   UNL     1      41.620 -10.578   1.205  1.00  0.00     0.123 C 
BRANCH  27  28
HETATM   28  C   UNL     1      40.950 -10.354  -0.131  1.00  0.00     0.219 C 
HETATM   29  N   UNL     1      40.468 -11.508  -0.709  1.00  0.00    -0.356 N 
HETATM   30  H   UNL     1      40.499 -12.374  -0.185  1.00  0.00     0.162 HD
HETATM   31  O   UNL     1      40.830  -9.241  -0.633  1.00  0.00    -0.274 OA
BRANCH  29  32
HETATM   32  C   UNL     1      39.812 -11.507  -2.012  1.00  0.00     0.084 C 
HETATM   33  C   UNL     1      40.670 -12.233  -3.057  1.00  0.00     0.025 C 
HETATM   34  C   UNL     1      40.657 -13.753  -2.891  1.00  0.00     0.002 C 
HETATM   35  C   UNL     1      39.236 -14.302  -2.844  1.00  0.00     0.000 C 
HETATM   36  C   UNL     1      38.408 -13.620  -1.760  1.00  0.00     0.002 C 
HETATM   37  C   UNL     1      38.400 -12.102  -1.932  1.00  0.00     0.025 C 
ENDBRANCH  29  32
ENDBRANCH  27  28
ENDBRANCH  26  27
ENDBRANCH   2  26
TORSDOF 8
ENDMDL
