MODEL 1
REMARK VINA RESULT:      -8.3      0.000      0.000
REMARK  6 active torsions:
REMARK  status: ('A' for Active; 'I' for Inactive)
REMARK    1  A    between atoms: C_4  and  C_5 
REMARK    2  A    between atoms: C_10  and  C_11 
REMARK    3  A    between atoms: C_11  and  N_12 
REMARK    4  A    between atoms: N_12  and  C_14 
REMARK    5  A    between atoms: C_14  and  C_15 
REMARK       I    between atoms: C_15  and  N_16 
REMARK    6  A    between atoms: N_16  and  C_17 
ROOT
HETATM    1  N   UNL     1      41.496 -14.662   5.995  1.00  0.00    -0.063 N 
HETATM    2  H   UNL     1      41.528 -14.913   4.995  1.00  0.00     0.280 HD
HETATM    3  C   UNL     1      40.188 -13.954   6.212  1.00  0.00     0.270 C 
ENDROOT
BRANCH   1   4
HETATM    4  C   UNL     1      42.662 -13.755   6.283  1.00  0.00     0.277 C 
BRANCH   4   5
HETATM    5  C   UNL     1      43.131 -12.981   5.111  1.00  0.00     0.018 A 
HETATM    6  C   UNL     1      43.954 -11.819   5.099  1.00  0.00     0.120 A 
HETATM    7  N   UNL     1      44.171 -11.382   3.854  1.00  0.00    -0.172 NA
HETATM    8  N   UNL     1      43.479 -12.220   3.073  1.00  0.00    -0.288 N 
HETATM    9  H   UNL     1      43.480 -12.057   2.068  1.00  0.00     0.188 HD
HETATM   10  C   UNL     1      42.859 -13.215   3.775  1.00  0.00     0.120 A 
BRANCH   6  11
HETATM   11  C   UNL     1      44.560 -11.146   6.288  1.00  0.00     0.106 A 
HETATM   12  O   UNL     1      43.890 -10.292   7.125  1.00  0.00    -0.313 OA
HETATM   13  C   UNL     1      44.778  -9.870   8.070  1.00  0.00     0.050 A 
HETATM   14  C   UNL     1      44.285  -8.897   9.067  1.00  0.00     0.076 C 
HETATM   15  C   UNL     1      46.004 -10.461   7.867  1.00  0.00     0.035 A 
HETATM   16  C   UNL     1      45.862 -11.287   6.726  1.00  0.00     0.042 A 
ENDBRANCH   6  11
ENDBRANCH   4   5
ENDBRANCH   1   4
BRANCH   1  17
HETATM   17  C   UNL     1      41.556 -16.012   6.731  1.00  0.00     0.337 C 
BRANCH  17  18
HETATM   18  C   UNL     1      42.973 -16.296   7.231  1.00  0.00     0.248 C 
HETATM   19  N   UNL     1      43.918 -16.862   6.432  1.00  0.00    -0.326 N 
HETATM   20  H   UNL     1      44.849 -16.802   6.844  1.00  0.00     0.169 HD
HETATM   21  O   UNL     1      43.283 -15.927   8.370  1.00  0.00    -0.271 OA
BRANCH  19  22
HETATM   22  C   UNL     1      43.841 -17.522   5.192  1.00  0.00     0.040 A 
HETATM   23  C   UNL     1      44.020 -18.911   5.207  1.00  0.00     0.072 A 
HETATM   24  C   UNL     1      43.942 -19.646   4.024  1.00  0.00     0.121 A 
HETATM   25  F   UNL     1      44.142 -20.970   4.063  1.00  0.00    -0.206 F 
HETATM   26  C   UNL     1      43.663 -19.032   2.816  1.00  0.00     0.084 A 
HETATM   27  C   UNL     1      43.460 -17.663   2.808  1.00  0.00     0.121 A 
HETATM   28  F   UNL     1      43.160 -17.047   1.658  1.00  0.00    -0.206 F 
HETATM   29  C   UNL     1      43.544 -16.903   3.978  1.00  0.00     0.072 A 
ENDBRANCH  19  22
ENDBRANCH  17  18
ENDBRANCH   1  17
TORSDOF 6
ENDMDL
MODEL 2
REMARK VINA RESULT:      -8.3      4.187      6.206
REMARK  6 active torsions:
REMARK  status: ('A' for Active; 'I' for Inactive)
REMARK    1  A    between atoms: C_4  and  C_5 
REMARK    2  A    between atoms: C_10  and  C_11 
REMARK    3  A    between atoms: C_11  and  N_12 
REMARK    4  A    between atoms: N_12  and  C_14 
REMARK    5  A    between atoms: C_14  and  C_15 
REMARK       I    between atoms: C_15  and  N_16 
REMARK    6  A    between atoms: N_16  and  C_17 
ROOT
HETATM    1  N   UNL     1      40.778 -15.276   2.414  1.00  0.00    -0.063 N 
HETATM    2  H   UNL     1      41.671 -15.037   1.956  1.00  0.00     0.280 HD
HETATM    3  C   UNL     1      40.009 -16.114   1.431  1.00  0.00     0.270 C 
ENDROOT
BRANCH   1   4
HETATM    4  C   UNL     1      40.054 -13.991   2.718  1.00  0.00     0.277 C 
BRANCH   4   5
HETATM    5  C   UNL     1      40.707 -12.783   2.162  1.00  0.00     0.018 A 
HETATM    6  C   UNL     1      40.528 -12.204   0.874  1.00  0.00     0.120 A 
HETATM    7  N   UNL     1      41.288 -11.116   0.713  1.00  0.00    -0.172 NA
HETATM    8  N   UNL     1      41.972 -11.006   1.858  1.00  0.00    -0.288 N 
HETATM    9  H   UNL     1      42.644 -10.247   1.949  1.00  0.00     0.188 HD
HETATM   10  C   UNL     1      41.640 -11.966   2.772  1.00  0.00     0.120 A 
BRANCH   6  11
HETATM   11  C   UNL     1      39.598 -12.681  -0.195  1.00  0.00     0.106 A 
HETATM   12  O   UNL     1      39.796 -13.804  -0.955  1.00  0.00    -0.313 OA
HETATM   13  C   UNL     1      38.751 -13.894  -1.828  1.00  0.00     0.050 A 
HETATM   14  C   UNL     1      38.774 -15.017  -2.788  1.00  0.00     0.076 C 
HETATM   15  C   UNL     1      37.870 -12.857  -1.620  1.00  0.00     0.035 A 
HETATM   16  C   UNL     1      38.410 -12.083  -0.566  1.00  0.00     0.042 A 
ENDBRANCH   6  11
ENDBRANCH   4   5
ENDBRANCH   1   4
BRANCH   1  17
HETATM   17  C   UNL     1      41.188 -16.075   3.664  1.00  0.00     0.337 C 
BRANCH  17  18
HETATM   18  C   UNL     1      42.607 -15.707   4.101  1.00  0.00     0.248 C 
HETATM   19  N   UNL     1      43.644 -16.581   3.989  1.00  0.00    -0.326 N 
HETATM   20  H   UNL     1      44.544 -16.123   4.134  1.00  0.00     0.169 HD
HETATM   21  O   UNL     1      42.825 -14.555   4.497  1.00  0.00    -0.271 OA
BRANCH  19  22
HETATM   22  C   UNL     1      43.696 -17.965   3.744  1.00  0.00     0.040 A 
HETATM   23  C   UNL     1      44.026 -18.784   4.832  1.00  0.00     0.072 A 
HETATM   24  C   UNL     1      44.083 -20.169   4.681  1.00  0.00     0.121 A 
HETATM   25  F   UNL     1      44.425 -20.927   5.731  1.00  0.00    -0.206 F 
HETATM   26  C   UNL     1      43.794 -20.771   3.469  1.00  0.00     0.084 A 
HETATM   27  C   UNL     1      43.442 -19.961   2.403  1.00  0.00     0.121 A 
HETATM   28  F   UNL     1      43.129 -20.519   1.227  1.00  0.00    -0.206 F 
HETATM   29  C   UNL     1      43.389 -18.570   2.525  1.00  0.00     0.072 A 
ENDBRANCH  19  22
ENDBRANCH  17  18
ENDBRANCH   1  17
TORSDOF 6
ENDMDL
MODEL 3
REMARK VINA RESULT:      -8.2      1.984      3.416
REMARK  6 active torsions:
REMARK  status: ('A' for Active; 'I' for Inactive)
REMARK    1  A    between atoms: C_4  and  C_5 
REMARK    2  A    between atoms: C_10  and  C_11 
REMARK    3  A    between atoms: C_11  and  N_12 
REMARK    4  A    between atoms: N_12  and  C_14 
REMARK    5  A    between atoms: C_14  and  C_15 
REMARK       I    between atoms: C_15  and  N_16 
REMARK    6  A    between atoms: N_16  and  C_17 
ROOT
HETATM    1  N   UNL     1      40.788 -13.439   4.427  1.00  0.00    -0.063 N 
HETATM    2  H   UNL     1      41.605 -12.817   4.332  1.00  0.00     0.280 HD
HETATM    3  C   UNL     1      39.636 -12.728   3.774  1.00  0.00     0.270 C 
ENDROOT
BRANCH   1   4
HETATM    4  C   UNL     1      40.535 -13.653   5.896  1.00  0.00     0.277 C 
BRANCH   4   5
HETATM    5  C   UNL     1      41.460 -14.618   6.535  1.00  0.00     0.018 A 
HETATM    6  C   UNL     1      42.811 -14.409   6.930  1.00  0.00     0.120 A 
HETATM    7  N   UNL     1      43.342 -15.510   7.471  1.00  0.00    -0.172 NA
HETATM    8  N   UNL     1      42.369 -16.427   7.401  1.00  0.00    -0.288 N 
HETATM    9  H   UNL     1      42.565 -17.367   7.739  1.00  0.00     0.188 HD
HETATM   10  C   UNL     1      41.209 -15.936   6.872  1.00  0.00     0.120 A 
BRANCH   6  11
HETATM   11  C   UNL     1      43.584 -13.135   6.817  1.00  0.00     0.106 A 
HETATM   12  O   UNL     1      44.074 -12.424   7.881  1.00  0.00    -0.313 OA
HETATM   13  C   UNL     1      44.697 -11.319   7.380  1.00  0.00     0.050 A 
HETATM   14  C   UNL     1      45.272 -10.371   8.358  1.00  0.00     0.076 C 
HETATM   15  C   UNL     1      44.636 -11.323   6.006  1.00  0.00     0.035 A 
HETATM   16  C   UNL     1      43.927 -12.493   5.643  1.00  0.00     0.042 A 
ENDBRANCH   6  11
ENDBRANCH   4   5
ENDBRANCH   1   4
BRANCH   1  17
HETATM   17  C   UNL     1      41.188 -14.717   3.669  1.00  0.00     0.337 C 
BRANCH  17  18
HETATM   18  C   UNL     1      42.450 -14.483   2.838  1.00  0.00     0.248 C 
HETATM   19  N   UNL     1      43.301 -15.496   2.520  1.00  0.00    -0.326 N 
HETATM   20  H   UNL     1      43.975 -15.217   1.807  1.00  0.00     0.169 HD
HETATM   21  O   UNL     1      42.656 -13.352   2.381  1.00  0.00    -0.271 OA
BRANCH  19  22
HETATM   22  C   UNL     1      43.434 -16.810   3.003  1.00  0.00     0.040 A 
HETATM   23  C   UNL     1      43.308 -17.842   2.064  1.00  0.00     0.072 A 
HETATM   24  C   UNL     1      43.444 -19.173   2.454  1.00  0.00     0.121 A 
HETATM   25  F   UNL     1      43.295 -20.141   1.541  1.00  0.00    -0.206 F 
HETATM   26  C   UNL     1      43.728 -19.511   3.766  1.00  0.00     0.084 A 
HETATM   27  C   UNL     1      43.877 -18.488   4.688  1.00  0.00     0.121 A 
HETATM   28  F   UNL     1      44.181 -18.784   5.957  1.00  0.00    -0.206 F 
HETATM   29  C   UNL     1      43.736 -17.146   4.323  1.00  0.00     0.072 A 
ENDBRANCH  19  22
ENDBRANCH  17  18
ENDBRANCH   1  17
TORSDOF 6
ENDMDL
MODEL 4
REMARK VINA RESULT:      -8.2      4.440      6.586
REMARK  6 active torsions:
REMARK  status: ('A' for Active; 'I' for Inactive)
REMARK    1  A    between atoms: C_4  and  C_5 
REMARK    2  A    between atoms: C_10  and  C_11 
REMARK    3  A    between atoms: C_11  and  N_12 
REMARK    4  A    between atoms: N_12  and  C_14 
REMARK    5  A    between atoms: C_14  and  C_15 
REMARK       I    between atoms: C_15  and  N_16 
REMARK    6  A    between atoms: N_16  and  C_17 
ROOT
HETATM    1  N   UNL     1      41.432 -15.089   2.551  1.00  0.00    -0.063 N 
HETATM    2  H   UNL     1      41.773 -14.178   2.897  1.00  0.00     0.280 HD
HETATM    3  C   UNL     1      42.333 -15.473   1.412  1.00  0.00     0.270 C 
ENDROOT
BRANCH   1   4
HETATM    4  C   UNL     1      40.012 -14.907   2.087  1.00  0.00     0.277 C 
BRANCH   4   5
HETATM    5  C   UNL     1      39.569 -13.494   2.034  1.00  0.00     0.018 A 
HETATM    6  C   UNL     1      39.382 -12.676   0.885  1.00  0.00     0.120 A 
HETATM    7  N   UNL     1      38.979 -11.444   1.217  1.00  0.00    -0.172 NA
HETATM    8  N   UNL     1      38.936 -11.449   2.555  1.00  0.00    -0.288 N 
HETATM    9  H   UNL     1      38.675 -10.590   3.033  1.00  0.00     0.188 HD
HETATM   10  C   UNL     1      39.254 -12.664   3.094  1.00  0.00     0.120 A 
BRANCH   6  11
HETATM   11  C   UNL     1      39.559 -13.090  -0.540  1.00  0.00     0.106 A 
HETATM   12  O   UNL     1      38.639 -13.801  -1.265  1.00  0.00    -0.313 OA
HETATM   13  C   UNL     1      39.166 -14.003  -2.506  1.00  0.00     0.050 A 
HETATM   14  C   UNL     1      38.359 -14.795  -3.458  1.00  0.00     0.076 C 
HETATM   15  C   UNL     1      40.404 -13.409  -2.598  1.00  0.00     0.035 A 
HETATM   16  C   UNL     1      40.653 -12.815  -1.337  1.00  0.00     0.042 A 
ENDBRANCH   6  11
ENDBRANCH   4   5
ENDBRANCH   1   4
BRANCH   1  17
HETATM   17  C   UNL     1      41.581 -16.036   3.755  1.00  0.00     0.337 C 
BRANCH  17  18
HETATM   18  C   UNL     1      42.916 -15.808   4.464  1.00  0.00     0.248 C 
HETATM   19  N   UNL     1      43.874 -16.773   4.524  1.00  0.00    -0.326 N 
HETATM   20  H   UNL     1      44.766 -16.403   4.851  1.00  0.00     0.169 HD
HETATM   21  O   UNL     1      43.156 -14.686   4.928  1.00  0.00    -0.271 OA
BRANCH  19  22
HETATM   22  C   UNL     1      43.848 -18.153   4.252  1.00  0.00     0.040 A 
HETATM   23  C   UNL     1      43.680 -18.526   2.912  1.00  0.00     0.072 A 
HETATM   24  C   UNL     1      43.661 -19.873   2.551  1.00  0.00     0.121 A 
HETATM   25  F   UNL     1      43.474 -20.203   1.267  1.00  0.00    -0.206 F 
HETATM   26  C   UNL     1      43.829 -20.871   3.495  1.00  0.00     0.084 A 
HETATM   27  C   UNL     1      44.022 -20.498   4.815  1.00  0.00     0.121 A 
HETATM   28  F   UNL     1      44.217 -21.442   5.744  1.00  0.00    -0.206 F 
HETATM   29  C   UNL     1      44.034 -19.156   5.203  1.00  0.00     0.072 A 
ENDBRANCH  19  22
ENDBRANCH  17  18
ENDBRANCH   1  17
TORSDOF 6
ENDMDL
MODEL 5
REMARK VINA RESULT:      -8.1      3.284      4.622
REMARK  6 active torsions:
REMARK  status: ('A' for Active; 'I' for Inactive)
REMARK    1  A    between atoms: C_4  and  C_5 
REMARK    2  A    between atoms: C_10  and  C_11 
REMARK    3  A    between atoms: C_11  and  N_12 
REMARK    4  A    between atoms: N_12  and  C_14 
REMARK    5  A    between atoms: C_14  and  C_15 
REMARK       I    between atoms: C_15  and  N_16 
REMARK    6  A    between atoms: N_16  and  C_17 
ROOT
HETATM    1  N   UNL     1      41.526 -15.338   2.247  1.00  0.00    -0.063 N 
HETATM    2  H   UNL     1      41.749 -14.382   2.565  1.00  0.00     0.280 HD
HETATM    3  C   UNL     1      42.618 -15.731   1.293  1.00  0.00     0.270 C 
ENDROOT
BRANCH   1   4
HETATM    4  C   UNL     1      40.188 -15.298   1.559  1.00  0.00     0.277 C 
BRANCH   4   5
HETATM    5  C   UNL     1      40.119 -14.349   0.424  1.00  0.00     0.018 A 
HETATM    6  C   UNL     1      40.489 -12.974   0.406  1.00  0.00     0.120 A 
HETATM    7  N   UNL     1      40.284 -12.424  -0.795  1.00  0.00    -0.172 NA
HETATM    8  N   UNL     1      39.762 -13.409  -1.536  1.00  0.00    -0.288 N 
HETATM    9  H   UNL     1      39.499 -13.204  -2.497  1.00  0.00     0.188 HD
HETATM   10  C   UNL     1      39.667 -14.593  -0.860  1.00  0.00     0.120 A 
BRANCH   6  11
HETATM   11  C   UNL     1      41.072 -12.196   1.541  1.00  0.00     0.106 A 
HETATM   12  O   UNL     1      42.328 -12.389   2.054  1.00  0.00    -0.313 OA
HETATM   13  C   UNL     1      42.486 -11.510   3.085  1.00  0.00     0.050 A 
HETATM   14  C   UNL     1      43.765 -11.566   3.825  1.00  0.00     0.076 C 
HETATM   15  C   UNL     1      41.357 -10.737   3.226  1.00  0.00     0.035 A 
HETATM   16  C   UNL     1      40.451 -11.172   2.229  1.00  0.00     0.042 A 
ENDBRANCH   6  11
ENDBRANCH   4   5
ENDBRANCH   1   4
BRANCH   1  17
HETATM   17  C   UNL     1      41.544 -16.184   3.533  1.00  0.00     0.337 C 
BRANCH  17  18
HETATM   18  C   UNL     1      42.834 -15.949   4.320  1.00  0.00     0.248 C 
HETATM   19  N   UNL     1      43.822 -16.883   4.381  1.00  0.00    -0.326 N 
HETATM   20  H   UNL     1      44.682 -16.502   4.771  1.00  0.00     0.169 HD
HETATM   21  O   UNL     1      43.011 -14.845   4.850  1.00  0.00    -0.271 OA
BRANCH  19  22
HETATM   22  C   UNL     1      43.858 -18.248   4.040  1.00  0.00     0.040 A 
HETATM   23  C   UNL     1      44.081 -19.151   5.087  1.00  0.00     0.072 A 
HETATM   24  C   UNL     1      44.115 -20.523   4.841  1.00  0.00     0.121 A 
HETATM   25  F   UNL     1      44.354 -21.364   5.855  1.00  0.00    -0.206 F 
HETATM   26  C   UNL     1      43.908 -21.029   3.569  1.00  0.00     0.084 A 
HETATM   27  C   UNL     1      43.662 -20.135   2.541  1.00  0.00     0.121 A 
HETATM   28  F   UNL     1      43.429 -20.597   1.306  1.00  0.00    -0.206 F 
HETATM   29  C   UNL     1      43.634 -18.755   2.760  1.00  0.00     0.072 A 
ENDBRANCH  19  22
ENDBRANCH  17  18
ENDBRANCH   1  17
TORSDOF 6
ENDMDL
MODEL 6
REMARK VINA RESULT:      -8.0      3.689      6.799
REMARK  6 active torsions:
REMARK  status: ('A' for Active; 'I' for Inactive)
REMARK    1  A    between atoms: C_4  and  C_5 
REMARK    2  A    between atoms: C_10  and  C_11 
REMARK    3  A    between atoms: C_11  and  N_12 
REMARK    4  A    between atoms: N_12  and  C_14 
REMARK    5  A    between atoms: C_14  and  C_15 
REMARK       I    between atoms: C_15  and  N_16 
REMARK    6  A    between atoms: N_16  and  C_17 
ROOT
HETATM    1  N   UNL     1      41.944 -15.210   5.654  1.00  0.00    -0.063 N 
HETATM    2  H   UNL     1      42.024 -15.266   6.681  1.00  0.00     0.280 HD
HETATM    3  C   UNL     1      40.763 -16.059   5.274  1.00  0.00     0.270 C 
ENDROOT
BRANCH   1   4
HETATM    4  C   UNL     1      43.217 -15.749   5.058  1.00  0.00     0.277 C 
BRANCH   4   5
HETATM    5  C   UNL     1      43.277 -15.666   3.581  1.00  0.00     0.018 A 
HETATM    6  C   UNL     1      43.432 -16.729   2.648  1.00  0.00     0.120 A 
HETATM    7  N   UNL     1      43.451 -16.281   1.388  1.00  0.00    -0.172 NA
HETATM    8  N   UNL     1      43.343 -14.951   1.498  1.00  0.00    -0.288 N 
HETATM    9  H   UNL     1      43.363 -14.392   0.648  1.00  0.00     0.188 HD
HETATM   10  C   UNL     1      43.209 -14.532   2.792  1.00  0.00     0.120 A 
BRANCH   6  11
HETATM   11  C   UNL     1      43.529 -18.186   2.968  1.00  0.00     0.106 A 
HETATM   12  O   UNL     1      43.894 -18.692   4.188  1.00  0.00    -0.313 OA
HETATM   13  C   UNL     1      43.886 -20.053   4.083  1.00  0.00     0.050 A 
HETATM   14  C   UNL     1      44.294 -20.821   5.278  1.00  0.00     0.076 C 
HETATM   15  C   UNL     1      43.496 -20.428   2.817  1.00  0.00     0.035 A 
HETATM   16  C   UNL     1      43.259 -19.229   2.103  1.00  0.00     0.042 A 
ENDBRANCH   6  11
ENDBRANCH   4   5
ENDBRANCH   1   4
BRANCH   1  17
HETATM   17  C   UNL     1      41.702 -13.717   5.368  1.00  0.00     0.337 C 
BRANCH  17  18
HETATM   18  C   UNL     1      40.208 -13.395   5.389  1.00  0.00     0.248 C 
HETATM   19  N   UNL     1      39.470 -13.325   4.247  1.00  0.00    -0.326 N 
HETATM   20  H   UNL     1      38.470 -13.300   4.441  1.00  0.00     0.169 HD
HETATM   21  O   UNL     1      39.644 -13.271   6.483  1.00  0.00    -0.271 OA
BRANCH  19  22
HETATM   22  C   UNL     1      39.830 -13.255   2.888  1.00  0.00     0.040 A 
HETATM   23  C   UNL     1      39.628 -14.412   2.125  1.00  0.00     0.072 A 
HETATM   24  C   UNL     1      39.941 -14.425   0.766  1.00  0.00     0.121 A 
HETATM   25  F   UNL     1      39.762 -15.551   0.064  1.00  0.00    -0.206 F 
HETATM   26  C   UNL     1      40.433 -13.297   0.133  1.00  0.00     0.084 A 
HETATM   27  C   UNL     1      40.607 -12.147   0.885  1.00  0.00     0.121 A 
HETATM   28  F   UNL     1      41.054 -11.033   0.292  1.00  0.00    -0.206 F 
HETATM   29  C   UNL     1      40.311 -12.113   2.250  1.00  0.00     0.072 A 
ENDBRANCH  19  22
ENDBRANCH  17  18
ENDBRANCH   1  17
TORSDOF 6
ENDMDL
MODEL 7
REMARK VINA RESULT:      -7.9      2.378      3.419
REMARK  6 active torsions:
REMARK  status: ('A' for Active; 'I' for Inactive)
REMARK    1  A    between atoms: C_4  and  C_5 
REMARK    2  A    between atoms: C_10  and  C_11 
REMARK    3  A    between atoms: C_11  and  N_12 
REMARK    4  A    between atoms: N_12  and  C_14 
REMARK    5  A    between atoms: C_14  and  C_15 
REMARK       I    between atoms: C_15  and  N_16 
REMARK    6  A    between atoms: N_16  and  C_17 
ROOT
HETATM    1  N   UNL     1      42.129 -12.384   6.371  1.00  0.00    -0.063 N 
HETATM    2  H   UNL     1      41.262 -12.464   6.923  1.00  0.00     0.280 HD
HETATM    3  C   UNL     1      43.025 -13.502   6.822  1.00  0.00     0.270 C 
ENDROOT
BRANCH   1   4
HETATM    4  C   UNL     1      42.742 -11.041   6.663  1.00  0.00     0.277 C 
BRANCH   4   5
HETATM    5  C   UNL     1      44.224 -11.043   6.680  1.00  0.00     0.018 A 
HETATM    6  C   UNL     1      45.089 -10.701   7.758  1.00  0.00     0.120 A 
HETATM    7  N   UNL     1      46.376 -10.812   7.410  1.00  0.00    -0.172 NA
HETATM    8  N   UNL     1      46.351 -11.186   6.125  1.00  0.00    -0.288 N 
HETATM    9  H   UNL     1      47.236 -11.306   5.639  1.00  0.00     0.188 HD
HETATM   10  C   UNL     1      45.083 -11.365   5.646  1.00  0.00     0.120 A 
BRANCH   6  11
HETATM   11  C   UNL     1      44.676 -10.299   9.137  1.00  0.00     0.106 A 
HETATM   12  O   UNL     1      44.176 -11.157  10.081  1.00  0.00    -0.313 OA
HETATM   13  C   UNL     1      43.898 -10.419  11.195  1.00  0.00     0.050 A 
HETATM   14  C   UNL     1      43.302 -11.135  12.342  1.00  0.00     0.076 C 
HETATM   15  C   UNL     1      44.237  -9.102  10.987  1.00  0.00     0.035 A 
HETATM   16  C   UNL     1      44.744  -9.026   9.667  1.00  0.00     0.042 A 
ENDBRANCH   6  11
ENDBRANCH   4   5
ENDBRANCH   1   4
BRANCH   1  17
HETATM   17  C   UNL     1      41.671 -12.558   4.911  1.00  0.00     0.337 C 
BRANCH  17  18
HETATM   18  C   UNL     1      40.404 -13.410   4.838  1.00  0.00     0.248 C 
HETATM   19  N   UNL     1      40.441 -14.730   4.507  1.00  0.00    -0.326 N 
HETATM   20  H   UNL     1      39.553 -15.194   4.694  1.00  0.00     0.169 HD
HETATM   21  O   UNL     1      39.326 -12.898   5.165  1.00  0.00    -0.271 OA
BRANCH  19  22
HETATM   22  C   UNL     1      41.445 -15.538   3.942  1.00  0.00     0.040 A 
HETATM   23  C   UNL     1      42.008 -16.514   4.774  1.00  0.00     0.072 A 
HETATM   24  C   UNL     1      42.997 -17.370   4.290  1.00  0.00     0.121 A 
HETATM   25  F   UNL     1      43.536 -18.277   5.114  1.00  0.00    -0.206 F 
HETATM   26  C   UNL     1      43.430 -17.296   2.977  1.00  0.00     0.084 A 
HETATM   27  C   UNL     1      42.852 -16.348   2.150  1.00  0.00     0.121 A 
HETATM   28  F   UNL     1      43.230 -16.274   0.868  1.00  0.00    -0.206 F 
HETATM   29  C   UNL     1      41.867 -15.472   2.615  1.00  0.00     0.072 A 
ENDBRANCH  19  22
ENDBRANCH  17  18
ENDBRANCH   1  17
TORSDOF 6
ENDMDL
MODEL 8
REMARK VINA RESULT:      -7.9      2.523      3.846
REMARK  6 active torsions:
REMARK  status: ('A' for Active; 'I' for Inactive)
REMARK    1  A    between atoms: C_4  and  C_5 
REMARK    2  A    between atoms: C_10  and  C_11 
REMARK    3  A    between atoms: C_11  and  N_12 
REMARK    4  A    between atoms: N_12  and  C_14 
REMARK    5  A    between atoms: C_14  and  C_15 
REMARK       I    between atoms: C_15  and  N_16 
REMARK    6  A    between atoms: N_16  and  C_17 
ROOT
HETATM    1  N   UNL     1      42.193 -11.067   5.430  1.00  0.00    -0.063 N 
HETATM    2  H   UNL     1      42.944 -10.975   4.729  1.00  0.00     0.280 HD
HETATM    3  C   UNL     1      41.496  -9.737   5.481  1.00  0.00     0.270 C 
ENDROOT
BRANCH   1   4
HETATM    4  C   UNL     1      42.830 -11.401   6.752  1.00  0.00     0.277 C 
BRANCH   4   5
HETATM    5  C   UNL     1      44.301 -11.226   6.776  1.00  0.00     0.018 A 
HETATM    6  C   UNL     1      45.107 -10.715   7.832  1.00  0.00     0.120 A 
HETATM    7  N   UNL     1      46.402 -10.694   7.499  1.00  0.00    -0.172 NA
HETATM    8  N   UNL     1      46.437 -11.151   6.241  1.00  0.00    -0.288 N 
HETATM    9  H   UNL     1      47.336 -11.197   5.768  1.00  0.00     0.188 HD
HETATM   10  C   UNL     1      45.206 -11.510   5.769  1.00  0.00     0.120 A 
BRANCH   6  11
HETATM   11  C   UNL     1      44.632 -10.275   9.180  1.00  0.00     0.106 A 
HETATM   12  O   UNL     1      44.147 -11.117  10.146  1.00  0.00    -0.313 OA
HETATM   13  C   UNL     1      43.798 -10.347  11.218  1.00  0.00     0.050 A 
HETATM   14  C   UNL     1      43.204 -11.042  12.378  1.00  0.00     0.076 C 
HETATM   15  C   UNL     1      44.077  -9.024  10.961  1.00  0.00     0.035 A 
HETATM   16  C   UNL     1      44.620  -8.979   9.655  1.00  0.00     0.042 A 
ENDBRANCH   6  11
ENDBRANCH   4   5
ENDBRANCH   1   4
BRANCH   1  17
HETATM   17  C   UNL     1      41.284 -12.179   4.875  1.00  0.00     0.337 C 
BRANCH  17  18
HETATM   18  C   UNL     1      40.562 -12.907   6.009  1.00  0.00     0.248 C 
HETATM   19  N   UNL     1      41.022 -14.084   6.517  1.00  0.00    -0.326 N 
HETATM   20  H   UNL     1      40.550 -14.333   7.385  1.00  0.00     0.169 HD
HETATM   21  O   UNL     1      39.576 -12.368   6.526  1.00  0.00    -0.271 OA
BRANCH  19  22
HETATM   22  C   UNL     1      41.982 -15.004   6.058  1.00  0.00     0.040 A 
HETATM   23  C   UNL     1      41.631 -15.774   4.942  1.00  0.00     0.072 A 
HETATM   24  C   UNL     1      42.530 -16.698   4.410  1.00  0.00     0.121 A 
HETATM   25  F   UNL     1      42.160 -17.438   3.357  1.00  0.00    -0.206 F 
HETATM   26  C   UNL     1      43.793 -16.863   4.951  1.00  0.00     0.084 A 
HETATM   27  C   UNL     1      44.147 -16.081   6.038  1.00  0.00     0.121 A 
HETATM   28  F   UNL     1      45.372 -16.199   6.564  1.00  0.00    -0.206 F 
HETATM   29  C   UNL     1      43.260 -15.156   6.596  1.00  0.00     0.072 A 
ENDBRANCH  19  22
ENDBRANCH  17  18
ENDBRANCH   1  17
TORSDOF 6
ENDMDL
MODEL 9
REMARK VINA RESULT:      -7.8      4.930      7.964
REMARK  6 active torsions:
REMARK  status: ('A' for Active; 'I' for Inactive)
REMARK    1  A    between atoms: C_4  and  C_5 
REMARK    2  A    between atoms: C_10  and  C_11 
REMARK    3  A    between atoms: C_11  and  N_12 
REMARK    4  A    between atoms: N_12  and  C_14 
REMARK    5  A    between atoms: C_14  and  C_15 
REMARK       I    between atoms: C_15  and  N_16 
REMARK    6  A    between atoms: N_16  and  C_17 
ROOT
HETATM    1  N   UNL     1      42.113 -14.457   2.343  1.00  0.00    -0.063 N 
HETATM    2  H   UNL     1      41.717 -15.394   2.514  1.00  0.00     0.280 HD
HETATM    3  C   UNL     1      43.507 -14.675   1.826  1.00  0.00     0.270 C 
ENDROOT
BRANCH   1   4
HETATM    4  C   UNL     1      42.126 -13.713   3.651  1.00  0.00     0.277 C 
BRANCH   4   5
HETATM    5  C   UNL     1      41.371 -14.382   4.736  1.00  0.00     0.018 A 
HETATM    6  C   UNL     1      41.527 -15.710   5.223  1.00  0.00     0.120 A 
HETATM    7  N   UNL     1      40.665 -15.978   6.210  1.00  0.00    -0.172 NA
HETATM    8  N   UNL     1      39.941 -14.860   6.342  1.00  0.00    -0.288 N 
HETATM    9  H   UNL     1      39.193 -14.847   7.031  1.00  0.00     0.188 HD
HETATM   10  C   UNL     1      40.343 -13.861   5.499  1.00  0.00     0.120 A 
BRANCH   6  11
HETATM   11  C   UNL     1      42.531 -16.716   4.758  1.00  0.00     0.106 A 
HETATM   12  O   UNL     1      42.444 -17.418   3.585  1.00  0.00    -0.313 OA
HETATM   13  C   UNL     1      43.527 -18.246   3.525  1.00  0.00     0.050 A 
HETATM   14  C   UNL     1      43.623 -19.142   2.354  1.00  0.00     0.076 C 
HETATM   15  C   UNL     1      44.322 -18.066   4.634  1.00  0.00     0.035 A 
HETATM   16  C   UNL     1      43.687 -17.077   5.422  1.00  0.00     0.042 A 
ENDBRANCH   6  11
ENDBRANCH   4   5
ENDBRANCH   1   4
BRANCH   1  17
HETATM   17  C   UNL     1      41.188 -13.838   1.280  1.00  0.00     0.337 C 
BRANCH  17  18
HETATM   18  C   UNL     1      40.172 -14.865   0.780  1.00  0.00     0.248 C 
HETATM   19  N   UNL     1      39.548 -14.734  -0.423  1.00  0.00    -0.326 N 
HETATM   20  H   UNL     1      39.060 -15.587  -0.693  1.00  0.00     0.169 HD
HETATM   21  O   UNL     1      39.973 -15.880   1.458  1.00  0.00    -0.271 OA
BRANCH  19  22
HETATM   22  C   UNL     1      39.434 -13.656  -1.320  1.00  0.00     0.040 A 
HETATM   23  C   UNL     1      38.201 -12.990  -1.349  1.00  0.00     0.072 A 
HETATM   24  C   UNL     1      38.007 -11.899  -2.196  1.00  0.00     0.121 A 
HETATM   25  F   UNL     1      36.812 -11.296  -2.221  1.00  0.00    -0.206 F 
HETATM   26  C   UNL     1      39.026 -11.432  -3.008  1.00  0.00     0.084 A 
HETATM   27  C   UNL     1      40.251 -12.076  -2.958  1.00  0.00     0.121 A 
HETATM   28  F   UNL     1      41.262 -11.627  -3.711  1.00  0.00    -0.206 F 
HETATM   29  C   UNL     1      40.466 -13.178  -2.126  1.00  0.00     0.072 A 
ENDBRANCH  19  22
ENDBRANCH  17  18
ENDBRANCH   1  17
TORSDOF 6
ENDMDL
MODEL 10
REMARK VINA RESULT:      -7.8      3.890      7.641
REMARK  6 active torsions:
REMARK  status: ('A' for Active; 'I' for Inactive)
REMARK    1  A    between atoms: C_4  and  C_5 
REMARK    2  A    between atoms: C_10  and  C_11 
REMARK    3  A    between atoms: C_11  and  N_12 
REMARK    4  A    between atoms: N_12  and  C_14 
REMARK    5  A    between atoms: C_14  and  C_15 
REMARK       I    between atoms: C_15  and  N_16 
REMARK    6  A    between atoms: N_16  and  C_17 
ROOT
HETATM    1  N   UNL     1      42.228 -12.447   4.566  1.00  0.00    -0.063 N 
HETATM    2  H   UNL     1      41.609 -13.018   5.162  1.00  0.00     0.280 HD
HETATM    3  C   UNL     1      41.639 -11.064   4.545  1.00  0.00     0.270 C 
ENDROOT
BRANCH   1   4
HETATM    4  C   UNL     1      42.238 -13.057   3.190  1.00  0.00     0.277 C 
BRANCH   4   5
HETATM    5  C   UNL     1      41.031 -13.856   2.873  1.00  0.00     0.018 A 
HETATM    6  C   UNL     1      40.912 -15.273   2.803  1.00  0.00     0.120 A 
HETATM    7  N   UNL     1      39.668 -15.647   2.483  1.00  0.00    -0.172 NA
HETATM    8  N   UNL     1      39.000 -14.500   2.316  1.00  0.00    -0.288 N 
HETATM    9  H   UNL     1      38.022 -14.545   2.038  1.00  0.00     0.188 HD
HETATM   10  C   UNL     1      39.765 -13.395   2.565  1.00  0.00     0.120 A 
BRANCH   6  11
HETATM   11  C   UNL     1      41.990 -16.271   3.078  1.00  0.00     0.106 A 
HETATM   12  O   UNL     1      42.553 -16.490   4.308  1.00  0.00    -0.313 OA
HETATM   13  C   UNL     1      43.507 -17.453   4.152  1.00  0.00     0.050 A 
HETATM   14  C   UNL     1      44.286 -17.826   5.352  1.00  0.00     0.076 C 
HETATM   15  C   UNL     1      43.547 -17.874   2.843  1.00  0.00     0.035 A 
HETATM   16  C   UNL     1      42.566 -17.121   2.154  1.00  0.00     0.042 A 
ENDBRANCH   6  11
ENDBRANCH   4   5
ENDBRANCH   1   4
BRANCH   1  17
HETATM   17  C   UNL     1      43.591 -12.488   5.279  1.00  0.00     0.337 C 
BRANCH  17  18
HETATM   18  C   UNL     1      43.453 -13.081   6.682  1.00  0.00     0.248 C 
HETATM   19  N   UNL     1      43.632 -12.329   7.802  1.00  0.00    -0.326 N 
HETATM   20  H   UNL     1      43.314 -12.814   8.641  1.00  0.00     0.169 HD
HETATM   21  O   UNL     1      43.092 -14.259   6.794  1.00  0.00    -0.271 OA
BRANCH  19  22
HETATM   22  C   UNL     1      44.187 -11.053   8.009  1.00  0.00     0.040 A 
HETATM   23  C   UNL     1      43.320 -10.060   8.486  1.00  0.00     0.072 A 
HETATM   24  C   UNL     1      43.791  -8.772   8.736  1.00  0.00     0.121 A 
HETATM   25  F   UNL     1      42.937  -7.836   9.168  1.00  0.00    -0.206 F 
HETATM   26  C   UNL     1      45.123  -8.445   8.544  1.00  0.00     0.084 A 
HETATM   27  C   UNL     1      45.982  -9.435   8.098  1.00  0.00     0.121 A 
HETATM   28  F   UNL     1      47.280  -9.155   7.931  1.00  0.00    -0.206 F 
HETATM   29  C   UNL     1      45.532 -10.731   7.830  1.00  0.00     0.072 A 
ENDBRANCH  19  22
ENDBRANCH  17  18
ENDBRANCH   1  17
TORSDOF 6
ENDMDL
