MODEL 1
REMARK VINA RESULT:      -7.8      0.000      0.000
REMARK  4 active torsions:
REMARK  status: ('A' for Active; 'I' for Inactive)
REMARK    1  A    between atoms: N_8  and  C_10 
REMARK    2  A    between atoms: C_10  and  C_11 
REMARK    3  A    between atoms: C_14  and  C_15 
REMARK    4  A    between atoms: C_22  and  C_23 
ROOT
HETATM    1  C   UNL     1      43.550 -17.573   2.255  1.00  0.00     0.269 C 
HETATM    2  N   UNL     1      42.717 -16.406   2.744  1.00  0.00    -0.073 N 
HETATM    3  H   UNL     1      42.810 -15.685   2.017  1.00  0.00     0.279 HD
HETATM    4  C   UNL     1      43.244 -15.861   4.043  1.00  0.00     0.244 C 
HETATM    5  C   UNL     1      42.466 -14.593   4.488  1.00  0.00    -0.013 C 
HETATM    6  C   UNL     1      42.919 -14.242   5.936  1.00  0.00     0.039 C 
HETATM    7  C   UNL     1      42.385 -12.906   6.454  1.00  0.00     0.236 C 
HETATM    8  N   UNL     1      42.735 -11.791   5.506  1.00  0.00    -0.064 N 
HETATM    9  H   UNL     1      42.202 -10.974   5.854  1.00  0.00     0.280 HD
HETATM   10  C   UNL     1      42.284 -12.040   4.098  1.00  0.00     0.236 C 
HETATM   11  C   UNL     1      42.832 -13.377   3.592  1.00  0.00     0.039 C 
HETATM   12  C   UNL     1      40.944 -14.924   4.490  1.00  0.00     0.022 C 
HETATM   13  C   UNL     1      40.385 -15.579   3.198  1.00  0.00     0.045 C 
HETATM   14  C   UNL     1      41.252 -16.798   2.831  1.00  0.00     0.243 C 
ENDROOT
BRANCH  13  15
HETATM   15  C   UNL     1      40.106 -14.571   2.086  1.00  0.00    -0.052 A 
HETATM   16  C   UNL     1      40.394 -14.798   0.731  1.00  0.00     0.007 A 
HETATM   17  C   UNL     1      40.114 -13.829  -0.239  1.00  0.00     0.001 A 
HETATM   18  C   UNL     1      39.515 -12.627   0.122  1.00  0.00     0.000 A 
HETATM   19  C   UNL     1      39.175 -12.399   1.450  1.00  0.00     0.001 A 
HETATM   20  C   UNL     1      39.456 -13.365   2.417  1.00  0.00     0.007 A 
ENDBRANCH  13  15
BRANCH   8  21
HETATM   21  C   UNL     1      44.179 -11.277   5.626  1.00  0.00     0.317 C 
BRANCH  21  22
HETATM   22  C   UNL     1      44.573 -10.962   7.028  1.00  0.00     0.181 A 
HETATM   23  N   UNL     1      45.707 -11.395   7.577  1.00  0.00    -0.109 NA
HETATM   24  O   UNL     1      45.624 -10.913   8.887  1.00  0.00    -0.196 OA
HETATM   25  C   UNL     1      44.421 -10.264   8.995  1.00  0.00     0.177 A 
HETATM   26  N   UNL     1      43.722 -10.296   7.873  1.00  0.00    -0.207 NA
BRANCH  25  27
HETATM   27  C   UNL     1      43.959  -9.606  10.285  1.00  0.00     0.065 A 
HETATM   28  C   UNL     1      42.489  -9.670  10.649  1.00  0.00     0.013 A 
HETATM   29  C   UNL     1      43.469 -10.486  11.418  1.00  0.00     0.013 A 
ENDBRANCH  25  27
ENDBRANCH  21  22
ENDBRANCH   8  21
TORSDOF 4
ENDMDL
MODEL 2
REMARK VINA RESULT:      -7.6     17.182     19.495
REMARK  4 active torsions:
REMARK  status: ('A' for Active; 'I' for Inactive)
REMARK    1  A    between atoms: N_8  and  C_10 
REMARK    2  A    between atoms: C_10  and  C_11 
REMARK    3  A    between atoms: C_14  and  C_15 
REMARK    4  A    between atoms: C_22  and  C_23 
ROOT
HETATM    1  C   UNL     1      43.155 -32.871   1.364  1.00  0.00     0.269 C 
HETATM    2  N   UNL     1      43.969 -31.634   1.043  1.00  0.00    -0.073 N 
HETATM    3  H   UNL     1      44.420 -31.834   0.141  1.00  0.00     0.279 HD
HETATM    4  C   UNL     1      45.034 -31.393   2.078  1.00  0.00     0.244 C 
HETATM    5  C   UNL     1      45.944 -30.196   1.694  1.00  0.00    -0.013 C 
HETATM    6  C   UNL     1      46.854 -29.879   2.918  1.00  0.00     0.039 C 
HETATM    7  C   UNL     1      47.944 -28.844   2.638  1.00  0.00     0.236 C 
HETATM    8  N   UNL     1      48.776 -29.257   1.454  1.00  0.00    -0.064 N 
HETATM    9  H   UNL     1      49.369 -28.432   1.250  1.00  0.00     0.280 HD
HETATM   10  C   UNL     1      47.968 -29.532   0.222  1.00  0.00     0.236 C 
HETATM   11  C   UNL     1      46.885 -30.574   0.516  1.00  0.00     0.039 C 
HETATM   12  C   UNL     1      45.039 -28.965   1.391  1.00  0.00     0.022 C 
HETATM   13  C   UNL     1      43.869 -29.204   0.400  1.00  0.00     0.045 C 
HETATM   14  C   UNL     1      43.059 -30.432   0.856  1.00  0.00     0.243 C 
ENDROOT
BRANCH  13  15
HETATM   15  C   UNL     1      44.305 -29.170  -1.063  1.00  0.00    -0.052 A 
HETATM   16  C   UNL     1      43.942 -30.139  -2.013  1.00  0.00     0.007 A 
HETATM   17  C   UNL     1      44.378 -30.048  -3.339  1.00  0.00     0.001 A 
HETATM   18  C   UNL     1      45.162 -28.975  -3.749  1.00  0.00     0.000 A 
HETATM   19  C   UNL     1      45.493 -27.978  -2.839  1.00  0.00     0.001 A 
HETATM   20  C   UNL     1      45.059 -28.069  -1.516  1.00  0.00     0.007 A 
ENDBRANCH  13  15
BRANCH   8  21
HETATM   21  C   UNL     1      49.843 -30.320   1.761  1.00  0.00     0.317 C 
BRANCH  21  22
HETATM   22  C   UNL     1      50.659 -30.691   0.571  1.00  0.00     0.181 A 
HETATM   23  N   UNL     1      50.744 -29.924  -0.516  1.00  0.00    -0.109 NA
HETATM   24  O   UNL     1      51.551 -30.683  -1.370  1.00  0.00    -0.196 OA
HETATM   25  C   UNL     1      51.839 -31.850  -0.711  1.00  0.00     0.177 A 
HETATM   26  N   UNL     1      51.280 -31.911   0.485  1.00  0.00    -0.207 NA
BRANCH  25  27
HETATM   27  C   UNL     1      52.694 -32.947  -1.324  1.00  0.00     0.065 A 
HETATM   28  C   UNL     1      53.621 -32.592  -2.470  1.00  0.00     0.013 A 
HETATM   29  C   UNL     1      54.197 -32.896  -1.129  1.00  0.00     0.013 A 
ENDBRANCH  25  27
ENDBRANCH  21  22
ENDBRANCH   8  21
TORSDOF 4
ENDMDL
MODEL 3
REMARK VINA RESULT:      -7.6      3.541      8.148
REMARK  4 active torsions:
REMARK  status: ('A' for Active; 'I' for Inactive)
REMARK    1  A    between atoms: N_8  and  C_10 
REMARK    2  A    between atoms: C_10  and  C_11 
REMARK    3  A    between atoms: C_14  and  C_15 
REMARK    4  A    between atoms: C_22  and  C_23 
ROOT
HETATM    1  C   UNL     1      44.312 -12.791   7.145  1.00  0.00     0.269 C 
HETATM    2  N   UNL     1      43.396 -13.565   6.220  1.00  0.00    -0.073 N 
HETATM    3  H   UNL     1      44.011 -13.958   5.497  1.00  0.00     0.279 HD
HETATM    4  C   UNL     1      42.387 -12.661   5.564  1.00  0.00     0.244 C 
HETATM    5  C   UNL     1      41.523 -13.429   4.528  1.00  0.00    -0.013 C 
HETATM    6  C   UNL     1      40.369 -12.483   4.078  1.00  0.00     0.039 C 
HETATM    7  C   UNL     1      39.534 -13.020   2.915  1.00  0.00     0.236 C 
HETATM    8  N   UNL     1      40.414 -13.372   1.747  1.00  0.00    -0.064 N 
HETATM    9  H   UNL     1      39.789 -13.867   1.087  1.00  0.00     0.280 HD
HETATM   10  C   UNL     1      41.521 -14.321   2.097  1.00  0.00     0.236 C 
HETATM   11  C   UNL     1      42.352 -13.766   3.257  1.00  0.00     0.039 C 
HETATM   12  C   UNL     1      40.917 -14.685   5.223  1.00  0.00     0.022 C 
HETATM   13  C   UNL     1      41.918 -15.588   5.993  1.00  0.00     0.045 C 
HETATM   14  C   UNL     1      42.745 -14.721   6.960  1.00  0.00     0.243 C 
ENDROOT
BRANCH  13  15
HETATM   15  C   UNL     1      42.694 -16.536   5.083  1.00  0.00    -0.052 A 
HETATM   16  C   UNL     1      43.953 -17.073   5.398  1.00  0.00     0.007 A 
HETATM   17  C   UNL     1      44.610 -17.937   4.516  1.00  0.00     0.001 A 
HETATM   18  C   UNL     1      44.013 -18.304   3.316  1.00  0.00     0.000 A 
HETATM   19  C   UNL     1      42.746 -17.826   3.004  1.00  0.00     0.001 A 
HETATM   20  C   UNL     1      42.090 -16.963   3.883  1.00  0.00     0.007 A 
ENDBRANCH  13  15
BRANCH   8  21
HETATM   21  C   UNL     1      40.857 -12.172   0.894  1.00  0.00     0.317 C 
BRANCH  21  22
HETATM   22  C   UNL     1      40.633 -12.377  -0.564  1.00  0.00     0.181 A 
HETATM   23  N   UNL     1      41.078 -11.529  -1.492  1.00  0.00    -0.109 NA
HETATM   24  O   UNL     1      40.596 -12.087  -2.680  1.00  0.00    -0.196 OA
HETATM   25  C   UNL     1      39.878 -13.202  -2.333  1.00  0.00     0.177 A 
HETATM   26  N   UNL     1      39.850 -13.403  -1.027  1.00  0.00    -0.207 NA
BRANCH  25  27
HETATM   27  C   UNL     1      39.184 -14.081  -3.360  1.00  0.00     0.065 A 
HETATM   28  C   UNL     1      38.466 -15.329  -2.884  1.00  0.00     0.013 A 
HETATM   29  C   UNL     1      37.670 -14.159  -3.350  1.00  0.00     0.013 A 
ENDBRANCH  25  27
ENDBRANCH  21  22
ENDBRANCH   8  21
TORSDOF 4
ENDMDL
MODEL 4
REMARK VINA RESULT:      -7.5      3.805      8.140
REMARK  4 active torsions:
REMARK  status: ('A' for Active; 'I' for Inactive)
REMARK    1  A    between atoms: N_8  and  C_10 
REMARK    2  A    between atoms: C_10  and  C_11 
REMARK    3  A    between atoms: C_14  and  C_15 
REMARK    4  A    between atoms: C_22  and  C_23 
ROOT
HETATM    1  C   UNL     1      43.981 -13.160   6.761  1.00  0.00     0.269 C 
HETATM    2  N   UNL     1      43.174 -13.956   5.756  1.00  0.00    -0.073 N 
HETATM    3  H   UNL     1      43.864 -14.329   5.091  1.00  0.00     0.279 HD
HETATM    4  C   UNL     1      42.205 -13.079   5.011  1.00  0.00     0.244 C 
HETATM    5  C   UNL     1      41.459 -13.867   3.901  1.00  0.00    -0.013 C 
HETATM    6  C   UNL     1      40.325 -12.952   3.349  1.00  0.00     0.039 C 
HETATM    7  C   UNL     1      39.614 -13.509   2.115  1.00  0.00     0.236 C 
HETATM    8  N   UNL     1      40.606 -13.832   1.031  1.00  0.00    -0.064 N 
HETATM    9  H   UNL     1      40.057 -14.342   0.316  1.00  0.00     0.280 HD
HETATM   10  C   UNL     1      41.703 -14.751   1.479  1.00  0.00     0.236 C 
HETATM   11  C   UNL     1      42.409 -14.177   2.710  1.00  0.00     0.039 C 
HETATM   12  C   UNL     1      40.829 -15.142   4.537  1.00  0.00     0.022 C 
HETATM   13  C   UNL     1      41.781 -16.019   5.394  1.00  0.00     0.045 C 
HETATM   14  C   UNL     1      42.492 -15.132   6.433  1.00  0.00     0.243 C 
ENDROOT
BRANCH  13  15
HETATM   15  C   UNL     1      42.663 -16.942   4.557  1.00  0.00    -0.052 A 
HETATM   16  C   UNL     1      43.895 -17.458   4.992  1.00  0.00     0.007 A 
HETATM   17  C   UNL     1      44.654 -18.299   4.172  1.00  0.00     0.001 A 
HETATM   18  C   UNL     1      44.186 -18.665   2.914  1.00  0.00     0.000 A 
HETATM   19  C   UNL     1      42.947 -18.208   2.482  1.00  0.00     0.001 A 
HETATM   20  C   UNL     1      42.190 -17.367   3.299  1.00  0.00     0.007 A 
ENDBRANCH  13  15
BRANCH   8  21
HETATM   21  C   UNL     1      41.090 -12.617   0.223  1.00  0.00     0.317 C 
BRANCH  21  22
HETATM   22  C   UNL     1      40.289 -12.379  -1.010  1.00  0.00     0.181 A 
HETATM   23  N   UNL     1      40.771 -12.575  -2.237  1.00  0.00    -0.109 NA
HETATM   24  O   UNL     1      39.709 -12.177  -3.056  1.00  0.00    -0.196 OA
HETATM   25  C   UNL     1      38.705 -11.749  -2.226  1.00  0.00     0.177 A 
HETATM   26  N   UNL     1      39.034 -11.828  -0.948  1.00  0.00    -0.207 NA
BRANCH  25  27
HETATM   27  C   UNL     1      37.378 -11.226  -2.749  1.00  0.00     0.065 A 
HETATM   28  C   UNL     1      36.709 -10.079  -2.019  1.00  0.00     0.013 A 
HETATM   29  C   UNL     1      37.327  -9.836  -3.352  1.00  0.00     0.013 A 
ENDBRANCH  25  27
ENDBRANCH  21  22
ENDBRANCH   8  21
TORSDOF 4
ENDMDL
MODEL 5
REMARK VINA RESULT:      -7.3      2.961      8.440
REMARK  4 active torsions:
REMARK  status: ('A' for Active; 'I' for Inactive)
REMARK    1  A    between atoms: N_8  and  C_10 
REMARK    2  A    between atoms: C_10  and  C_11 
REMARK    3  A    between atoms: C_14  and  C_15 
REMARK    4  A    between atoms: C_22  and  C_23 
ROOT
HETATM    1  C   UNL     1      41.651  -6.165   5.324  1.00  0.00     0.269 C 
HETATM    2  N   UNL     1      41.722  -7.464   6.099  1.00  0.00    -0.073 N 
HETATM    3  H   UNL     1      42.722  -7.697   6.146  1.00  0.00     0.279 HD
HETATM    4  C   UNL     1      40.997  -8.572   5.384  1.00  0.00     0.244 C 
HETATM    5  C   UNL     1      41.166  -9.931   6.115  1.00  0.00    -0.013 C 
HETATM    6  C   UNL     1      40.203 -10.954   5.443  1.00  0.00     0.039 C 
HETATM    7  C   UNL     1      40.384 -12.395   5.923  1.00  0.00     0.236 C 
HETATM    8  N   UNL     1      41.814 -12.832   5.764  1.00  0.00    -0.064 N 
HETATM    9  H   UNL     1      41.867 -13.742   6.255  1.00  0.00     0.280 HD
HETATM   10  C   UNL     1      42.797 -11.917   6.429  1.00  0.00     0.236 C 
HETATM   11  C   UNL     1      42.608 -10.480   5.934  1.00  0.00     0.039 C 
HETATM   12  C   UNL     1      40.759  -9.743   7.607  1.00  0.00     0.022 C 
HETATM   13  C   UNL     1      41.416  -8.548   8.349  1.00  0.00     0.045 C 
HETATM   14  C   UNL     1      41.221  -7.265   7.520  1.00  0.00     0.243 C 
ENDROOT
BRANCH  13  15
HETATM   15  C   UNL     1      42.832  -8.847   8.833  1.00  0.00    -0.052 A 
HETATM   16  C   UNL     1      43.973  -8.149   8.403  1.00  0.00     0.007 A 
HETATM   17  C   UNL     1      45.244  -8.477   8.887  1.00  0.00     0.001 A 
HETATM   18  C   UNL     1      45.398  -9.487   9.829  1.00  0.00     0.000 A 
HETATM   19  C   UNL     1      44.280 -10.159  10.307  1.00  0.00     0.001 A 
HETATM   20  C   UNL     1      43.011  -9.834   9.824  1.00  0.00     0.007 A 
ENDBRANCH  13  15
BRANCH   8  21
HETATM   21  C   UNL     1      42.202 -13.244   4.334  1.00  0.00     0.317 C 
BRANCH  21  22
HETATM   22  C   UNL     1      42.666 -14.656   4.238  1.00  0.00     0.181 A 
HETATM   23  N   UNL     1      43.039 -15.370   5.300  1.00  0.00    -0.109 NA
HETATM   24  O   UNL     1      43.439 -16.585   4.734  1.00  0.00    -0.196 OA
HETATM   25  C   UNL     1      43.292 -16.458   3.377  1.00  0.00     0.177 A 
HETATM   26  N   UNL     1      42.844 -15.266   3.023  1.00  0.00    -0.207 NA
BRANCH  25  27
HETATM   27  C   UNL     1      43.636 -17.578   2.408  1.00  0.00     0.065 A 
HETATM   28  C   UNL     1      43.948 -18.952   2.965  1.00  0.00     0.013 A 
HETATM   29  C   UNL     1      42.662 -18.728   2.247  1.00  0.00     0.013 A 
ENDBRANCH  25  27
ENDBRANCH  21  22
ENDBRANCH   8  21
TORSDOF 4
ENDMDL
MODEL 6
REMARK VINA RESULT:      -7.3      3.479      7.069
REMARK  4 active torsions:
REMARK  status: ('A' for Active; 'I' for Inactive)
REMARK    1  A    between atoms: N_8  and  C_10 
REMARK    2  A    between atoms: C_10  and  C_11 
REMARK    3  A    between atoms: C_14  and  C_15 
REMARK    4  A    between atoms: C_22  and  C_23 
ROOT
HETATM    1  C   UNL     1      41.437 -10.110   0.846  1.00  0.00     0.269 C 
HETATM    2  N   UNL     1      40.955 -10.800   2.106  1.00  0.00    -0.073 N 
HETATM    3  H   UNL     1      41.456 -10.337   2.875  1.00  0.00     0.279 HD
HETATM    4  C   UNL     1      41.310 -12.262   2.103  1.00  0.00     0.244 C 
HETATM    5  C   UNL     1      40.922 -12.946   3.441  1.00  0.00    -0.013 C 
HETATM    6  C   UNL     1      41.108 -14.483   3.260  1.00  0.00     0.039 C 
HETATM    7  C   UNL     1      40.949 -15.290   4.548  1.00  0.00     0.236 C 
HETATM    8  N   UNL     1      41.868 -14.770   5.619  1.00  0.00    -0.064 N 
HETATM    9  H   UNL     1      41.576 -15.265   6.480  1.00  0.00     0.280 HD
HETATM   10  C   UNL     1      41.710 -13.302   5.882  1.00  0.00     0.236 C 
HETATM   11  C   UNL     1      41.879 -12.507   4.584  1.00  0.00     0.039 C 
HETATM   12  C   UNL     1      39.424 -12.640   3.736  1.00  0.00     0.022 C 
HETATM   13  C   UNL     1      39.001 -11.148   3.653  1.00  0.00     0.045 C 
HETATM   14  C   UNL     1      39.468 -10.563   2.306  1.00  0.00     0.243 C 
ENDROOT
BRANCH  13  15
HETATM   15  C   UNL     1      39.352 -10.354   4.908  1.00  0.00    -0.052 A 
HETATM   16  C   UNL     1      39.991  -9.103   4.892  1.00  0.00     0.007 A 
HETATM   17  C   UNL     1      40.285  -8.429   6.082  1.00  0.00     0.001 A 
HETATM   18  C   UNL     1      39.922  -8.975   7.308  1.00  0.00     0.000 A 
HETATM   19  C   UNL     1      39.244 -10.188   7.347  1.00  0.00     0.001 A 
HETATM   20  C   UNL     1      38.953 -10.862   6.160  1.00  0.00     0.007 A 
ENDBRANCH  13  15
BRANCH   8  21
HETATM   21  C   UNL     1      43.328 -15.234   5.490  1.00  0.00     0.317 C 
BRANCH  21  22
HETATM   22  C   UNL     1      43.454 -16.681   5.159  1.00  0.00     0.181 A 
HETATM   23  N   UNL     1      43.345 -17.646   6.072  1.00  0.00    -0.109 NA
HETATM   24  O   UNL     1      43.585 -18.806   5.329  1.00  0.00    -0.196 OA
HETATM   25  C   UNL     1      43.849 -18.408   4.044  1.00  0.00     0.177 A 
HETATM   26  N   UNL     1      43.808 -17.095   3.900  1.00  0.00    -0.207 NA
BRANCH  25  27
HETATM   27  C   UNL     1      44.170 -19.393   2.932  1.00  0.00     0.065 A 
HETATM   28  C   UNL     1      43.779 -20.846   3.111  1.00  0.00     0.013 A 
HETATM   29  C   UNL     1      43.026 -20.001   2.143  1.00  0.00     0.013 A 
ENDBRANCH  25  27
ENDBRANCH  21  22
ENDBRANCH   8  21
TORSDOF 4
ENDMDL
MODEL 7
REMARK VINA RESULT:      -7.2      4.550      7.394
REMARK  4 active torsions:
REMARK  status: ('A' for Active; 'I' for Inactive)
REMARK    1  A    between atoms: N_8  and  C_10 
REMARK    2  A    between atoms: C_10  and  C_11 
REMARK    3  A    between atoms: C_14  and  C_15 
REMARK    4  A    between atoms: C_22  and  C_23 
ROOT
HETATM    1  C   UNL     1      38.714  -8.698   3.269  1.00  0.00     0.269 C 
HETATM    2  N   UNL     1      39.284  -9.694   2.279  1.00  0.00    -0.073 N 
HETATM    3  H   UNL     1      38.474 -10.220   1.929  1.00  0.00     0.279 HD
HETATM    4  C   UNL     1      40.235 -10.650   2.947  1.00  0.00     0.244 C 
HETATM    5  C   UNL     1      40.731 -11.743   1.963  1.00  0.00    -0.013 C 
HETATM    6  C   UNL     1      41.873 -12.534   2.668  1.00  0.00     0.039 C 
HETATM    7  C   UNL     1      42.344 -13.772   1.903  1.00  0.00     0.236 C 
HETATM    8  N   UNL     1      41.184 -14.679   1.597  1.00  0.00    -0.064 N 
HETATM    9  H   UNL     1      41.572 -15.391   0.952  1.00  0.00     0.280 HD
HETATM   10  C   UNL     1      40.064 -13.995   0.873  1.00  0.00     0.236 C 
HETATM   11  C   UNL     1      39.599 -12.762   1.654  1.00  0.00     0.039 C 
HETATM   12  C   UNL     1      41.297 -11.043   0.692  1.00  0.00     0.022 C 
HETATM   13  C   UNL     1      40.380  -9.978   0.032  1.00  0.00     0.045 C 
HETATM   14  C   UNL     1      39.918  -8.971   1.103  1.00  0.00     0.243 C 
ENDROOT
BRANCH  13  15
HETATM   15  C   UNL     1      39.296 -10.585  -0.855  1.00  0.00    -0.052 A 
HETATM   16  C   UNL     1      37.937 -10.241  -0.781  1.00  0.00     0.007 A 
HETATM   17  C   UNL     1      36.995 -10.838  -1.624  1.00  0.00     0.001 A 
HETATM   18  C   UNL     1      37.394 -11.769  -2.577  1.00  0.00     0.000 A 
HETATM   19  C   UNL     1      38.740 -12.089  -2.703  1.00  0.00     0.001 A 
HETATM   20  C   UNL     1      39.681 -11.495  -1.860  1.00  0.00     0.007 A 
ENDBRANCH  13  15
BRANCH   8  21
HETATM   21  C   UNL     1      40.732 -15.560   2.773  1.00  0.00     0.317 C 
BRANCH  21  22
HETATM   22  C   UNL     1      41.781 -16.517   3.224  1.00  0.00     0.181 A 
HETATM   23  N   UNL     1      42.379 -16.429   4.412  1.00  0.00    -0.109 NA
HETATM   24  O   UNL     1      43.306 -17.476   4.371  1.00  0.00    -0.196 OA
HETATM   25  C   UNL     1      43.186 -18.066   3.140  1.00  0.00     0.177 A 
HETATM   26  N   UNL     1      42.272 -17.483   2.383  1.00  0.00    -0.207 NA
BRANCH  25  27
HETATM   27  C   UNL     1      44.040 -19.248   2.711  1.00  0.00     0.065 A 
HETATM   28  C   UNL     1      43.741 -20.613   3.298  1.00  0.00     0.013 A 
HETATM   29  C   UNL     1      43.406 -20.340   1.872  1.00  0.00     0.013 A 
ENDBRANCH  25  27
ENDBRANCH  21  22
ENDBRANCH   8  21
TORSDOF 4
ENDMDL
MODEL 8
REMARK VINA RESULT:      -7.0     17.353     18.874
REMARK  4 active torsions:
REMARK  status: ('A' for Active; 'I' for Inactive)
REMARK    1  A    between atoms: N_8  and  C_10 
REMARK    2  A    between atoms: C_10  and  C_11 
REMARK    3  A    between atoms: C_14  and  C_15 
REMARK    4  A    between atoms: C_22  and  C_23 
ROOT
HETATM    1  C   UNL     1      43.337 -33.156   0.389  1.00  0.00     0.269 C 
HETATM    2  N   UNL     1      44.123 -31.869   0.239  1.00  0.00    -0.073 N 
HETATM    3  H   UNL     1      44.531 -31.911  -0.704  1.00  0.00     0.279 HD
HETATM    4  C   UNL     1      45.236 -31.783   1.248  1.00  0.00     0.244 C 
HETATM    5  C   UNL     1      46.115 -30.524   1.023  1.00  0.00    -0.013 C 
HETATM    6  C   UNL     1      47.081 -30.396   2.238  1.00  0.00     0.039 C 
HETATM    7  C   UNL     1      48.147 -29.311   2.081  1.00  0.00     0.236 C 
HETATM    8  N   UNL     1      48.923 -29.510   0.808  1.00  0.00    -0.064 N 
HETATM    9  H   UNL     1      49.497 -28.653   0.714  1.00  0.00     0.280 HD
HETATM   10  C   UNL     1      48.058 -29.593  -0.414  1.00  0.00     0.236 C 
HETATM   11  C   UNL     1      47.000 -30.688  -0.244  1.00  0.00     0.039 C 
HETATM   12  C   UNL     1      45.185 -29.275   0.970  1.00  0.00     0.022 C 
HETATM   13  C   UNL     1      43.969 -29.368   0.009  1.00  0.00     0.045 C 
HETATM   14  C   UNL     1      43.194 -30.668   0.295  1.00  0.00     0.243 C 
ENDROOT
BRANCH  13  15
HETATM   15  C   UNL     1      44.332 -29.089  -1.447  1.00  0.00    -0.052 A 
HETATM   16  C   UNL     1      45.103 -27.993  -1.867  1.00  0.00     0.007 A 
HETATM   17  C   UNL     1      45.398 -27.795  -3.220  1.00  0.00     0.001 A 
HETATM   18  C   UNL     1      44.953 -28.701  -4.177  1.00  0.00     0.000 A 
HETATM   19  C   UNL     1      44.231 -29.820  -3.780  1.00  0.00     0.001 A 
HETATM   20  C   UNL     1      43.935 -30.017  -2.431  1.00  0.00     0.007 A 
ENDBRANCH  13  15
BRANCH   8  21
HETATM   21  C   UNL     1      50.014 -30.591   0.884  1.00  0.00     0.317 C 
BRANCH  21  22
HETATM   22  C   UNL     1      50.524 -30.810   2.267  1.00  0.00     0.181 A 
HETATM   23  N   UNL     1      51.248 -29.904   2.923  1.00  0.00    -0.109 NA
HETATM   24  O   UNL     1      51.541 -30.553   4.127  1.00  0.00    -0.196 OA
HETATM   25  C   UNL     1      50.985 -31.804   4.050  1.00  0.00     0.177 A 
HETATM   26  N   UNL     1      50.369 -32.017   2.900  1.00  0.00    -0.207 NA
BRANCH  25  27
HETATM   27  C   UNL     1      51.097 -32.821   5.174  1.00  0.00     0.065 A 
HETATM   28  C   UNL     1      51.622 -32.363   6.520  1.00  0.00     0.013 A 
HETATM   29  C   UNL     1      50.177 -32.690   6.371  1.00  0.00     0.013 A 
ENDBRANCH  25  27
ENDBRANCH  21  22
ENDBRANCH   8  21
TORSDOF 4
ENDMDL
MODEL 9
REMARK VINA RESULT:      -6.9     17.367     21.125
REMARK  4 active torsions:
REMARK  status: ('A' for Active; 'I' for Inactive)
REMARK    1  A    between atoms: N_8  and  C_10 
REMARK    2  A    between atoms: C_10  and  C_11 
REMARK    3  A    between atoms: C_14  and  C_15 
REMARK    4  A    between atoms: C_22  and  C_23 
ROOT
HETATM    1  C   UNL     1      45.960 -30.092   2.793  1.00  0.00     0.269 C 
HETATM    2  N   UNL     1      46.494 -29.795   1.406  1.00  0.00    -0.073 N 
HETATM    3  H   UNL     1      45.920 -30.363   0.769  1.00  0.00     0.279 HD
HETATM    4  C   UNL     1      47.933 -30.213   1.270  1.00  0.00     0.244 C 
HETATM    5  C   UNL     1      48.449 -30.019  -0.181  1.00  0.00    -0.013 C 
HETATM    6  C   UNL     1      49.989 -30.252  -0.171  1.00  0.00     0.039 C 
HETATM    7  C   UNL     1      50.627 -30.284  -1.561  1.00  0.00     0.236 C 
HETATM    8  N   UNL     1      49.945 -31.301  -2.435  1.00  0.00    -0.064 N 
HETATM    9  H   UNL     1      50.333 -31.136  -3.381  1.00  0.00     0.280 HD
HETATM   10  C   UNL     1      48.461 -31.109  -2.530  1.00  0.00     0.236 C 
HETATM   11  C   UNL     1      47.836 -31.085  -1.132  1.00  0.00     0.039 C 
HETATM   12  C   UNL     1      48.151 -28.555  -0.620  1.00  0.00     0.022 C 
HETATM   13  C   UNL     1      46.696 -28.059  -0.403  1.00  0.00     0.045 C 
HETATM   14  C   UNL     1      46.277 -28.334   1.054  1.00  0.00     0.243 C 
ENDROOT
BRANCH  13  15
HETATM   15  C   UNL     1      45.735 -28.520  -1.495  1.00  0.00    -0.052 A 
HETATM   16  C   UNL     1      44.567 -29.261  -1.251  1.00  0.00     0.007 A 
HETATM   17  C   UNL     1      43.730 -29.654  -2.301  1.00  0.00     0.001 A 
HETATM   18  C   UNL     1      44.027 -29.292  -3.610  1.00  0.00     0.000 A 
HETATM   19  C   UNL     1      45.150 -28.516  -3.871  1.00  0.00     0.001 A 
HETATM   20  C   UNL     1      45.987 -28.126  -2.825  1.00  0.00     0.007 A 
ENDBRANCH  13  15
BRANCH   8  21
HETATM   21  C   UNL     1      50.379 -32.755  -2.185  1.00  0.00     0.317 C 
BRANCH  21  22
HETATM   22  C   UNL     1      51.821 -32.993  -2.476  1.00  0.00     0.181 A 
HETATM   23  N   UNL     1      52.662 -33.519  -1.587  1.00  0.00    -0.109 NA
HETATM   24  O   UNL     1      53.884 -33.501  -2.266  1.00  0.00    -0.196 OA
HETATM   25  C   UNL     1      53.651 -32.929  -3.490  1.00  0.00     0.177 A 
HETATM   26  N   UNL     1      52.388 -32.570  -3.651  1.00  0.00    -0.207 NA
BRANCH  25  27
HETATM   27  C   UNL     1      54.748 -32.724  -4.521  1.00  0.00     0.065 A 
HETATM   28  C   UNL     1      56.050 -33.482  -4.359  1.00  0.00     0.013 A 
HETATM   29  C   UNL     1      55.107 -33.872  -5.443  1.00  0.00     0.013 A 
ENDBRANCH  25  27
ENDBRANCH  21  22
ENDBRANCH   8  21
TORSDOF 4
ENDMDL
MODEL 10
REMARK VINA RESULT:      -6.8     17.358     20.382
REMARK  4 active torsions:
REMARK  status: ('A' for Active; 'I' for Inactive)
REMARK    1  A    between atoms: N_8  and  C_10 
REMARK    2  A    between atoms: C_10  and  C_11 
REMARK    3  A    between atoms: C_14  and  C_15 
REMARK    4  A    between atoms: C_22  and  C_23 
ROOT
HETATM    1  C   UNL     1      50.026 -33.758  -1.730  1.00  0.00     0.269 C 
HETATM    2  N   UNL     1      49.776 -32.488  -0.942  1.00  0.00    -0.073 N 
HETATM    3  H   UNL     1      49.190 -32.774  -0.148  1.00  0.00     0.279 HD
HETATM    4  C   UNL     1      49.028 -31.472  -1.761  1.00  0.00     0.244 C 
HETATM    5  C   UNL     1      48.668 -30.216  -0.921  1.00  0.00    -0.013 C 
HETATM    6  C   UNL     1      48.111 -29.137  -1.897  1.00  0.00     0.039 C 
HETATM    7  C   UNL     1      47.531 -27.903  -1.204  1.00  0.00     0.236 C 
HETATM    8  N   UNL     1      46.482 -28.301  -0.202  1.00  0.00    -0.064 N 
HETATM    9  H   UNL     1      46.271 -27.430   0.317  1.00  0.00     0.280 HD
HETATM   10  C   UNL     1      46.963 -29.305   0.802  1.00  0.00     0.236 C 
HETATM   11  C   UNL     1      47.534 -30.536   0.093  1.00  0.00     0.039 C 
HETATM   12  C   UNL     1      49.967 -29.682  -0.249  1.00  0.00     0.022 C 
HETATM   13  C   UNL     1      50.816 -30.727   0.524  1.00  0.00     0.045 C 
HETATM   14  C   UNL     1      51.080 -31.941  -0.388  1.00  0.00     0.243 C 
ENDROOT
BRANCH  13  15
HETATM   15  C   UNL     1      50.281 -31.020   1.923  1.00  0.00    -0.052 A 
HETATM   16  C   UNL     1      50.034 -32.312   2.415  1.00  0.00     0.007 A 
HETATM   17  C   UNL     1      49.541 -32.509   3.709  1.00  0.00     0.001 A 
HETATM   18  C   UNL     1      49.311 -31.423   4.546  1.00  0.00     0.000 A 
HETATM   19  C   UNL     1      49.595 -30.138   4.100  1.00  0.00     0.001 A 
HETATM   20  C   UNL     1      50.085 -29.941   2.808  1.00  0.00     0.007 A 
ENDBRANCH  13  15
BRANCH   8  21
HETATM   21  C   UNL     1      45.107 -28.624  -0.809  1.00  0.00     0.317 C 
BRANCH  21  22
HETATM   22  C   UNL     1      45.143 -28.777  -2.291  1.00  0.00     0.181 A 
HETATM   23  N   UNL     1      45.095 -27.741  -3.127  1.00  0.00    -0.109 NA
HETATM   24  O   UNL     1      45.098 -28.355  -4.384  1.00  0.00    -0.196 OA
HETATM   25  C   UNL     1      45.115 -29.709  -4.165  1.00  0.00     0.177 A 
HETATM   26  N   UNL     1      45.113 -30.016  -2.879  1.00  0.00    -0.207 NA
BRANCH  25  27
HETATM   27  C   UNL     1      45.115 -30.722  -5.298  1.00  0.00     0.065 A 
HETATM   28  C   UNL     1      44.241 -31.954  -5.173  1.00  0.00     0.013 A 
HETATM   29  C   UNL     1      43.861 -30.881  -6.134  1.00  0.00     0.013 A 
ENDBRANCH  25  27
ENDBRANCH  21  22
ENDBRANCH   8  21
TORSDOF 4
ENDMDL
