MODEL 1
REMARK VINA RESULT:      -9.0      0.000      0.000
REMARK  8 active torsions:
REMARK  status: ('A' for Active; 'I' for Inactive)
REMARK    1  A    between atoms: C_2  and  O_3 
REMARK    2  A    between atoms: O_3  and  C_4 
REMARK    3  A    between atoms: C_4  and  C_5 
REMARK    4  A    between atoms: C_6  and  C_8 
REMARK    5  A    between atoms: C_6  and  O_7 
REMARK    6  A    between atoms: C_16  and  C_17 
REMARK    7  A    between atoms: C_18  and  C_19 
REMARK    8  A    between atoms: N_26  and  C_27 
ROOT
HETATM    1  C   UNL     1      40.674 -13.902   4.052  1.00  0.00     0.177 C 
HETATM    2  C   UNL     1      40.115 -14.159   2.629  1.00  0.00     0.250 C 
HETATM    3  N   UNL     1      40.259 -12.952   1.842  1.00  0.00    -0.303 N 
HETATM    4  C   UNL     1      41.398 -12.210   1.854  1.00  0.00     0.319 C 
HETATM    5  O   UNL     1      41.631 -11.388   0.979  1.00  0.00    -0.247 OA
HETATM    6  N   UNL     1      42.232 -12.392   2.910  1.00  0.00    -0.333 N 
HETATM    7  C   UNL     1      42.129 -13.462   3.885  1.00  0.00     0.142 C 
HETATM    8  H   UNL     1      39.710 -12.868   0.995  1.00  0.00     0.167 HD
HETATM    9  H   UNL     1      43.088 -11.852   2.842  1.00  0.00     0.165 HD
ENDROOT
BRANCH   7  10
HETATM   10  C   UNL     1      42.929 -13.149   5.124  1.00  0.00     0.015 A 
HETATM   11  C   UNL     1      43.543 -14.074   6.033  1.00  0.00     0.097 A 
HETATM   12  N   UNL     1      44.194 -13.438   7.013  1.00  0.00    -0.167 NA
HETATM   13  N   UNL     1      43.995 -12.122   6.799  1.00  0.00    -0.244 N 
HETATM   14  C   UNL     1      43.192 -11.917   5.698  1.00  0.00     0.130 A 
BRANCH  11  15
HETATM   15  C   UNL     1      43.552 -15.537   5.993  1.00  0.00    -0.005 A 
HETATM   16  C   UNL     1      43.849 -16.197   4.793  1.00  0.00     0.014 A 
HETATM   17  C   UNL     1      43.849 -17.593   4.733  1.00  0.00     0.001 A 
HETATM   18  C   UNL     1      43.556 -18.339   5.872  1.00  0.00     0.000 A 
HETATM   19  C   UNL     1      43.275 -17.693   7.074  1.00  0.00     0.001 A 
HETATM   20  C   UNL     1      43.280 -16.297   7.138  1.00  0.00     0.014 A 
ENDBRANCH  11  15
BRANCH  13  21
HETATM   21  C   UNL     1      44.581 -11.147   7.655  1.00  0.00     0.058 A 
HETATM   22  C   UNL     1      45.766 -10.508   7.260  1.00  0.00     0.031 A 
HETATM   23  C   UNL     1      46.357  -9.544   8.078  1.00  0.00     0.002 A 
HETATM   24  C   UNL     1      45.768  -9.208   9.295  1.00  0.00     0.000 A 
HETATM   25  C   UNL     1      44.589  -9.836   9.696  1.00  0.00     0.002 A 
HETATM   26  C   UNL     1      43.994 -10.804   8.882  1.00  0.00     0.031 A 
ENDBRANCH  13  21
ENDBRANCH   7  10
BRANCH   1  27
HETATM   27  C   UNL     1      39.757 -12.910   4.743  1.00  0.00     0.270 C 
HETATM   28  O   UNL     1      39.449 -13.047   5.925  1.00  0.00    -0.265 OA
BRANCH  27  29
HETATM   29  O   UNL     1      39.281 -11.922   3.952  1.00  0.00    -0.321 OA
BRANCH  29  30
HETATM   30  C   UNL     1      39.054 -10.647   4.575  1.00  0.00     0.174 C 
HETATM   31  C   UNL     1      40.309  -9.797   4.514  1.00  0.00     0.034 C 
ENDBRANCH  29  30
ENDBRANCH  27  29
ENDBRANCH   1  27
BRANCH   2  32
HETATM   32  C   UNL     1      40.833 -15.394   1.952  1.00  0.00     0.439 C 
HETATM   33  F   UNL     1      41.270 -16.271   2.890  1.00  0.00    -0.166 F 
HETATM   34  F   UNL     1      39.998 -16.063   1.122  1.00  0.00    -0.166 F 
HETATM   35  F   UNL     1      41.908 -15.043   1.212  1.00  0.00    -0.166 F 
ENDBRANCH   2  32
BRANCH   2  36
HETATM   36  O   UNL     1      38.706 -14.439   2.625  1.00  0.00    -0.363 OA
HETATM   37  H   UNL     1      38.444 -14.818   3.487  1.00  0.00     0.213 HD
ENDBRANCH   2  36
TORSDOF 8
ENDMDL
MODEL 2
REMARK VINA RESULT:      -8.8      2.986      6.679
REMARK  8 active torsions:
REMARK  status: ('A' for Active; 'I' for Inactive)
REMARK    1  A    between atoms: C_2  and  O_3 
REMARK    2  A    between atoms: O_3  and  C_4 
REMARK    3  A    between atoms: C_4  and  C_5 
REMARK    4  A    between atoms: C_6  and  C_8 
REMARK    5  A    between atoms: C_6  and  O_7 
REMARK    6  A    between atoms: C_16  and  C_17 
REMARK    7  A    between atoms: C_18  and  C_19 
REMARK    8  A    between atoms: N_26  and  C_27 
ROOT
HETATM    1  C   UNL     1      42.972 -13.253   4.713  1.00  0.00     0.177 C 
HETATM    2  C   UNL     1      42.945 -13.088   6.254  1.00  0.00     0.250 C 
HETATM    3  N   UNL     1      41.704 -12.448   6.637  1.00  0.00    -0.303 N 
HETATM    4  C   UNL     1      40.506 -12.811   6.107  1.00  0.00     0.319 C 
HETATM    5  O   UNL     1      39.453 -12.496   6.641  1.00  0.00    -0.247 OA
HETATM    6  N   UNL     1      40.542 -13.493   4.933  1.00  0.00    -0.333 N 
HETATM    7  C   UNL     1      41.732 -14.063   4.330  1.00  0.00     0.142 C 
HETATM    8  H   UNL     1      41.649 -12.031   7.558  1.00  0.00     0.167 HD
HETATM    9  H   UNL     1      39.624 -13.783   4.610  1.00  0.00     0.165 HD
ENDROOT
BRANCH   7  10
HETATM   10  C   UNL     1      41.507 -14.382   2.874  1.00  0.00     0.015 A 
HETATM   11  C   UNL     1      41.912 -15.557   2.157  1.00  0.00     0.097 A 
HETATM   12  N   UNL     1      41.520 -15.510   0.879  1.00  0.00    -0.167 NA
HETATM   13  N   UNL     1      40.903 -14.321   0.722  1.00  0.00    -0.244 N 
HETATM   14  C   UNL     1      40.926 -13.596   1.894  1.00  0.00     0.130 A 
BRANCH  11  15
HETATM   15  C   UNL     1      42.637 -16.731   2.645  1.00  0.00    -0.005 A 
HETATM   16  C   UNL     1      43.371 -16.648   3.836  1.00  0.00     0.014 A 
HETATM   17  C   UNL     1      44.080 -17.754   4.310  1.00  0.00     0.001 A 
HETATM   18  C   UNL     1      44.059 -18.952   3.600  1.00  0.00     0.000 A 
HETATM   19  C   UNL     1      43.319 -19.050   2.423  1.00  0.00     0.001 A 
HETATM   20  C   UNL     1      42.604 -17.947   1.950  1.00  0.00     0.014 A 
ENDBRANCH  11  15
BRANCH  13  21
HETATM   21  C   UNL     1      40.335 -13.953  -0.530  1.00  0.00     0.058 A 
HETATM   22  C   UNL     1      39.447 -14.835  -1.167  1.00  0.00     0.031 A 
HETATM   23  C   UNL     1      38.871 -14.496  -2.392  1.00  0.00     0.002 A 
HETATM   24  C   UNL     1      39.174 -13.275  -2.989  1.00  0.00     0.000 A 
HETATM   25  C   UNL     1      40.052 -12.391  -2.363  1.00  0.00     0.002 A 
HETATM   26  C   UNL     1      40.635 -12.725  -1.138  1.00  0.00     0.031 A 
ENDBRANCH  13  21
ENDBRANCH   7  10
BRANCH   1  27
HETATM   27  C   UNL     1      43.075 -11.870   4.096  1.00  0.00     0.270 C 
HETATM   28  O   UNL     1      44.165 -11.392   3.789  1.00  0.00    -0.265 OA
BRANCH  27  29
HETATM   29  O   UNL     1      41.902 -11.211   3.967  1.00  0.00    -0.321 OA
BRANCH  29  30
HETATM   30  C   UNL     1      41.919  -9.800   4.240  1.00  0.00     0.174 C 
HETATM   31  C   UNL     1      40.565  -9.344   4.752  1.00  0.00     0.034 C 
ENDBRANCH  29  30
ENDBRANCH  27  29
ENDBRANCH   1  27
BRANCH   2  32
HETATM   32  C   UNL     1      43.137 -14.481   6.976  1.00  0.00     0.439 C 
HETATM   33  F   UNL     1      44.280 -15.085   6.565  1.00  0.00    -0.166 F 
HETATM   34  F   UNL     1      43.208 -14.340   8.322  1.00  0.00    -0.166 F 
HETATM   35  F   UNL     1      42.128 -15.348   6.735  1.00  0.00    -0.166 F 
ENDBRANCH   2  32
BRANCH   2  36
HETATM   36  O   UNL     1      43.978 -12.217   6.740  1.00  0.00    -0.363 OA
HETATM   37  H   UNL     1      43.577 -11.409   7.115  1.00  0.00     0.213 HD
ENDBRANCH   2  36
TORSDOF 8
ENDMDL
MODEL 3
REMARK VINA RESULT:      -8.8      2.216      3.041
REMARK  8 active torsions:
REMARK  status: ('A' for Active; 'I' for Inactive)
REMARK    1  A    between atoms: C_2  and  O_3 
REMARK    2  A    between atoms: O_3  and  C_4 
REMARK    3  A    between atoms: C_4  and  C_5 
REMARK    4  A    between atoms: C_6  and  C_8 
REMARK    5  A    between atoms: C_6  and  O_7 
REMARK    6  A    between atoms: C_16  and  C_17 
REMARK    7  A    between atoms: C_18  and  C_19 
REMARK    8  A    between atoms: N_26  and  C_27 
ROOT
HETATM    1  C   UNL     1      40.303 -12.264   1.900  1.00  0.00     0.177 C 
HETATM    2  C   UNL     1      39.751 -11.902   0.498  1.00  0.00     0.250 C 
HETATM    3  N   UNL     1      39.804 -10.466   0.328  1.00  0.00    -0.303 N 
HETATM    4  C   UNL     1      40.888  -9.730   0.693  1.00  0.00     0.319 C 
HETATM    5  O   UNL     1      41.055  -8.593   0.277  1.00  0.00    -0.247 OA
HETATM    6  N   UNL     1      41.742 -10.305   1.580  1.00  0.00    -0.333 N 
HETATM    7  C   UNL     1      41.723 -11.699   1.979  1.00  0.00     0.142 C 
HETATM    8  H   UNL     1      39.243 -10.053  -0.408  1.00  0.00     0.167 HD
HETATM    9  H   UNL     1      42.557  -9.734   1.777  1.00  0.00     0.165 HD
ENDROOT
BRANCH   7  10
HETATM   10  C   UNL     1      42.509 -11.913   3.248  1.00  0.00     0.015 A 
HETATM   11  C   UNL     1      43.004 -13.151   3.778  1.00  0.00     0.097 A 
HETATM   12  N   UNL     1      43.681 -12.960   4.915  1.00  0.00    -0.167 NA
HETATM   13  N   UNL     1      43.615 -11.638   5.171  1.00  0.00    -0.244 N 
HETATM   14  C   UNL     1      42.869 -10.987   4.211  1.00  0.00     0.130 A 
BRANCH  11  15
HETATM   15  C   UNL     1      42.876 -14.504   3.235  1.00  0.00    -0.005 A 
HETATM   16  C   UNL     1      42.165 -15.476   3.953  1.00  0.00     0.014 A 
HETATM   17  C   UNL     1      42.043 -16.776   3.458  1.00  0.00     0.001 A 
HETATM   18  C   UNL     1      42.628 -17.115   2.239  1.00  0.00     0.000 A 
HETATM   19  C   UNL     1      43.323 -16.153   1.510  1.00  0.00     0.001 A 
HETATM   20  C   UNL     1      43.441 -14.850   2.001  1.00  0.00     0.014 A 
ENDBRANCH  11  15
BRANCH  13  21
HETATM   21  C   UNL     1      44.263 -11.081   6.309  1.00  0.00     0.058 A 
HETATM   22  C   UNL     1      43.496 -10.415   7.278  1.00  0.00     0.031 A 
HETATM   23  C   UNL     1      44.106  -9.866   8.408  1.00  0.00     0.002 A 
HETATM   24  C   UNL     1      45.483  -9.981   8.580  1.00  0.00     0.000 A 
HETATM   25  C   UNL     1      46.252 -10.643   7.625  1.00  0.00     0.002 A 
HETATM   26  C   UNL     1      45.649 -11.192   6.490  1.00  0.00     0.031 A 
ENDBRANCH  13  21
ENDBRANCH   7  10
BRANCH   1  27
HETATM   27  C   UNL     1      39.325 -11.743   2.937  1.00  0.00     0.270 C 
HETATM   28  O   UNL     1      38.832 -10.622   2.838  1.00  0.00    -0.265 OA
BRANCH  27  29
HETATM   29  O   UNL     1      39.093 -12.577   3.976  1.00  0.00    -0.321 OA
BRANCH  29  30
HETATM   30  C   UNL     1      39.427 -12.088   5.285  1.00  0.00     0.174 C 
HETATM   31  C   UNL     1      40.110 -13.173   6.097  1.00  0.00     0.034 C 
ENDBRANCH  29  30
ENDBRANCH  27  29
ENDBRANCH   1  27
BRANCH   2  32
HETATM   32  C   UNL     1      40.549 -12.660  -0.638  1.00  0.00     0.439 C 
HETATM   33  F   UNL     1      41.110 -13.797  -0.157  1.00  0.00    -0.166 F 
HETATM   34  F   UNL     1      39.741 -13.006  -1.669  1.00  0.00    -0.166 F 
HETATM   35  F   UNL     1      41.550 -11.921  -1.167  1.00  0.00    -0.166 F 
ENDBRANCH   2  32
BRANCH   2  36
HETATM   36  O   UNL     1      38.366 -12.245   0.338  1.00  0.00    -0.363 OA
HETATM   37  H   UNL     1      37.951 -11.644  -0.311  1.00  0.00     0.213 HD
ENDBRANCH   2  36
TORSDOF 8
ENDMDL
MODEL 4
REMARK VINA RESULT:      -8.7      2.998      6.941
REMARK  8 active torsions:
REMARK  status: ('A' for Active; 'I' for Inactive)
REMARK    1  A    between atoms: C_2  and  O_3 
REMARK    2  A    between atoms: O_3  and  C_4 
REMARK    3  A    between atoms: C_4  and  C_5 
REMARK    4  A    between atoms: C_6  and  C_8 
REMARK    5  A    between atoms: C_6  and  O_7 
REMARK    6  A    between atoms: C_16  and  C_17 
REMARK    7  A    between atoms: C_18  and  C_19 
REMARK    8  A    between atoms: N_26  and  C_27 
ROOT
HETATM    1  C   UNL     1      40.505 -13.701   5.287  1.00  0.00     0.177 C 
HETATM    2  C   UNL     1      40.409 -12.255   5.836  1.00  0.00     0.250 C 
HETATM    3  N   UNL     1      41.701 -11.863   6.358  1.00  0.00    -0.303 N 
HETATM    4  C   UNL     1      42.860 -12.118   5.694  1.00  0.00     0.319 C 
HETATM    5  O   UNL     1      43.895 -11.530   5.972  1.00  0.00    -0.247 OA
HETATM    6  N   UNL     1      42.817 -13.091   4.747  1.00  0.00    -0.333 N 
HETATM    7  C   UNL     1      41.608 -13.703   4.228  1.00  0.00     0.142 C 
HETATM    8  H   UNL     1      41.740 -11.068   6.984  1.00  0.00     0.167 HD
HETATM    9  H   UNL     1      43.694 -13.203   4.248  1.00  0.00     0.165 HD
ENDROOT
BRANCH   7  10
HETATM   10  C   UNL     1      41.915 -14.996   3.516  1.00  0.00     0.015 A 
HETATM   11  C   UNL     1      41.676 -15.320   2.138  1.00  0.00     0.097 A 
HETATM   12  N   UNL     1      42.098 -16.556   1.847  1.00  0.00    -0.167 NA
HETATM   13  N   UNL     1      42.573 -17.069   3.000  1.00  0.00    -0.244 N 
HETATM   14  C   UNL     1      42.427 -16.172   4.036  1.00  0.00     0.130 A 
BRANCH  11  15
HETATM   15  C   UNL     1      41.082 -14.495   1.086  1.00  0.00    -0.005 A 
HETATM   16  C   UNL     1      40.128 -15.051   0.223  1.00  0.00     0.014 A 
HETATM   17  C   UNL     1      39.560 -14.283  -0.796  1.00  0.00     0.001 A 
HETATM   18  C   UNL     1      39.938 -12.952  -0.958  1.00  0.00     0.000 A 
HETATM   19  C   UNL     1      40.874 -12.385  -0.096  1.00  0.00     0.001 A 
HETATM   20  C   UNL     1      41.439 -13.150   0.928  1.00  0.00     0.014 A 
ENDBRANCH  11  15
BRANCH  13  21
HETATM   21  C   UNL     1      43.131 -18.378   3.040  1.00  0.00     0.058 A 
HETATM   22  C   UNL     1      43.771 -18.816   4.210  1.00  0.00     0.031 A 
HETATM   23  C   UNL     1      44.321 -20.098   4.278  1.00  0.00     0.002 A 
HETATM   24  C   UNL     1      44.233 -20.952   3.181  1.00  0.00     0.000 A 
HETATM   25  C   UNL     1      43.597 -20.526   2.015  1.00  0.00     0.002 A 
HETATM   26  C   UNL     1      43.047 -19.244   1.939  1.00  0.00     0.031 A 
ENDBRANCH  13  21
ENDBRANCH   7  10
BRANCH   1  27
HETATM   27  C   UNL     1      40.716 -14.636   6.464  1.00  0.00     0.270 C 
HETATM   28  O   UNL     1      39.789 -15.301   6.921  1.00  0.00    -0.265 OA
BRANCH  27  29
HETATM   29  O   UNL     1      41.965 -14.631   6.982  1.00  0.00    -0.321 OA
BRANCH  29  30
HETATM   30  C   UNL     1      42.433 -15.864   7.553  1.00  0.00     0.174 C 
HETATM   31  C   UNL     1      43.887 -16.098   7.187  1.00  0.00     0.034 C 
ENDBRANCH  29  30
ENDBRANCH  27  29
ENDBRANCH   1  27
BRANCH   2  32
HETATM   32  C   UNL     1      39.896 -11.259   4.721  1.00  0.00     0.439 C 
HETATM   33  F   UNL     1      38.858 -10.515   5.178  1.00  0.00    -0.166 F 
HETATM   34  F   UNL     1      40.871 -10.405   4.327  1.00  0.00    -0.166 F 
HETATM   35  F   UNL     1      39.466 -11.888   3.604  1.00  0.00    -0.166 F 
ENDBRANCH   2  32
BRANCH   2  36
HETATM   36  O   UNL     1      39.508 -12.139   6.948  1.00  0.00    -0.363 OA
HETATM   37  H   UNL     1      38.966 -11.332   6.850  1.00  0.00     0.213 HD
ENDBRANCH   2  36
TORSDOF 8
ENDMDL
MODEL 5
REMARK VINA RESULT:      -8.6      0.874      1.679
REMARK  8 active torsions:
REMARK  status: ('A' for Active; 'I' for Inactive)
REMARK    1  A    between atoms: C_2  and  O_3 
REMARK    2  A    between atoms: O_3  and  C_4 
REMARK    3  A    between atoms: C_4  and  C_5 
REMARK    4  A    between atoms: C_6  and  C_8 
REMARK    5  A    between atoms: C_6  and  O_7 
REMARK    6  A    between atoms: C_16  and  C_17 
REMARK    7  A    between atoms: C_18  and  C_19 
REMARK    8  A    between atoms: N_26  and  C_27 
ROOT
HETATM    1  C   UNL     1      40.790 -13.872   3.815  1.00  0.00     0.177 C 
HETATM    2  C   UNL     1      40.213 -14.173   2.408  1.00  0.00     0.250 C 
HETATM    3  N   UNL     1      40.204 -12.951   1.632  1.00  0.00    -0.303 N 
HETATM    4  C   UNL     1      41.258 -12.093   1.616  1.00  0.00     0.319 C 
HETATM    5  O   UNL     1      41.374 -11.244   0.745  1.00  0.00    -0.247 OA
HETATM    6  N   UNL     1      42.142 -12.196   2.643  1.00  0.00    -0.333 N 
HETATM    7  C   UNL     1      42.185 -13.279   3.607  1.00  0.00     0.142 C 
HETATM    8  H   UNL     1      39.621 -12.918   0.804  1.00  0.00     0.167 HD
HETATM    9  H   UNL     1      42.934 -11.568   2.553  1.00  0.00     0.165 HD
ENDROOT
BRANCH   7  10
HETATM   10  C   UNL     1      42.988 -12.895   4.823  1.00  0.00     0.015 A 
HETATM   11  C   UNL     1      43.594 -13.766   5.789  1.00  0.00     0.097 A 
HETATM   12  N   UNL     1      44.252 -13.074   6.726  1.00  0.00    -0.167 NA
HETATM   13  N   UNL     1      44.066 -11.772   6.428  1.00  0.00    -0.244 N 
HETATM   14  C   UNL     1      43.264 -11.631   5.316  1.00  0.00     0.130 A 
BRANCH  11  15
HETATM   15  C   UNL     1      43.588 -15.228   5.845  1.00  0.00    -0.005 A 
HETATM   16  C   UNL     1      43.579 -15.967   4.654  1.00  0.00     0.014 A 
HETATM   17  C   UNL     1      43.560 -17.364   4.687  1.00  0.00     0.001 A 
HETATM   18  C   UNL     1      43.554 -18.032   5.909  1.00  0.00     0.000 A 
HETATM   19  C   UNL     1      43.579 -17.306   7.099  1.00  0.00     0.001 A 
HETATM   20  C   UNL     1      43.604 -15.910   7.068  1.00  0.00     0.014 A 
ENDBRANCH  11  15
BRANCH  13  21
HETATM   21  C   UNL     1      44.662 -10.750   7.220  1.00  0.00     0.058 A 
HETATM   22  C   UNL     1      43.839  -9.901   7.977  1.00  0.00     0.031 A 
HETATM   23  C   UNL     1      44.398  -8.895   8.768  1.00  0.00     0.002 A 
HETATM   24  C   UNL     1      45.781  -8.731   8.810  1.00  0.00     0.000 A 
HETATM   25  C   UNL     1      46.606  -9.571   8.063  1.00  0.00     0.002 A 
HETATM   26  C   UNL     1      46.053 -10.579   7.268  1.00  0.00     0.031 A 
ENDBRANCH  13  21
ENDBRANCH   7  10
BRANCH   1  27
HETATM   27  C   UNL     1      39.798 -12.987   4.548  1.00  0.00     0.270 C 
HETATM   28  O   UNL     1      39.506 -11.873   4.122  1.00  0.00    -0.265 OA
BRANCH  27  29
HETATM   29  O   UNL     1      39.320 -13.499   5.704  1.00  0.00    -0.321 OA
BRANCH  29  30
HETATM   30  C   UNL     1      40.249 -14.229   6.522  1.00  0.00     0.174 C 
HETATM   31  C   UNL     1      39.947 -15.715   6.471  1.00  0.00     0.034 C 
ENDBRANCH  29  30
ENDBRANCH  27  29
ENDBRANCH   1  27
BRANCH   2  32
HETATM   32  C   UNL     1      41.034 -15.320   1.693  1.00  0.00     0.439 C 
HETATM   33  F   UNL     1      40.938 -16.484   2.383  1.00  0.00    -0.166 F 
HETATM   34  F   UNL     1      40.581 -15.549   0.437  1.00  0.00    -0.166 F 
HETATM   35  F   UNL     1      42.351 -15.038   1.580  1.00  0.00    -0.166 F 
ENDBRANCH   2  32
BRANCH   2  36
HETATM   36  O   UNL     1      38.843 -14.599   2.447  1.00  0.00    -0.363 OA
HETATM   37  H   UNL     1      38.734 -15.407   1.907  1.00  0.00     0.213 HD
ENDBRANCH   2  36
TORSDOF 8
ENDMDL
MODEL 6
REMARK VINA RESULT:      -7.9     17.240     19.213
REMARK  8 active torsions:
REMARK  status: ('A' for Active; 'I' for Inactive)
REMARK    1  A    between atoms: C_2  and  O_3 
REMARK    2  A    between atoms: O_3  and  C_4 
REMARK    3  A    between atoms: C_4  and  C_5 
REMARK    4  A    between atoms: C_6  and  C_8 
REMARK    5  A    between atoms: C_6  and  O_7 
REMARK    6  A    between atoms: C_16  and  C_17 
REMARK    7  A    between atoms: C_18  and  C_19 
REMARK    8  A    between atoms: N_26  and  C_27 
ROOT
HETATM    1  C   UNL     1      47.681 -29.821   0.266  1.00  0.00     0.177 C 
HETATM    2  C   UNL     1      49.118 -30.298  -0.069  1.00  0.00     0.250 C 
HETATM    3  N   UNL     1      49.525 -31.286   0.907  1.00  0.00    -0.303 N 
HETATM    4  C   UNL     1      48.701 -32.286   1.316  1.00  0.00     0.319 C 
HETATM    5  O   UNL     1      49.135 -33.274   1.890  1.00  0.00    -0.247 OA
HETATM    6  N   UNL     1      47.372 -32.105   1.101  1.00  0.00    -0.333 N 
HETATM    7  C   UNL     1      46.790 -31.064   0.275  1.00  0.00     0.142 C 
HETATM    8  H   UNL     1      50.513 -31.494   0.990  1.00  0.00     0.167 HD
HETATM    9  H   UNL     1      46.809 -32.903   1.378  1.00  0.00     0.165 HD
ENDROOT
BRANCH   7  10
HETATM   10  C   UNL     1      45.322 -30.891   0.570  1.00  0.00     0.015 A 
HETATM   11  C   UNL     1      44.325 -30.273  -0.257  1.00  0.00     0.097 A 
HETATM   12  N   UNL     1      43.118 -30.318   0.317  1.00  0.00    -0.167 NA
HETATM   13  N   UNL     1      43.296 -30.913   1.514  1.00  0.00    -0.244 N 
HETATM   14  C   UNL     1      44.623 -31.223   1.718  1.00  0.00     0.130 A 
BRANCH  11  15
HETATM   15  C   UNL     1      44.472 -29.660  -1.577  1.00  0.00    -0.005 A 
HETATM   16  C   UNL     1      44.007 -30.338  -2.713  1.00  0.00     0.014 A 
HETATM   17  C   UNL     1      44.151 -29.775  -3.983  1.00  0.00     0.001 A 
HETATM   18  C   UNL     1      44.757 -28.529  -4.129  1.00  0.00     0.000 A 
HETATM   19  C   UNL     1      45.209 -27.840  -3.005  1.00  0.00     0.001 A 
HETATM   20  C   UNL     1      45.061 -28.398  -1.733  1.00  0.00     0.014 A 
ENDBRANCH  11  15
BRANCH  13  21
HETATM   21  C   UNL     1      42.193 -31.147   2.383  1.00  0.00     0.058 A 
HETATM   22  C   UNL     1      42.129 -30.465   3.609  1.00  0.00     0.031 A 
HETATM   23  C   UNL     1      41.054 -30.671   4.476  1.00  0.00     0.002 A 
HETATM   24  C   UNL     1      40.037 -31.556   4.127  1.00  0.00     0.000 A 
HETATM   25  C   UNL     1      40.092 -32.236   2.912  1.00  0.00     0.002 A 
HETATM   26  C   UNL     1      41.165 -32.037   2.039  1.00  0.00     0.031 A 
ENDBRANCH  13  21
ENDBRANCH   7  10
BRANCH   1  27
HETATM   27  C   UNL     1      47.739 -29.039   1.565  1.00  0.00     0.270 C 
HETATM   28  O   UNL     1      47.642 -27.814   1.574  1.00  0.00    -0.265 OA
BRANCH  27  29
HETATM   29  O   UNL     1      47.954 -29.784   2.673  1.00  0.00    -0.321 OA
BRANCH  29  30
HETATM   30  C   UNL     1      48.696 -29.163   3.736  1.00  0.00     0.174 C 
HETATM   31  C   UNL     1      49.801 -30.084   4.219  1.00  0.00     0.034 C 
ENDBRANCH  29  30
ENDBRANCH  27  29
ENDBRANCH   1  27
BRANCH   2  32
HETATM   32  C   UNL     1      49.198 -30.860  -1.545  1.00  0.00     0.439 C 
HETATM   33  F   UNL     1      50.306 -30.400  -2.178  1.00  0.00    -0.166 F 
HETATM   34  F   UNL     1      49.248 -32.214  -1.562  1.00  0.00    -0.166 F 
HETATM   35  F   UNL     1      48.137 -30.508  -2.306  1.00  0.00    -0.166 F 
ENDBRANCH   2  32
BRANCH   2  36
HETATM   36  O   UNL     1      50.092 -29.249   0.034  1.00  0.00    -0.363 OA
HETATM   37  H   UNL     1      50.564 -29.153  -0.817  1.00  0.00     0.213 HD
ENDBRANCH   2  36
TORSDOF 8
ENDMDL
MODEL 7
REMARK VINA RESULT:      -7.9      2.741      5.987
REMARK  8 active torsions:
REMARK  status: ('A' for Active; 'I' for Inactive)
REMARK    1  A    between atoms: C_2  and  O_3 
REMARK    2  A    between atoms: O_3  and  C_4 
REMARK    3  A    between atoms: C_4  and  C_5 
REMARK    4  A    between atoms: C_6  and  C_8 
REMARK    5  A    between atoms: C_6  and  O_7 
REMARK    6  A    between atoms: C_16  and  C_17 
REMARK    7  A    between atoms: C_18  and  C_19 
REMARK    8  A    between atoms: N_26  and  C_27 
ROOT
HETATM    1  C   UNL     1      40.971 -11.614   4.064  1.00  0.00     0.177 C 
HETATM    2  C   UNL     1      40.083 -10.346   4.137  1.00  0.00     0.250 C 
HETATM    3  N   UNL     1      38.981 -10.595   5.042  1.00  0.00    -0.303 N 
HETATM    4  C   UNL     1      39.151 -11.210   6.242  1.00  0.00     0.319 C 
HETATM    5  O   UNL     1      38.301 -11.144   7.117  1.00  0.00    -0.247 OA
HETATM    6  N   UNL     1      40.286 -11.940   6.395  1.00  0.00    -0.333 N 
HETATM    7  C   UNL     1      41.422 -11.925   5.492  1.00  0.00     0.142 C 
HETATM    8  H   UNL     1      38.178  -9.979   4.994  1.00  0.00     0.167 HD
HETATM    9  H   UNL     1      40.386 -12.334   7.325  1.00  0.00     0.165 HD
ENDROOT
BRANCH   7  10
HETATM   10  C   UNL     1      42.313 -13.120   5.718  1.00  0.00     0.015 A 
HETATM   11  C   UNL     1      43.563 -13.164   6.421  1.00  0.00     0.097 A 
HETATM   12  N   UNL     1      44.068 -14.403   6.443  1.00  0.00    -0.167 NA
HETATM   13  N   UNL     1      43.207 -15.168   5.741  1.00  0.00    -0.244 N 
HETATM   14  C   UNL     1      42.166 -14.413   5.246  1.00  0.00     0.130 A 
BRANCH  11  15
HETATM   15  C   UNL     1      44.284 -12.082   7.091  1.00  0.00    -0.005 A 
HETATM   16  C   UNL     1      45.496 -11.621   6.558  1.00  0.00     0.014 A 
HETATM   17  C   UNL     1      46.205 -10.597   7.190  1.00  0.00     0.001 A 
HETATM   18  C   UNL     1      45.708 -10.024   8.359  1.00  0.00     0.000 A 
HETATM   19  C   UNL     1      44.496 -10.464   8.888  1.00  0.00     0.001 A 
HETATM   20  C   UNL     1      43.782 -11.483   8.254  1.00  0.00     0.014 A 
ENDBRANCH  11  15
BRANCH  13  21
HETATM   21  C   UNL     1      43.432 -16.565   5.587  1.00  0.00     0.058 A 
HETATM   22  C   UNL     1      43.255 -17.415   6.690  1.00  0.00     0.031 A 
HETATM   23  C   UNL     1      43.462 -18.790   6.564  1.00  0.00     0.002 A 
HETATM   24  C   UNL     1      43.846 -19.327   5.337  1.00  0.00     0.000 A 
HETATM   25  C   UNL     1      44.022 -18.491   4.235  1.00  0.00     0.002 A 
HETATM   26  C   UNL     1      43.818 -17.113   4.355  1.00  0.00     0.031 A 
ENDBRANCH  13  21
ENDBRANCH   7  10
BRANCH   1  27
HETATM   27  C   UNL     1      40.174 -12.704   3.369  1.00  0.00     0.270 C 
HETATM   28  O   UNL     1      39.120 -13.120   3.844  1.00  0.00    -0.265 OA
BRANCH  27  29
HETATM   29  O   UNL     1      40.739 -13.197   2.244  1.00  0.00    -0.321 OA
BRANCH  29  30
HETATM   30  C   UNL     1      39.915 -13.230   1.067  1.00  0.00     0.174 C 
HETATM   31  C   UNL     1      40.240 -14.451   0.227  1.00  0.00     0.034 C 
ENDBRANCH  29  30
ENDBRANCH  27  29
ENDBRANCH   1  27
BRANCH   2  32
HETATM   32  C   UNL     1      40.931  -9.085   4.573  1.00  0.00     0.439 C 
HETATM   33  F   UNL     1      42.260  -9.354   4.518  1.00  0.00    -0.166 F 
HETATM   34  F   UNL     1      40.694  -8.021   3.769  1.00  0.00    -0.166 F 
HETATM   35  F   UNL     1      40.666  -8.678   5.835  1.00  0.00    -0.166 F 
ENDBRANCH   2  32
BRANCH   2  36
HETATM   36  O   UNL     1      39.467 -10.023   2.881  1.00  0.00    -0.363 OA
HETATM   37  H   UNL     1      39.053 -10.823   2.502  1.00  0.00     0.213 HD
ENDBRANCH   2  36
TORSDOF 8
ENDMDL
MODEL 8
REMARK VINA RESULT:      -7.7      6.818      9.981
REMARK  8 active torsions:
REMARK  status: ('A' for Active; 'I' for Inactive)
REMARK    1  A    between atoms: C_2  and  O_3 
REMARK    2  A    between atoms: O_3  and  C_4 
REMARK    3  A    between atoms: C_4  and  C_5 
REMARK    4  A    between atoms: C_6  and  C_8 
REMARK    5  A    between atoms: C_6  and  O_7 
REMARK    6  A    between atoms: C_16  and  C_17 
REMARK    7  A    between atoms: C_18  and  C_19 
REMARK    8  A    between atoms: N_26  and  C_27 
ROOT
HETATM    1  C   UNL     1      39.691  -7.676  11.243  1.00  0.00     0.177 C 
HETATM    2  C   UNL     1      38.796  -7.800  12.502  1.00  0.00     0.250 C 
HETATM    3  N   UNL     1      38.692  -9.196  12.870  1.00  0.00    -0.303 N 
HETATM    4  C   UNL     1      39.769 -10.026  12.884  1.00  0.00     0.319 C 
HETATM    5  O   UNL     1      39.742 -11.094  13.476  1.00  0.00    -0.247 OA
HETATM    6  N   UNL     1      40.852  -9.629  12.165  1.00  0.00    -0.333 N 
HETATM    7  C   UNL     1      41.040  -8.310  11.590  1.00  0.00     0.142 C 
HETATM    8  H   UNL     1      37.942  -9.469  13.494  1.00  0.00     0.167 HD
HETATM    9  H   UNL     1      41.643 -10.259  12.252  1.00  0.00     0.165 HD
ENDROOT
BRANCH   7  10
HETATM   10  C   UNL     1      42.118  -8.323  10.537  1.00  0.00     0.015 A 
HETATM   11  C   UNL     1      42.640  -7.209   9.799  1.00  0.00     0.097 A 
HETATM   12  N   UNL     1      43.610  -7.590   8.960  1.00  0.00    -0.167 NA
HETATM   13  N   UNL     1      43.716  -8.928   9.096  1.00  0.00    -0.244 N 
HETATM   14  C   UNL     1      42.793  -9.406  10.001  1.00  0.00     0.130 A 
BRANCH  11  15
HETATM   15  C   UNL     1      42.268  -5.796   9.875  1.00  0.00    -0.005 A 
HETATM   16  C   UNL     1      41.554  -5.209   8.822  1.00  0.00     0.014 A 
HETATM   17  C   UNL     1      41.201  -3.858   8.870  1.00  0.00     0.001 A 
HETATM   18  C   UNL     1      41.557  -3.084   9.972  1.00  0.00     0.000 A 
HETATM   19  C   UNL     1      42.254  -3.662  11.032  1.00  0.00     0.001 A 
HETATM   20  C   UNL     1      42.602  -5.014  10.988  1.00  0.00     0.014 A 
ENDBRANCH  11  15
BRANCH  13  21
HETATM   21  C   UNL     1      44.686  -9.661   8.356  1.00  0.00     0.058 A 
HETATM   22  C   UNL     1      44.291 -10.817   7.664  1.00  0.00     0.031 A 
HETATM   23  C   UNL     1      45.221 -11.551   6.924  1.00  0.00     0.002 A 
HETATM   24  C   UNL     1      46.549 -11.136   6.869  1.00  0.00     0.000 A 
HETATM   25  C   UNL     1      46.950  -9.988   7.552  1.00  0.00     0.002 A 
HETATM   26  C   UNL     1      46.025  -9.250   8.296  1.00  0.00     0.031 A 
ENDBRANCH  13  21
ENDBRANCH   7  10
BRANCH   1  27
HETATM   27  C   UNL     1      38.948  -8.301  10.077  1.00  0.00     0.270 C 
HETATM   28  O   UNL     1      38.093  -7.671   9.459  1.00  0.00    -0.265 OA
BRANCH  27  29
HETATM   29  O   UNL     1      39.263  -9.590   9.821  1.00  0.00    -0.321 OA
BRANCH  29  30
HETATM   30  C   UNL     1      39.116 -10.035   8.462  1.00  0.00     0.174 C 
HETATM   31  C   UNL     1      40.262  -9.522   7.610  1.00  0.00     0.034 C 
ENDBRANCH  29  30
ENDBRANCH  27  29
ENDBRANCH   1  27
BRANCH   2  32
HETATM   32  C   UNL     1      39.361  -6.918  13.687  1.00  0.00     0.439 C 
HETATM   33  F   UNL     1      38.349  -6.387  14.418  1.00  0.00    -0.166 F 
HETATM   34  F   UNL     1      40.136  -7.647  14.526  1.00  0.00    -0.166 F 
HETATM   35  F   UNL     1      40.123  -5.885  13.263  1.00  0.00    -0.166 F 
ENDBRANCH   2  32
BRANCH   2  36
HETATM   36  O   UNL     1      37.445  -7.375  12.270  1.00  0.00    -0.363 OA
HETATM   37  H   UNL     1      37.263  -6.563  12.782  1.00  0.00     0.213 HD
ENDBRANCH   2  36
TORSDOF 8
ENDMDL
MODEL 9
REMARK VINA RESULT:      -7.6      2.748      5.839
REMARK  8 active torsions:
REMARK  status: ('A' for Active; 'I' for Inactive)
REMARK    1  A    between atoms: C_2  and  O_3 
REMARK    2  A    between atoms: O_3  and  C_4 
REMARK    3  A    between atoms: C_4  and  C_5 
REMARK    4  A    between atoms: C_6  and  C_8 
REMARK    5  A    between atoms: C_6  and  O_7 
REMARK    6  A    between atoms: C_16  and  C_17 
REMARK    7  A    between atoms: C_18  and  C_19 
REMARK    8  A    between atoms: N_26  and  C_27 
ROOT
HETATM    1  C   UNL     1      40.025 -13.734   1.043  1.00  0.00     0.177 C 
HETATM    2  C   UNL     1      39.672 -12.607   0.039  1.00  0.00     0.250 C 
HETATM    3  N   UNL     1      40.265 -11.368   0.495  1.00  0.00    -0.303 N 
HETATM    4  C   UNL     1      41.540 -11.301   0.961  1.00  0.00     0.319 C 
HETATM    5  O   UNL     1      42.130 -10.235   1.052  1.00  0.00    -0.247 OA
HETATM    6  N   UNL     1      42.101 -12.470   1.368  1.00  0.00    -0.333 N 
HETATM    7  C   UNL     1      41.551 -13.791   1.129  1.00  0.00     0.142 C 
HETATM    8  H   UNL     1      39.912 -10.501   0.107  1.00  0.00     0.167 HD
HETATM    9  H   UNL     1      43.068 -12.370   1.658  1.00  0.00     0.165 HD
ENDROOT
BRANCH   7  10
HETATM   10  C   UNL     1      42.179 -14.816   2.039  1.00  0.00     0.015 A 
HETATM   11  C   UNL     1      42.717 -14.612   3.354  1.00  0.00     0.097 A 
HETATM   12  N   UNL     1      43.173 -15.756   3.878  1.00  0.00    -0.167 NA
HETATM   13  N   UNL     1      42.987 -16.699   2.932  1.00  0.00    -0.244 N 
HETATM   14  C   UNL     1      42.438 -16.153   1.792  1.00  0.00     0.130 A 
BRANCH  11  15
HETATM   15  C   UNL     1      42.795 -13.380   4.138  1.00  0.00    -0.005 A 
HETATM   16  C   UNL     1      41.937 -13.198   5.232  1.00  0.00     0.014 A 
HETATM   17  C   UNL     1      41.988 -12.022   5.985  1.00  0.00     0.001 A 
HETATM   18  C   UNL     1      42.898 -11.021   5.653  1.00  0.00     0.000 A 
HETATM   19  C   UNL     1      43.766 -11.198   4.577  1.00  0.00     0.001 A 
HETATM   20  C   UNL     1      43.721 -12.376   3.827  1.00  0.00     0.014 A 
ENDBRANCH  11  15
BRANCH  13  21
HETATM   21  C   UNL     1      43.345 -18.055   3.174  1.00  0.00     0.058 A 
HETATM   22  C   UNL     1      43.125 -19.013   2.172  1.00  0.00     0.031 A 
HETATM   23  C   UNL     1      43.473 -20.349   2.382  1.00  0.00     0.002 A 
HETATM   24  C   UNL     1      44.044 -20.738   3.591  1.00  0.00     0.000 A 
HETATM   25  C   UNL     1      44.268 -19.793   4.592  1.00  0.00     0.002 A 
HETATM   26  C   UNL     1      43.920 -18.454   4.390  1.00  0.00     0.031 A 
ENDBRANCH  13  21
ENDBRANCH   7  10
BRANCH   1  27
HETATM   27  C   UNL     1      39.299 -13.445   2.344  1.00  0.00     0.270 C 
HETATM   28  O   UNL     1      39.024 -14.348   3.131  1.00  0.00    -0.265 OA
BRANCH  27  29
HETATM   29  O   UNL     1      38.948 -12.153   2.530  1.00  0.00    -0.321 OA
BRANCH  29  30
HETATM   30  C   UNL     1      39.073 -11.634   3.864  1.00  0.00     0.174 C 
HETATM   31  C   UNL     1      39.515 -10.183   3.828  1.00  0.00     0.034 C 
ENDBRANCH  29  30
ENDBRANCH  27  29
ENDBRANCH   1  27
BRANCH   2  32
HETATM   32  C   UNL     1      40.142 -12.983  -1.423  1.00  0.00     0.439 C 
HETATM   33  F   UNL     1      41.292 -12.337  -1.742  1.00  0.00    -0.166 F 
HETATM   34  F   UNL     1      40.370 -14.313  -1.547  1.00  0.00    -0.166 F 
HETATM   35  F   UNL     1      39.235 -12.661  -2.372  1.00  0.00    -0.166 F 
ENDBRANCH   2  32
BRANCH   2  36
HETATM   36  O   UNL     1      38.263 -12.342  -0.029  1.00  0.00    -0.363 OA
HETATM   37  H   UNL     1      37.843 -12.573   0.823  1.00  0.00     0.213 HD
ENDBRANCH   2  36
TORSDOF 8
ENDMDL
MODEL 10
REMARK VINA RESULT:      -7.6      2.647      6.202
REMARK  8 active torsions:
REMARK  status: ('A' for Active; 'I' for Inactive)
REMARK    1  A    between atoms: C_2  and  O_3 
REMARK    2  A    between atoms: O_3  and  C_4 
REMARK    3  A    between atoms: C_4  and  C_5 
REMARK    4  A    between atoms: C_6  and  C_8 
REMARK    5  A    between atoms: C_6  and  O_7 
REMARK    6  A    between atoms: C_16  and  C_17 
REMARK    7  A    between atoms: C_18  and  C_19 
REMARK    8  A    between atoms: N_26  and  C_27 
ROOT
HETATM    1  C   UNL     1      41.218 -12.933   1.256  1.00  0.00     0.177 C 
HETATM    2  C   UNL     1      40.538 -11.561   1.015  1.00  0.00     0.250 C 
HETATM    3  N   UNL     1      39.400 -11.438   1.902  1.00  0.00    -0.303 N 
HETATM    4  C   UNL     1      39.459 -11.794   3.213  1.00  0.00     0.319 C 
HETATM    5  O   UNL     1      38.620 -11.411   4.015  1.00  0.00    -0.247 OA
HETATM    6  N   UNL     1      40.465 -12.635   3.570  1.00  0.00    -0.333 N 
HETATM    7  C   UNL     1      41.599 -12.988   2.737  1.00  0.00     0.142 C 
HETATM    8  H   UNL     1      38.704 -10.734   1.688  1.00  0.00     0.167 HD
HETATM    9  H   UNL     1      40.492 -12.826   4.566  1.00  0.00     0.165 HD
ENDROOT
BRANCH   7  10
HETATM   10  C   UNL     1      42.291 -14.224   3.253  1.00  0.00     0.015 A 
HETATM   11  C   UNL     1      43.112 -14.349   4.423  1.00  0.00     0.097 A 
HETATM   12  N   UNL     1      43.543 -15.604   4.586  1.00  0.00    -0.167 NA
HETATM   13  N   UNL     1      43.063 -16.302   3.537  1.00  0.00    -0.244 N 
HETATM   14  C   UNL     1      42.348 -15.485   2.687  1.00  0.00     0.130 A 
BRANCH  11  15
HETATM   15  C   UNL     1      43.484 -13.327   5.402  1.00  0.00    -0.005 A 
HETATM   16  C   UNL     1      43.998 -12.100   4.964  1.00  0.00     0.014 A 
HETATM   17  C   UNL     1      44.372 -11.117   5.884  1.00  0.00     0.001 A 
HETATM   18  C   UNL     1      44.230 -11.353   7.250  1.00  0.00     0.000 A 
HETATM   19  C   UNL     1      43.705 -12.564   7.696  1.00  0.00     0.001 A 
HETATM   20  C   UNL     1      43.325 -13.545   6.777  1.00  0.00     0.014 A 
ENDBRANCH  11  15
BRANCH  13  21
HETATM   21  C   UNL     1      43.316 -17.697   3.411  1.00  0.00     0.058 A 
HETATM   22  C   UNL     1      43.882 -18.392   4.492  1.00  0.00     0.031 A 
HETATM   23  C   UNL     1      44.134 -19.762   4.397  1.00  0.00     0.002 A 
HETATM   24  C   UNL     1      43.822 -20.448   3.225  1.00  0.00     0.000 A 
HETATM   25  C   UNL     1      43.258 -19.766   2.148  1.00  0.00     0.002 A 
HETATM   26  C   UNL     1      43.005 -18.395   2.235  1.00  0.00     0.031 A 
ENDBRANCH  13  21
ENDBRANCH   7  10
BRANCH   1  27
HETATM   27  C   UNL     1      40.269 -14.017   0.777  1.00  0.00     0.270 C 
HETATM   28  O   UNL     1      39.403 -14.476   1.518  1.00  0.00    -0.265 OA
BRANCH  27  29
HETATM   29  O   UNL     1      40.490 -14.455  -0.483  1.00  0.00    -0.321 OA
BRANCH  29  30
HETATM   30  C   UNL     1      39.335 -14.620  -1.322  1.00  0.00     0.174 C 
HETATM   31  C   UNL     1      39.610 -14.082  -2.714  1.00  0.00     0.034 C 
ENDBRANCH  29  30
ENDBRANCH  27  29
ENDBRANCH   1  27
BRANCH   2  32
HETATM   32  C   UNL     1      41.568 -10.377   1.209  1.00  0.00     0.439 C 
HETATM   33  F   UNL     1      42.063  -9.969   0.014  1.00  0.00    -0.166 F 
HETATM   34  F   UNL     1      40.990  -9.305   1.802  1.00  0.00    -0.166 F 
HETATM   35  F   UNL     1      42.626 -10.715   1.978  1.00  0.00    -0.166 F 
ENDBRANCH   2  32
BRANCH   2  36
HETATM   36  O   UNL     1      39.994 -11.433  -0.307  1.00  0.00    -0.363 OA
HETATM   37  H   UNL     1      40.691 -11.612  -0.969  1.00  0.00     0.213 HD
ENDBRANCH   2  36
TORSDOF 8
ENDMDL
