MODEL 1
REMARK VINA RESULT:      -9.3      0.000      0.000
REMARK  8 active torsions:
REMARK  status: ('A' for Active; 'I' for Inactive)
REMARK    1  A    between atoms: C_5  and  C_6 
REMARK       I    between atoms: C_6  and  N_7 
REMARK    2  A    between atoms: N_7  and  N_8 
REMARK       I    between atoms: N_8  and  C_9 
REMARK    3  A    between atoms: C_9  and  C_10 
REMARK    4  A    between atoms: C_10  and  S_11 
REMARK    5  A    between atoms: S_11  and  C_12 
REMARK    6  A    between atoms: C_14  and  C_15 
REMARK    7  A    between atoms: C_15  and  N_16 
REMARK    8  A    between atoms: N_16  and  C_17 
ROOT
HETATM    1  S   UNL     1      43.516 -11.156   5.653  1.00  0.00    -0.081 SA
ENDROOT
BRANCH   1   2
HETATM    2  C   UNL     1      44.575 -11.816   6.973  1.00  0.00     0.187 C 
BRANCH   2   3
HETATM    3  C   UNL     1      44.580 -10.939   8.216  1.00  0.00     0.245 C 
HETATM    4  N   UNL     1      43.402 -11.012   8.937  1.00  0.00    -0.267 N 
HETATM    5  H   UNL     1      42.538 -11.374   8.528  1.00  0.00     0.190 HD
HETATM    6  O   UNL     1      45.518 -10.222   8.573  1.00  0.00    -0.271 OA
BRANCH   4   7
HETATM    7  N   UNL     1      43.211 -10.062   9.958  1.00  0.00    -0.263 N 
HETATM    8  C   UNL     1      43.451 -10.483  11.253  1.00  0.00     0.270 C 
HETATM    9  O   UNL     1      43.941 -11.586  11.493  1.00  0.00    -0.266 OA
HETATM   10  H   UNL     1      42.571  -9.301   9.739  1.00  0.00     0.190 HD
BRANCH   8  11
HETATM   11  C   UNL     1      43.056  -9.558  12.353  1.00  0.00     0.033 A 
HETATM   12  C   UNL     1      42.104  -9.899  13.324  1.00  0.00     0.017 A 
HETATM   13  C   UNL     1      41.772  -8.988  14.332  1.00  0.00     0.007 A 
HETATM   14  C   UNL     1      42.383  -7.730  14.386  1.00  0.00    -0.062 A 
HETATM   15  C   UNL     1      42.003  -6.738  15.447  1.00  0.00     0.048 C 
HETATM   16  C   UNL     1      43.314  -7.383  13.401  1.00  0.00     0.007 A 
HETATM   17  C   UNL     1      43.649  -8.290  12.393  1.00  0.00     0.017 A 
ENDBRANCH   8  11
ENDBRANCH   4   7
ENDBRANCH   2   3
ENDBRANCH   1   2
BRANCH   1  18
HETATM   18  C   UNL     1      42.379 -12.438   5.498  1.00  0.00     0.185 A 
HETATM   19  N   UNL     1      42.419 -13.447   4.667  1.00  0.00    -0.204 NA
HETATM   20  C   UNL     1      41.284 -14.158   5.001  1.00  0.00     0.166 A 
HETATM   21  N   UNL     1      40.570 -13.631   6.011  1.00  0.00    -0.155 NA
HETATM   22  N   UNL     1      41.280 -12.525   6.293  1.00  0.00    -0.254 N 
HETATM   23  H   UNL     1      41.014 -11.917   7.063  1.00  0.00     0.191 HD
BRANCH  20  24
HETATM   24  C   UNL     1      40.870 -15.406   4.262  1.00  0.00     0.202 C 
BRANCH  24  25
HETATM   25  N   UNL     1      41.785 -15.859   3.208  1.00  0.00    -0.383 N 
HETATM   26  H   UNL     1      42.291 -15.082   2.792  1.00  0.00     0.160 HD
BRANCH  25  27
HETATM   27  C   UNL     1      42.580 -16.990   3.390  1.00  0.00     0.028 A 
HETATM   28  C   UNL     1      42.625 -18.063   2.489  1.00  0.00     0.036 A 
HETATM   29  C   UNL     1      43.498 -19.149   2.678  1.00  0.00    -0.060 A 
HETATM   30  C   UNL     1      43.526 -20.292   1.708  1.00  0.00     0.048 C 
HETATM   31  C   UNL     1      44.373 -19.139   3.768  1.00  0.00     0.007 A 
HETATM   32  C   UNL     1      44.376 -18.062   4.650  1.00  0.00     0.003 A 
HETATM   33  C   UNL     1      43.495 -16.996   4.451  1.00  0.00     0.029 A 
ENDBRANCH  25  27
ENDBRANCH  24  25
ENDBRANCH  20  24
ENDBRANCH   1  18
TORSDOF 8
ENDMDL
MODEL 2
REMARK VINA RESULT:      -9.2      0.978      1.474
REMARK  8 active torsions:
REMARK  status: ('A' for Active; 'I' for Inactive)
REMARK    1  A    between atoms: C_5  and  C_6 
REMARK       I    between atoms: C_6  and  N_7 
REMARK    2  A    between atoms: N_7  and  N_8 
REMARK       I    between atoms: N_8  and  C_9 
REMARK    3  A    between atoms: C_9  and  C_10 
REMARK    4  A    between atoms: C_10  and  S_11 
REMARK    5  A    between atoms: S_11  and  C_12 
REMARK    6  A    between atoms: C_14  and  C_15 
REMARK    7  A    between atoms: C_15  and  N_16 
REMARK    8  A    between atoms: N_16  and  C_17 
ROOT
HETATM    1  S   UNL     1      42.684 -10.999   5.879  1.00  0.00    -0.081 SA
ENDROOT
BRANCH   1   2
HETATM    2  C   UNL     1      44.303 -11.014   6.702  1.00  0.00     0.187 C 
BRANCH   2   3
HETATM    3  C   UNL     1      44.313 -10.213   7.995  1.00  0.00     0.245 C 
HETATM    4  N   UNL     1      43.261 -10.527   8.837  1.00  0.00    -0.267 N 
HETATM    5  H   UNL     1      42.427 -11.015   8.503  1.00  0.00     0.190 HD
HETATM    6  O   UNL     1      45.153  -9.362   8.294  1.00  0.00    -0.271 OA
BRANCH   4   7
HETATM    7  N   UNL     1      43.040  -9.678   9.937  1.00  0.00    -0.263 N 
HETATM    8  C   UNL     1      43.351 -10.183  11.186  1.00  0.00     0.270 C 
HETATM    9  O   UNL     1      43.923 -11.263  11.321  1.00  0.00    -0.266 OA
HETATM   10  H   UNL     1      42.342  -8.949   9.799  1.00  0.00     0.190 HD
BRANCH   8  11
HETATM   11  C   UNL     1      42.931  -9.378  12.369  1.00  0.00     0.033 A 
HETATM   12  C   UNL     1      41.893  -9.774  13.223  1.00  0.00     0.017 A 
HETATM   13  C   UNL     1      41.541  -8.977  14.317  1.00  0.00     0.007 A 
HETATM   14  C   UNL     1      42.217  -7.778  14.573  1.00  0.00    -0.062 A 
HETATM   15  C   UNL     1      41.818  -6.904  15.726  1.00  0.00     0.048 C 
HETATM   16  C   UNL     1      43.235  -7.373  13.703  1.00  0.00     0.007 A 
HETATM   17  C   UNL     1      43.590  -8.167  12.611  1.00  0.00     0.017 A 
ENDBRANCH   8  11
ENDBRANCH   4   7
ENDBRANCH   2   3
ENDBRANCH   1   2
BRANCH   1  18
HETATM   18  C   UNL     1      42.431 -12.686   5.660  1.00  0.00     0.185 A 
HETATM   19  N   UNL     1      42.476 -13.365   4.544  1.00  0.00    -0.204 NA
HETATM   20  C   UNL     1      42.224 -14.655   4.964  1.00  0.00     0.166 A 
HETATM   21  N   UNL     1      42.049 -14.789   6.290  1.00  0.00    -0.155 NA
HETATM   22  N   UNL     1      42.164 -13.515   6.705  1.00  0.00    -0.254 N 
HETATM   23  H   UNL     1      42.123 -13.284   7.693  1.00  0.00     0.191 HD
BRANCH  20  24
HETATM   24  C   UNL     1      42.124 -15.810   3.999  1.00  0.00     0.202 C 
BRANCH  24  25
HETATM   25  N   UNL     1      43.400 -16.384   3.552  1.00  0.00    -0.383 N 
HETATM   26  H   UNL     1      44.190 -15.944   4.017  1.00  0.00     0.160 HD
BRANCH  25  27
HETATM   27  C   UNL     1      43.551 -17.762   3.408  1.00  0.00     0.028 A 
HETATM   28  C   UNL     1      43.956 -18.614   4.444  1.00  0.00     0.036 A 
HETATM   29  C   UNL     1      44.022 -20.007   4.271  1.00  0.00    -0.060 A 
HETATM   30  C   UNL     1      44.466 -20.902   5.390  1.00  0.00     0.048 C 
HETATM   31  C   UNL     1      43.634 -20.562   3.048  1.00  0.00     0.007 A 
HETATM   32  C   UNL     1      43.185 -19.738   2.020  1.00  0.00     0.003 A 
HETATM   33  C   UNL     1      43.135 -18.354   2.207  1.00  0.00     0.029 A 
ENDBRANCH  25  27
ENDBRANCH  24  25
ENDBRANCH  20  24
ENDBRANCH   1  18
TORSDOF 8
ENDMDL
MODEL 3
REMARK VINA RESULT:      -9.1      1.992     11.406
REMARK  8 active torsions:
REMARK  status: ('A' for Active; 'I' for Inactive)
REMARK    1  A    between atoms: C_5  and  C_6 
REMARK       I    between atoms: C_6  and  N_7 
REMARK    2  A    between atoms: N_7  and  N_8 
REMARK       I    between atoms: N_8  and  C_9 
REMARK    3  A    between atoms: C_9  and  C_10 
REMARK    4  A    between atoms: C_10  and  S_11 
REMARK    5  A    between atoms: S_11  and  C_12 
REMARK    6  A    between atoms: C_14  and  C_15 
REMARK    7  A    between atoms: C_15  and  N_16 
REMARK    8  A    between atoms: N_16  and  C_17 
ROOT
HETATM    1  S   UNL     1      44.641 -11.210   6.572  1.00  0.00    -0.081 SA
ENDROOT
BRANCH   1   2
HETATM    2  C   UNL     1      43.087 -11.127   5.635  1.00  0.00     0.187 C 
BRANCH   2   3
HETATM    3  C   UNL     1      42.881 -12.334   4.732  1.00  0.00     0.245 C 
HETATM    4  N   UNL     1      42.289 -13.403   5.380  1.00  0.00    -0.267 N 
HETATM    5  H   UNL     1      42.268 -13.474   6.399  1.00  0.00     0.190 HD
HETATM    6  O   UNL     1      43.199 -12.389   3.542  1.00  0.00    -0.271 OA
BRANCH   4   7
HETATM    7  N   UNL     1      42.279 -14.639   4.708  1.00  0.00    -0.263 N 
HETATM    8  C   UNL     1      43.228 -15.567   5.096  1.00  0.00     0.270 C 
HETATM    9  O   UNL     1      43.953 -15.379   6.072  1.00  0.00    -0.266 OA
HETATM   10  H   UNL     1      41.869 -14.631   3.775  1.00  0.00     0.190 HD
BRANCH   8  11
HETATM   11  C   UNL     1      43.364 -16.792   4.257  1.00  0.00     0.033 A 
HETATM   12  C   UNL     1      42.795 -16.904   2.982  1.00  0.00     0.017 A 
HETATM   13  C   UNL     1      42.954 -18.081   2.242  1.00  0.00     0.007 A 
HETATM   14  C   UNL     1      43.681 -19.158   2.763  1.00  0.00    -0.062 A 
HETATM   15  C   UNL     1      43.824 -20.433   1.986  1.00  0.00     0.048 C 
HETATM   16  C   UNL     1      44.227 -19.053   4.047  1.00  0.00     0.007 A 
HETATM   17  C   UNL     1      44.071 -17.879   4.788  1.00  0.00     0.017 A 
ENDBRANCH   8  11
ENDBRANCH   4   7
ENDBRANCH   2   3
ENDBRANCH   1   2
BRANCH   1  18
HETATM   18  C   UNL     1      44.099 -10.684   8.118  1.00  0.00     0.185 A 
HETATM   19  N   UNL     1      44.285 -11.268   9.273  1.00  0.00    -0.204 NA
HETATM   20  C   UNL     1      43.665 -10.403  10.152  1.00  0.00     0.166 A 
HETATM   21  N   UNL     1      43.129  -9.311   9.580  1.00  0.00    -0.155 NA
HETATM   22  N   UNL     1      43.402  -9.528   8.281  1.00  0.00    -0.254 N 
HETATM   23  H   UNL     1      43.158  -8.839   7.575  1.00  0.00     0.191 HD
BRANCH  20  24
HETATM   24  C   UNL     1      43.573 -10.688  11.631  1.00  0.00     0.202 C 
BRANCH  24  25
HETATM   25  N   UNL     1      42.347 -10.229  12.295  1.00  0.00    -0.383 N 
HETATM   26  H   UNL     1      41.800 -11.009  12.650  1.00  0.00     0.160 HD
BRANCH  25  27
HETATM   27  C   UNL     1      42.372  -9.141  13.166  1.00  0.00     0.028 A 
HETATM   28  C   UNL     1      41.611  -9.065  14.340  1.00  0.00     0.036 A 
HETATM   29  C   UNL     1      41.727  -7.979  15.226  1.00  0.00    -0.060 A 
HETATM   30  C   UNL     1      40.898  -7.912  16.474  1.00  0.00     0.048 C 
HETATM   31  C   UNL     1      42.652  -6.969  14.950  1.00  0.00     0.007 A 
HETATM   32  C   UNL     1      43.449  -7.047  13.812  1.00  0.00     0.003 A 
HETATM   33  C   UNL     1      43.315  -8.129  12.938  1.00  0.00     0.029 A 
ENDBRANCH  25  27
ENDBRANCH  24  25
ENDBRANCH  20  24
ENDBRANCH   1  18
TORSDOF 8
ENDMDL
MODEL 4
REMARK VINA RESULT:      -9.0      2.106     10.791
REMARK  8 active torsions:
REMARK  status: ('A' for Active; 'I' for Inactive)
REMARK    1  A    between atoms: C_5  and  C_6 
REMARK       I    between atoms: C_6  and  N_7 
REMARK    2  A    between atoms: N_7  and  N_8 
REMARK       I    between atoms: N_8  and  C_9 
REMARK    3  A    between atoms: C_9  and  C_10 
REMARK    4  A    between atoms: C_10  and  S_11 
REMARK    5  A    between atoms: S_11  and  C_12 
REMARK    6  A    between atoms: C_14  and  C_15 
REMARK    7  A    between atoms: C_15  and  N_16 
REMARK    8  A    between atoms: N_16  and  C_17 
ROOT
HETATM    1  S   UNL     1      41.979 -10.525   5.658  1.00  0.00    -0.081 SA
ENDROOT
BRANCH   1   2
HETATM    2  C   UNL     1      40.608 -11.539   6.285  1.00  0.00     0.187 C 
BRANCH   2   3
HETATM    3  C   UNL     1      40.741 -13.006   5.906  1.00  0.00     0.245 C 
HETATM    4  N   UNL     1      41.800 -13.253   5.050  1.00  0.00    -0.267 N 
HETATM    5  H   UNL     1      42.246 -12.507   4.512  1.00  0.00     0.190 HD
HETATM    6  O   UNL     1      39.999 -13.909   6.299  1.00  0.00    -0.271 OA
BRANCH   4   7
HETATM    7  N   UNL     1      41.861 -14.524   4.450  1.00  0.00    -0.263 N 
HETATM    8  C   UNL     1      42.891 -15.354   4.851  1.00  0.00     0.270 C 
HETATM    9  O   UNL     1      43.634 -15.055   5.785  1.00  0.00    -0.266 OA
HETATM   10  H   UNL     1      41.418 -14.602   3.536  1.00  0.00     0.190 HD
BRANCH   8  11
HETATM   11  C   UNL     1      43.090 -16.613   4.079  1.00  0.00     0.033 A 
HETATM   12  C   UNL     1      42.442 -16.866   2.863  1.00  0.00     0.017 A 
HETATM   13  C   UNL     1      42.668 -18.069   2.184  1.00  0.00     0.007 A 
HETATM   14  C   UNL     1      43.538 -19.031   2.707  1.00  0.00    -0.062 A 
HETATM   15  C   UNL     1      43.754 -20.336   1.998  1.00  0.00     0.048 C 
HETATM   16  C   UNL     1      44.164 -18.787   3.934  1.00  0.00     0.007 A 
HETATM   17  C   UNL     1      43.943 -17.586   4.614  1.00  0.00     0.017 A 
ENDBRANCH   8  11
ENDBRANCH   4   7
ENDBRANCH   2   3
ENDBRANCH   1   2
BRANCH   1  18
HETATM   18  C   UNL     1      43.072 -10.628   6.983  1.00  0.00     0.185 A 
HETATM   19  N   UNL     1      42.958 -10.071   8.160  1.00  0.00    -0.204 NA
HETATM   20  C   UNL     1      44.092 -10.509   8.812  1.00  0.00     0.166 A 
HETATM   21  N   UNL     1      44.878 -11.325   8.086  1.00  0.00    -0.155 NA
HETATM   22  N   UNL     1      44.213 -11.365   6.918  1.00  0.00    -0.254 N 
HETATM   23  H   UNL     1      44.538 -11.950   6.154  1.00  0.00     0.191 HD
BRANCH  20  24
HETATM   24  C   UNL     1      44.432 -10.076  10.217  1.00  0.00     0.202 C 
BRANCH  24  25
HETATM   25  N   UNL     1      43.788  -8.839  10.678  1.00  0.00    -0.383 N 
HETATM   26  H   UNL     1      43.427  -8.293   9.900  1.00  0.00     0.160 HD
BRANCH  25  27
HETATM   27  C   UNL     1      42.935  -8.847  11.781  1.00  0.00     0.028 A 
HETATM   28  C   UNL     1      41.788  -9.646  11.871  1.00  0.00     0.036 A 
HETATM   29  C   UNL     1      40.999  -9.676  13.035  1.00  0.00    -0.060 A 
HETATM   30  C   UNL     1      39.770 -10.531  13.110  1.00  0.00     0.048 C 
HETATM   31  C   UNL     1      41.392  -8.921  14.144  1.00  0.00     0.007 A 
HETATM   32  C   UNL     1      42.552  -8.155  14.091  1.00  0.00     0.003 A 
HETATM   33  C   UNL     1      43.319  -8.132  12.923  1.00  0.00     0.029 A 
ENDBRANCH  25  27
ENDBRANCH  24  25
ENDBRANCH  20  24
ENDBRANCH   1  18
TORSDOF 8
ENDMDL
MODEL 5
REMARK VINA RESULT:      -8.6      2.677     10.565
REMARK  8 active torsions:
REMARK  status: ('A' for Active; 'I' for Inactive)
REMARK    1  A    between atoms: C_5  and  C_6 
REMARK       I    between atoms: C_6  and  N_7 
REMARK    2  A    between atoms: N_7  and  N_8 
REMARK       I    between atoms: N_8  and  C_9 
REMARK    3  A    between atoms: C_9  and  C_10 
REMARK    4  A    between atoms: C_10  and  S_11 
REMARK    5  A    between atoms: S_11  and  C_12 
REMARK    6  A    between atoms: C_14  and  C_15 
REMARK    7  A    between atoms: C_15  and  N_16 
REMARK    8  A    between atoms: N_16  and  C_17 
ROOT
HETATM    1  S   UNL     1      41.463  -9.851   5.709  1.00  0.00    -0.081 SA
ENDROOT
BRANCH   1   2
HETATM    2  C   UNL     1      42.671 -11.163   6.054  1.00  0.00     0.187 C 
BRANCH   2   3
HETATM    3  C   UNL     1      42.265 -12.505   5.464  1.00  0.00     0.245 C 
HETATM    4  N   UNL     1      43.279 -13.445   5.502  1.00  0.00    -0.267 N 
HETATM    5  H   UNL     1      44.257 -13.182   5.637  1.00  0.00     0.190 HD
HETATM    6  O   UNL     1      41.157 -12.762   4.988  1.00  0.00    -0.271 OA
BRANCH   4   7
HETATM    7  N   UNL     1      43.088 -14.629   4.766  1.00  0.00    -0.263 N 
HETATM    8  C   UNL     1      43.634 -15.785   5.293  1.00  0.00     0.270 C 
HETATM    9  O   UNL     1      44.138 -15.808   6.415  1.00  0.00    -0.266 OA
HETATM   10  H   UNL     1      42.922 -14.507   3.769  1.00  0.00     0.190 HD
BRANCH   8  11
HETATM   11  C   UNL     1      43.621 -16.999   4.428  1.00  0.00     0.033 A 
HETATM   12  C   UNL     1      44.157 -18.227   4.838  1.00  0.00     0.017 A 
HETATM   13  C   UNL     1      44.118 -19.332   3.981  1.00  0.00     0.007 A 
HETATM   14  C   UNL     1      43.545 -19.228   2.708  1.00  0.00    -0.062 A 
HETATM   15  C   UNL     1      43.533 -20.403   1.775  1.00  0.00     0.048 C 
HETATM   16  C   UNL     1      43.033 -17.994   2.292  1.00  0.00     0.007 A 
HETATM   17  C   UNL     1      43.069 -16.889   3.145  1.00  0.00     0.017 A 
ENDBRANCH   8  11
ENDBRANCH   4   7
ENDBRANCH   2   3
ENDBRANCH   1   2
BRANCH   1  18
HETATM   18  C   UNL     1      40.369 -10.084   7.016  1.00  0.00     0.185 A 
HETATM   19  N   UNL     1      40.329  -9.437   8.151  1.00  0.00    -0.204 NA
HETATM   20  C   UNL     1      39.254 -10.018   8.792  1.00  0.00     0.166 A 
HETATM   21  N   UNL     1      38.629 -10.975   8.083  1.00  0.00    -0.155 NA
HETATM   22  N   UNL     1      39.376 -11.010   6.965  1.00  0.00    -0.254 N 
HETATM   23  H   UNL     1      39.126 -11.620   6.192  1.00  0.00     0.191 HD
BRANCH  20  24
HETATM   24  C   UNL     1      38.840  -9.625  10.189  1.00  0.00     0.202 C 
BRANCH  24  25
HETATM   25  N   UNL     1      39.490 -10.361  11.279  1.00  0.00    -0.383 N 
HETATM   26  H   UNL     1      39.551 -11.355  11.074  1.00  0.00     0.160 HD
BRANCH  25  27
HETATM   27  C   UNL     1      40.635  -9.860  11.896  1.00  0.00     0.028 A 
HETATM   28  C   UNL     1      41.882  -9.768  11.265  1.00  0.00     0.036 A 
HETATM   29  C   UNL     1      42.991  -9.186  11.903  1.00  0.00    -0.060 A 
HETATM   30  C   UNL     1      44.321  -9.104  11.214  1.00  0.00     0.048 C 
HETATM   31  C   UNL     1      42.836  -8.648  13.183  1.00  0.00     0.007 A 
HETATM   32  C   UNL     1      41.595  -8.688  13.811  1.00  0.00     0.003 A 
HETATM   33  C   UNL     1      40.506  -9.279  13.165  1.00  0.00     0.029 A 
ENDBRANCH  25  27
ENDBRANCH  24  25
ENDBRANCH  20  24
ENDBRANCH   1  18
TORSDOF 8
ENDMDL
MODEL 6
REMARK VINA RESULT:      -8.3      2.736     11.531
REMARK  8 active torsions:
REMARK  status: ('A' for Active; 'I' for Inactive)
REMARK    1  A    between atoms: C_5  and  C_6 
REMARK       I    between atoms: C_6  and  N_7 
REMARK    2  A    between atoms: N_7  and  N_8 
REMARK       I    between atoms: N_8  and  C_9 
REMARK    3  A    between atoms: C_9  and  C_10 
REMARK    4  A    between atoms: C_10  and  S_11 
REMARK    5  A    between atoms: S_11  and  C_12 
REMARK    6  A    between atoms: C_14  and  C_15 
REMARK    7  A    between atoms: C_15  and  N_16 
REMARK    8  A    between atoms: N_16  and  C_17 
ROOT
HETATM    1  S   UNL     1      39.206 -10.699   6.313  1.00  0.00    -0.081 SA
ENDROOT
BRANCH   1   2
HETATM    2  C   UNL     1      40.791 -11.209   5.588  1.00  0.00     0.187 C 
BRANCH   2   3
HETATM    3  C   UNL     1      40.857 -12.705   5.314  1.00  0.00     0.245 C 
HETATM    4  N   UNL     1      42.030 -13.092   4.690  1.00  0.00    -0.267 N 
HETATM    5  H   UNL     1      42.635 -12.422   4.211  1.00  0.00     0.190 HD
HETATM    6  O   UNL     1      39.975 -13.516   5.602  1.00  0.00    -0.271 OA
BRANCH   4   7
HETATM    7  N   UNL     1      42.085 -14.400   4.176  1.00  0.00    -0.263 N 
HETATM    8  C   UNL     1      42.980 -15.268   4.773  1.00  0.00     0.270 C 
HETATM    9  O   UNL     1      43.597 -14.958   5.791  1.00  0.00    -0.266 OA
HETATM   10  H   UNL     1      41.777 -14.509   3.211  1.00  0.00     0.190 HD
BRANCH   8  11
HETATM   11  C   UNL     1      43.198 -16.585   4.110  1.00  0.00     0.033 A 
HETATM   12  C   UNL     1      44.070 -17.555   4.621  1.00  0.00     0.017 A 
HETATM   13  C   UNL     1      44.235 -18.773   3.952  1.00  0.00     0.007 A 
HETATM   14  C   UNL     1      43.534 -19.039   2.770  1.00  0.00    -0.062 A 
HETATM   15  C   UNL     1      43.736 -20.331   2.034  1.00  0.00     0.048 C 
HETATM   16  C   UNL     1      42.683 -18.058   2.249  1.00  0.00     0.007 A 
HETATM   17  C   UNL     1      42.515 -16.841   2.915  1.00  0.00     0.017 A 
ENDBRANCH   8  11
ENDBRANCH   4   7
ENDBRANCH   2   3
ENDBRANCH   1   2
BRANCH   1  18
HETATM   18  C   UNL     1      39.747 -10.039   7.807  1.00  0.00     0.185 A 
HETATM   19  N   UNL     1      39.040  -9.804   8.881  1.00  0.00    -0.204 NA
HETATM   20  C   UNL     1      39.981  -9.307   9.760  1.00  0.00     0.166 A 
HETATM   21  N   UNL     1      41.231  -9.250   9.269  1.00  0.00    -0.155 NA
HETATM   22  N   UNL     1      41.047  -9.703   8.016  1.00  0.00    -0.254 N 
HETATM   23  H   UNL     1      41.835  -9.823   7.385  1.00  0.00     0.191 HD
BRANCH  20  24
HETATM   24  C   UNL     1      39.619  -8.838  11.147  1.00  0.00     0.202 C 
BRANCH  24  25
HETATM   25  N   UNL     1      40.362  -9.461  12.248  1.00  0.00    -0.383 N 
HETATM   26  H   UNL     1      40.831 -10.312  11.948  1.00  0.00     0.160 HD
BRANCH  25  27
HETATM   27  C   UNL     1      41.137  -8.690  13.113  1.00  0.00     0.028 A 
HETATM   28  C   UNL     1      40.842  -8.510  14.471  1.00  0.00     0.036 A 
HETATM   29  C   UNL     1      41.695  -7.784  15.321  1.00  0.00    -0.060 A 
HETATM   30  C   UNL     1      41.359  -7.595  16.771  1.00  0.00     0.048 C 
HETATM   31  C   UNL     1      42.886  -7.262  14.809  1.00  0.00     0.007 A 
HETATM   32  C   UNL     1      43.219  -7.467  13.474  1.00  0.00     0.003 A 
HETATM   33  C   UNL     1      42.356  -8.184  12.642  1.00  0.00     0.029 A 
ENDBRANCH  25  27
ENDBRANCH  24  25
ENDBRANCH  20  24
ENDBRANCH   1  18
TORSDOF 8
ENDMDL
MODEL 7
REMARK VINA RESULT:      -8.3      5.067      8.895
REMARK  8 active torsions:
REMARK  status: ('A' for Active; 'I' for Inactive)
REMARK    1  A    between atoms: C_5  and  C_6 
REMARK       I    between atoms: C_6  and  N_7 
REMARK    2  A    between atoms: N_7  and  N_8 
REMARK       I    between atoms: N_8  and  C_9 
REMARK    3  A    between atoms: C_9  and  C_10 
REMARK    4  A    between atoms: C_10  and  S_11 
REMARK    5  A    between atoms: S_11  and  C_12 
REMARK    6  A    between atoms: C_14  and  C_15 
REMARK    7  A    between atoms: C_15  and  N_16 
REMARK    8  A    between atoms: N_16  and  C_17 
ROOT
HETATM    1  S   UNL     1      41.748 -10.552   5.957  1.00  0.00    -0.081 SA
ENDROOT
BRANCH   1   2
HETATM    2  C   UNL     1      40.295 -11.578   6.326  1.00  0.00     0.187 C 
BRANCH   2   3
HETATM    3  C   UNL     1      40.500 -13.040   5.957  1.00  0.00     0.245 C 
HETATM    4  N   UNL     1      41.552 -13.238   5.081  1.00  0.00    -0.267 N 
HETATM    5  H   UNL     1      41.946 -12.476   4.526  1.00  0.00     0.190 HD
HETATM    6  O   UNL     1      39.816 -13.978   6.375  1.00  0.00    -0.271 OA
BRANCH   4   7
HETATM    7  N   UNL     1      41.669 -14.510   4.491  1.00  0.00    -0.263 N 
HETATM    8  C   UNL     1      42.749 -15.281   4.882  1.00  0.00     0.270 C 
HETATM    9  O   UNL     1      43.490 -14.935   5.800  1.00  0.00    -0.266 OA
HETATM   10  H   UNL     1      41.216 -14.621   3.586  1.00  0.00     0.190 HD
BRANCH   8  11
HETATM   11  C   UNL     1      43.000 -16.537   4.118  1.00  0.00     0.033 A 
HETATM   12  C   UNL     1      42.370 -16.821   2.900  1.00  0.00     0.017 A 
HETATM   13  C   UNL     1      42.644 -18.017   2.229  1.00  0.00     0.007 A 
HETATM   14  C   UNL     1      43.548 -18.943   2.763  1.00  0.00    -0.062 A 
HETATM   15  C   UNL     1      43.818 -20.242   2.062  1.00  0.00     0.048 C 
HETATM   16  C   UNL     1      44.158 -18.668   3.992  1.00  0.00     0.007 A 
HETATM   17  C   UNL     1      43.887 -17.474   4.664  1.00  0.00     0.017 A 
ENDBRANCH   8  11
ENDBRANCH   4   7
ENDBRANCH   2   3
ENDBRANCH   1   2
BRANCH   1  18
HETATM   18  C   UNL     1      41.332  -9.978   4.389  1.00  0.00     0.185 A 
HETATM   19  N   UNL     1      41.370 -10.634   3.260  1.00  0.00    -0.204 NA
HETATM   20  C   UNL     1      40.913  -9.701   2.352  1.00  0.00     0.166 A 
HETATM   21  N   UNL     1      40.582  -8.513   2.888  1.00  0.00    -0.155 NA
HETATM   22  N   UNL     1      40.880  -8.712   4.184  1.00  0.00    -0.254 N 
HETATM   23  H   UNL     1      40.694  -7.993   4.877  1.00  0.00     0.191 HD
BRANCH  20  24
HETATM   24  C   UNL     1      40.827  -9.990   0.874  1.00  0.00     0.202 C 
BRANCH  24  25
HETATM   25  N   UNL     1      41.576 -11.163   0.406  1.00  0.00    -0.383 N 
HETATM   26  H   UNL     1      42.423 -11.307   0.949  1.00  0.00     0.160 HD
BRANCH  25  27
HETATM   27  C   UNL     1      40.917 -12.353   0.099  1.00  0.00     0.028 A 
HETATM   28  C   UNL     1      40.360 -12.633  -1.156  1.00  0.00     0.036 A 
HETATM   29  C   UNL     1      39.772 -13.878  -1.441  1.00  0.00    -0.060 A 
HETATM   30  C   UNL     1      39.173 -14.156  -2.788  1.00  0.00     0.048 C 
HETATM   31  C   UNL     1      39.779 -14.876  -0.462  1.00  0.00     0.007 A 
HETATM   32  C   UNL     1      40.366 -14.634   0.776  1.00  0.00     0.003 A 
HETATM   33  C   UNL     1      40.939 -13.388   1.044  1.00  0.00     0.029 A 
ENDBRANCH  25  27
ENDBRANCH  24  25
ENDBRANCH  20  24
ENDBRANCH   1  18
TORSDOF 8
ENDMDL
MODEL 8
REMARK VINA RESULT:      -8.3      1.528      2.068
REMARK  8 active torsions:
REMARK  status: ('A' for Active; 'I' for Inactive)
REMARK    1  A    between atoms: C_5  and  C_6 
REMARK       I    between atoms: C_6  and  N_7 
REMARK    2  A    between atoms: N_7  and  N_8 
REMARK       I    between atoms: N_8  and  C_9 
REMARK    3  A    between atoms: C_9  and  C_10 
REMARK    4  A    between atoms: C_10  and  S_11 
REMARK    5  A    between atoms: S_11  and  C_12 
REMARK    6  A    between atoms: C_14  and  C_15 
REMARK    7  A    between atoms: C_15  and  N_16 
REMARK    8  A    between atoms: N_16  and  C_17 
ROOT
HETATM    1  S   UNL     1      44.943 -11.754   7.040  1.00  0.00    -0.081 SA
ENDROOT
BRANCH   1   2
HETATM    2  C   UNL     1      44.396 -10.116   7.605  1.00  0.00     0.187 C 
BRANCH   2   3
HETATM    3  C   UNL     1      44.469  -9.962   9.117  1.00  0.00     0.245 C 
HETATM    4  N   UNL     1      43.290 -10.304   9.755  1.00  0.00    -0.267 N 
HETATM    5  H   UNL     1      42.401 -10.366   9.255  1.00  0.00     0.190 HD
HETATM    6  O   UNL     1      45.457  -9.572   9.741  1.00  0.00    -0.271 OA
BRANCH   4   7
HETATM    7  N   UNL     1      43.172  -9.967  11.116  1.00  0.00    -0.263 N 
HETATM    8  C   UNL     1      42.116  -9.146  11.465  1.00  0.00     0.270 C 
HETATM    9  O   UNL     1      41.241  -8.841  10.656  1.00  0.00    -0.266 OA
HETATM   10  H   UNL     1      44.033 -10.012  11.658  1.00  0.00     0.190 HD
BRANCH   8  11
HETATM   11  C   UNL     1      42.098  -8.614  12.858  1.00  0.00     0.033 A 
HETATM   12  C   UNL     1      41.223  -9.094  13.840  1.00  0.00     0.017 A 
HETATM   13  C   UNL     1      41.251  -8.554  15.131  1.00  0.00     0.007 A 
HETATM   14  C   UNL     1      42.150  -7.532  15.457  1.00  0.00    -0.062 A 
HETATM   15  C   UNL     1      42.159  -6.928  16.830  1.00  0.00     0.048 C 
HETATM   16  C   UNL     1      43.006  -7.038  14.466  1.00  0.00     0.007 A 
HETATM   17  C   UNL     1      42.982  -7.576  13.177  1.00  0.00     0.017 A 
ENDBRANCH   8  11
ENDBRANCH   4   7
ENDBRANCH   2   3
ENDBRANCH   1   2
BRANCH   1  18
HETATM   18  C   UNL     1      43.439 -12.430   6.549  1.00  0.00     0.185 A 
HETATM   19  N   UNL     1      43.046 -13.672   6.659  1.00  0.00    -0.204 NA
HETATM   20  C   UNL     1      41.770 -13.633   6.134  1.00  0.00     0.166 A 
HETATM   21  N   UNL     1      41.368 -12.415   5.729  1.00  0.00    -0.155 NA
HETATM   22  N   UNL     1      42.460 -11.673   5.986  1.00  0.00    -0.254 N 
HETATM   23  H   UNL     1      42.457 -10.670   5.826  1.00  0.00     0.191 HD
BRANCH  20  24
HETATM   24  C   UNL     1      40.916 -14.869   6.000  1.00  0.00     0.202 C 
BRANCH  24  25
HETATM   25  N   UNL     1      40.555 -15.252   4.629  1.00  0.00    -0.383 N 
HETATM   26  H   UNL     1      39.877 -14.610   4.228  1.00  0.00     0.160 HD
BRANCH  25  27
HETATM   27  C   UNL     1      41.533 -15.651   3.719  1.00  0.00     0.028 A 
HETATM   28  C   UNL     1      42.293 -16.820   3.856  1.00  0.00     0.036 A 
HETATM   29  C   UNL     1      43.216 -17.219   2.873  1.00  0.00    -0.060 A 
HETATM   30  C   UNL     1      44.027 -18.469   3.040  1.00  0.00     0.048 C 
HETATM   31  C   UNL     1      43.348 -16.454   1.711  1.00  0.00     0.007 A 
HETATM   32  C   UNL     1      42.571 -15.313   1.535  1.00  0.00     0.003 A 
HETATM   33  C   UNL     1      41.665 -14.927   2.527  1.00  0.00     0.029 A 
ENDBRANCH  25  27
ENDBRANCH  24  25
ENDBRANCH  20  24
ENDBRANCH   1  18
TORSDOF 8
ENDMDL
MODEL 9
REMARK VINA RESULT:      -8.2      2.479     10.885
REMARK  8 active torsions:
REMARK  status: ('A' for Active; 'I' for Inactive)
REMARK    1  A    between atoms: C_5  and  C_6 
REMARK       I    between atoms: C_6  and  N_7 
REMARK    2  A    between atoms: N_7  and  N_8 
REMARK       I    between atoms: N_8  and  C_9 
REMARK    3  A    between atoms: C_9  and  C_10 
REMARK    4  A    between atoms: C_10  and  S_11 
REMARK    5  A    between atoms: S_11  and  C_12 
REMARK    6  A    between atoms: C_14  and  C_15 
REMARK    7  A    between atoms: C_15  and  N_16 
REMARK    8  A    between atoms: N_16  and  C_17 
ROOT
HETATM    1  S   UNL     1      42.168 -10.632   4.398  1.00  0.00    -0.081 SA
ENDROOT
BRANCH   1   2
HETATM    2  C   UNL     1      40.566 -11.468   4.585  1.00  0.00     0.187 C 
BRANCH   2   3
HETATM    3  C   UNL     1      40.590 -12.902   4.076  1.00  0.00     0.245 C 
HETATM    4  N   UNL     1      41.019 -13.810   5.027  1.00  0.00    -0.267 N 
HETATM    5  H   UNL     1      41.533 -13.518   5.861  1.00  0.00     0.190 HD
HETATM    6  O   UNL     1      40.270 -13.254   2.939  1.00  0.00    -0.271 OA
BRANCH   4   7
HETATM    7  N   UNL     1      41.309 -15.115   4.588  1.00  0.00    -0.263 N 
HETATM    8  C   UNL     1      42.606 -15.558   4.767  1.00  0.00     0.270 C 
HETATM    9  O   UNL     1      43.430 -14.903   5.404  1.00  0.00    -0.266 OA
HETATM   10  H   UNL     1      40.701 -15.480   3.858  1.00  0.00     0.190 HD
BRANCH   8  11
HETATM   11  C   UNL     1      42.979 -16.850   4.124  1.00  0.00     0.033 A 
HETATM   12  C   UNL     1      43.759 -17.820   4.768  1.00  0.00     0.017 A 
HETATM   13  C   UNL     1      44.078 -19.013   4.112  1.00  0.00     0.007 A 
HETATM   14  C   UNL     1      43.626 -19.255   2.810  1.00  0.00    -0.062 A 
HETATM   15  C   UNL     1      43.996 -20.520   2.092  1.00  0.00     0.048 C 
HETATM   16  C   UNL     1      42.868 -18.274   2.160  1.00  0.00     0.007 A 
HETATM   17  C   UNL     1      42.546 -17.082   2.812  1.00  0.00     0.017 A 
ENDBRANCH   8  11
ENDBRANCH   4   7
ENDBRANCH   2   3
ENDBRANCH   1   2
BRANCH   1  18
HETATM   18  C   UNL     1      42.446 -10.129   6.020  1.00  0.00     0.185 A 
HETATM   19  N   UNL     1      43.290 -10.634   6.881  1.00  0.00    -0.204 NA
HETATM   20  C   UNL     1      43.105  -9.834   7.990  1.00  0.00     0.166 A 
HETATM   21  N   UNL     1      42.198  -8.854   7.830  1.00  0.00    -0.155 NA
HETATM   22  N   UNL     1      41.779  -9.081   6.572  1.00  0.00    -0.254 N 
HETATM   23  H   UNL     1      41.105  -8.463   6.129  1.00  0.00     0.191 HD
BRANCH  20  24
HETATM   24  C   UNL     1      43.842 -10.070   9.285  1.00  0.00     0.202 C 
BRANCH  24  25
HETATM   25  N   UNL     1      43.037 -10.598  10.394  1.00  0.00    -0.383 N 
HETATM   26  H   UNL     1      43.472 -11.413  10.817  1.00  0.00     0.160 HD
BRANCH  25  27
HETATM   27  C   UNL     1      42.461  -9.739  11.329  1.00  0.00     0.028 A 
HETATM   28  C   UNL     1      43.200  -8.968  12.236  1.00  0.00     0.036 A 
HETATM   29  C   UNL     1      42.578  -8.060  13.110  1.00  0.00    -0.060 A 
HETATM   30  C   UNL     1      43.385  -7.248  14.079  1.00  0.00     0.048 C 
HETATM   31  C   UNL     1      41.192  -7.891  13.046  1.00  0.00     0.007 A 
HETATM   32  C   UNL     1      40.444  -8.615  12.123  1.00  0.00     0.003 A 
HETATM   33  C   UNL     1      41.079  -9.520  11.268  1.00  0.00     0.029 A 
ENDBRANCH  25  27
ENDBRANCH  24  25
ENDBRANCH  20  24
ENDBRANCH   1  18
TORSDOF 8
ENDMDL
MODEL 10
REMARK VINA RESULT:      -7.9      3.240      4.294
REMARK  8 active torsions:
REMARK  status: ('A' for Active; 'I' for Inactive)
REMARK    1  A    between atoms: C_5  and  C_6 
REMARK       I    between atoms: C_6  and  N_7 
REMARK    2  A    between atoms: N_7  and  N_8 
REMARK       I    between atoms: N_8  and  C_9 
REMARK    3  A    between atoms: C_9  and  C_10 
REMARK    4  A    between atoms: C_10  and  S_11 
REMARK    5  A    between atoms: S_11  and  C_12 
REMARK    6  A    between atoms: C_14  and  C_15 
REMARK    7  A    between atoms: C_15  and  N_16 
REMARK    8  A    between atoms: N_16  and  C_17 
ROOT
HETATM    1  S   UNL     1      43.120 -14.201   6.581  1.00  0.00    -0.081 SA
ENDROOT
BRANCH   1   2
HETATM    2  C   UNL     1      43.774 -12.552   6.193  1.00  0.00     0.187 C 
BRANCH   2   3
HETATM    3  C   UNL     1      43.231 -11.472   7.117  1.00  0.00     0.245 C 
HETATM    4  N   UNL     1      43.870 -11.435   8.344  1.00  0.00    -0.267 N 
HETATM    5  H   UNL     1      44.425 -12.220   8.689  1.00  0.00     0.190 HD
HETATM    6  O   UNL     1      42.316 -10.695   6.837  1.00  0.00    -0.271 OA
BRANCH   4   7
HETATM    7  N   UNL     1      43.285 -10.646   9.351  1.00  0.00    -0.263 N 
HETATM    8  C   UNL     1      44.050 -10.407  10.478  1.00  0.00     0.270 C 
HETATM    9  O   UNL     1      45.231 -10.746  10.540  1.00  0.00    -0.266 OA
HETATM   10  H   UNL     1      42.267 -10.633   9.367  1.00  0.00     0.190 HD
BRANCH   8  11
HETATM   11  C   UNL     1      43.373  -9.752  11.634  1.00  0.00     0.033 A 
HETATM   12  C   UNL     1      42.308 -10.346  12.323  1.00  0.00     0.017 A 
HETATM   13  C   UNL     1      41.710  -9.682  13.400  1.00  0.00     0.007 A 
HETATM   14  C   UNL     1      42.165  -8.421  13.801  1.00  0.00    -0.062 A 
HETATM   15  C   UNL     1      41.503  -7.692  14.934  1.00  0.00     0.048 C 
HETATM   16  C   UNL     1      43.212  -7.819  13.095  1.00  0.00     0.007 A 
HETATM   17  C   UNL     1      43.812  -8.480  12.020  1.00  0.00     0.017 A 
ENDBRANCH   8  11
ENDBRANCH   4   7
ENDBRANCH   2   3
ENDBRANCH   1   2
BRANCH   1  18
HETATM   18  C   UNL     1      43.025 -14.877   5.002  1.00  0.00     0.185 A 
HETATM   19  N   UNL     1      42.493 -14.344   3.933  1.00  0.00    -0.204 NA
HETATM   20  C   UNL     1      42.723 -15.304   2.970  1.00  0.00     0.166 A 
HETATM   21  N   UNL     1      43.389 -16.388   3.406  1.00  0.00    -0.155 NA
HETATM   22  N   UNL     1      43.549 -16.097   4.709  1.00  0.00    -0.254 N 
HETATM   23  H   UNL     1      44.070 -16.719   5.321  1.00  0.00     0.191 HD
BRANCH  20  24
HETATM   24  C   UNL     1      42.232 -15.155   1.551  1.00  0.00     0.202 C 
BRANCH  24  25
HETATM   25  N   UNL     1      40.777 -15.208   1.367  1.00  0.00    -0.383 N 
HETATM   26  H   UNL     1      40.288 -15.206   2.259  1.00  0.00     0.160 HD
BRANCH  25  27
HETATM   27  C   UNL     1      40.150 -14.423   0.401  1.00  0.00     0.028 A 
HETATM   28  C   UNL     1      39.638 -14.930  -0.801  1.00  0.00     0.036 A 
HETATM   29  C   UNL     1      38.948 -14.111  -1.712  1.00  0.00    -0.060 A 
HETATM   30  C   UNL     1      38.413 -14.670  -2.997  1.00  0.00     0.048 C 
HETATM   31  C   UNL     1      38.730 -12.768  -1.393  1.00  0.00     0.007 A 
HETATM   32  C   UNL     1      39.192 -12.255  -0.185  1.00  0.00     0.003 A 
HETATM   33  C   UNL     1      39.884 -13.081   0.705  1.00  0.00     0.029 A 
ENDBRANCH  25  27
ENDBRANCH  24  25
ENDBRANCH  20  24
ENDBRANCH   1  18
TORSDOF 8
ENDMDL
