MODEL 1
REMARK VINA RESULT:      -8.9      0.000      0.000
REMARK  10 active torsions:
REMARK  status: ('A' for Active; 'I' for Inactive)
REMARK    1  A    between atoms: C_2  and  O_3 
REMARK    2  A    between atoms: O_3  and  C_4 
REMARK    3  A    between atoms: C_4  and  C_5 
REMARK    4  A    between atoms: C_6  and  C_7 
REMARK    5  A    between atoms: C_16  and  C_17 
REMARK    6  A    between atoms: C_17  and  C_18 
REMARK       I    between atoms: C_18  and  N_19 
REMARK    7  A    between atoms: N_19  and  C_20 
REMARK    8  A    between atoms: C_20  and  C_21 
REMARK    9  A    between atoms: C_21  and  N_22 
REMARK   10  A    between atoms: C_31  and  C_32 
ROOT
HETATM    1  C   UNL     1      42.634 -16.446   3.057  1.00  0.00     0.075 C 
HETATM    2  C   UNL     1      43.230 -15.284   3.892  1.00  0.00     0.151 C 
HETATM    3  N   UNL     1      43.161 -15.366   5.320  1.00  0.00    -0.321 N 
HETATM    4  C   UNL     1      43.066 -14.544   6.310  1.00  0.00     0.011 C 
HETATM    5  C   UNL     1      43.698 -16.716   5.715  1.00  0.00     0.170 C 
HETATM    6  S   UNL     1      44.069 -16.804   7.398  1.00  0.00    -0.086 SA
HETATM    7  C   UNL     1      43.338 -15.154   7.669  1.00  0.00     0.135 C 
HETATM    8  N   UNL     1      43.928 -17.632   4.854  1.00  0.00    -0.219 NA
HETATM    9  C   UNL     1      43.401 -17.582   3.530  1.00  0.00     0.157 C 
ENDROOT
BRANCH   4  10
HETATM   10  C   UNL     1      42.881 -13.070   6.090  1.00  0.00     0.156 C 
BRANCH  10  11
HETATM   11  C   UNL     1      43.926 -12.197   6.752  1.00  0.00     0.223 C 
HETATM   12  N   UNL     1      43.557 -11.680   7.968  1.00  0.00    -0.359 N 
HETATM   13  H   UNL     1      42.616 -11.858   8.314  1.00  0.00     0.162 HD
HETATM   14  O   UNL     1      45.031 -11.999   6.256  1.00  0.00    -0.273 OA
BRANCH  12  15
HETATM   15  C   UNL     1      44.314 -10.659   8.696  1.00  0.00     0.150 C 
BRANCH  15  16
HETATM   16  C   UNL     1      43.475  -9.711   9.580  1.00  0.00     0.253 C 
BRANCH  16  17
HETATM   17  N   UNL     1      42.735 -10.444  10.681  1.00  0.00    -0.077 N 
HETATM   18  H   UNL     1      42.320 -11.296  10.256  1.00  0.00     0.279 HD
HETATM   19  C   UNL     1      43.633 -10.922  11.790  1.00  0.00     0.269 C 
HETATM   20  C   UNL     1      41.598  -9.626  11.229  1.00  0.00     0.269 C 
ENDBRANCH  16  17
ENDBRANCH  15  16
ENDBRANCH  12  15
ENDBRANCH  10  11
ENDBRANCH   4  10
BRANCH   2  21
HETATM   21  C   UNL     1      42.124 -14.716   3.197  1.00  0.00     0.044 C 
HETATM   22  C   UNL     1      42.278 -12.978   3.800  1.00  0.00    -0.068 C 
HETATM   23  C   UNL     1      42.791 -11.880   2.931  1.00  0.00     0.044 C 
HETATM   24  C   UNL     1      41.625 -12.644   5.408  1.00  0.00     0.004 C 
HETATM   25  C   UNL     1      40.776 -13.927   6.330  1.00  0.00     0.007 C 
HETATM   26  C   UNL     1      40.467 -15.562   5.633  1.00  0.00    -0.065 C 
HETATM   27  C   UNL     1      39.536 -16.504   6.340  1.00  0.00     0.048 C 
HETATM   28  C   UNL     1      41.049 -15.975   4.016  1.00  0.00    -0.002 C 
ENDBRANCH   2  21
BRANCH   1  29
HETATM   29  C   UNL     1      41.123 -15.717   1.728  1.00  0.00     0.293 C 
HETATM   30  O   UNL     1      39.905 -16.069   1.706  1.00  0.00    -0.259 OA
BRANCH  29  31
HETATM   31  O   UNL     1      41.293 -14.741   0.684  1.00  0.00    -0.318 OA
BRANCH  31  32
HETATM   32  C   UNL     1      40.188 -13.907   0.268  1.00  0.00     0.174 C 
HETATM   33  C   UNL     1      39.922 -14.106  -1.210  1.00  0.00     0.034 C 
ENDBRANCH  31  32
ENDBRANCH  29  31
ENDBRANCH   1  29
BRANCH   9  34
HETATM   34  C   UNL     1      43.657 -19.011   2.911  1.00  0.00     0.435 C 
HETATM   35  F   UNL     1      42.685 -19.310   1.999  1.00  0.00    -0.165 F 
HETATM   36  F   UNL     1      44.829 -19.075   2.231  1.00  0.00    -0.165 F 
HETATM   37  F   UNL     1      43.609 -20.025   3.807  1.00  0.00    -0.165 F 
ENDBRANCH   9  34
TORSDOF 10
ENDMDL
MODEL 2
REMARK VINA RESULT:      -7.8      3.613      5.043
REMARK  10 active torsions:
REMARK  status: ('A' for Active; 'I' for Inactive)
REMARK    1  A    between atoms: C_2  and  O_3 
REMARK    2  A    between atoms: O_3  and  C_4 
REMARK    3  A    between atoms: C_4  and  C_5 
REMARK    4  A    between atoms: C_6  and  C_7 
REMARK    5  A    between atoms: C_16  and  C_17 
REMARK    6  A    between atoms: C_17  and  C_18 
REMARK       I    between atoms: C_18  and  N_19 
REMARK    7  A    between atoms: N_19  and  C_20 
REMARK    8  A    between atoms: C_20  and  C_21 
REMARK    9  A    between atoms: C_21  and  N_22 
REMARK   10  A    between atoms: C_31  and  C_32 
ROOT
HETATM    1  C   UNL     1      40.477 -12.936   2.674  1.00  0.00     0.075 C 
HETATM    2  C   UNL     1      40.851 -12.881   4.177  1.00  0.00     0.151 C 
HETATM    3  N   UNL     1      41.393 -11.664   4.701  1.00  0.00    -0.321 N 
HETATM    4  C   UNL     1      42.219 -11.320   5.630  1.00  0.00     0.011 C 
HETATM    5  C   UNL     1      40.473 -10.549   4.279  1.00  0.00     0.170 C 
HETATM    6  S   UNL     1      40.753  -9.099   5.170  1.00  0.00    -0.086 SA
HETATM    7  C   UNL     1      42.214  -9.845   5.969  1.00  0.00     0.135 C 
HETATM    8  N   UNL     1      39.541 -10.728   3.421  1.00  0.00    -0.219 NA
HETATM    9  C   UNL     1      39.501 -11.868   2.567  1.00  0.00     0.157 C 
ENDROOT
BRANCH   4  10
HETATM   10  C   UNL     1      42.980 -12.345   6.420  1.00  0.00     0.156 C 
BRANCH  10  11
HETATM   11  C   UNL     1      44.011 -11.771   7.369  1.00  0.00     0.223 C 
HETATM   12  N   UNL     1      43.501 -11.282   8.545  1.00  0.00    -0.359 N 
HETATM   13  H   UNL     1      42.493 -11.280   8.682  1.00  0.00     0.162 HD
HETATM   14  O   UNL     1      45.213 -11.777   7.120  1.00  0.00    -0.273 OA
BRANCH  12  15
HETATM   15  C   UNL     1      44.271 -10.507   9.520  1.00  0.00     0.150 C 
BRANCH  15  16
HETATM   16  C   UNL     1      43.877 -10.714  10.999  1.00  0.00     0.253 C 
BRANCH  16  17
HETATM   17  N   UNL     1      43.226  -9.487  11.605  1.00  0.00    -0.077 N 
HETATM   18  H   UNL     1      43.781  -9.231  12.446  1.00  0.00     0.279 HD
HETATM   19  C   UNL     1      43.255  -8.285  10.701  1.00  0.00     0.269 C 
HETATM   20  C   UNL     1      41.825  -9.771  12.073  1.00  0.00     0.269 C 
ENDBRANCH  16  17
ENDBRANCH  15  16
ENDBRANCH  12  15
ENDBRANCH  10  11
ENDBRANCH   4  10
BRANCH   2  21
HETATM   21  C   UNL     1      41.751 -13.825   3.601  1.00  0.00     0.044 C 
HETATM   22  C   UNL     1      40.560 -15.206   3.312  1.00  0.00    -0.068 C 
HETATM   23  C   UNL     1      40.062 -15.551   1.950  1.00  0.00     0.044 C 
HETATM   24  C   UNL     1      40.171 -16.212   4.712  1.00  0.00     0.004 C 
HETATM   25  C   UNL     1      40.986 -15.938   6.285  1.00  0.00     0.007 C 
HETATM   26  C   UNL     1      42.291 -14.708   6.487  1.00  0.00    -0.065 C 
HETATM   27  C   UNL     1      43.110 -14.696   7.744  1.00  0.00     0.048 C 
HETATM   28  C   UNL     1      42.774 -13.681   5.133  1.00  0.00    -0.002 C 
ENDBRANCH   2  21
BRANCH   1  29
HETATM   29  C   UNL     1      41.543 -14.510   1.691  1.00  0.00     0.293 C 
HETATM   30  O   UNL     1      41.236 -15.053   0.587  1.00  0.00    -0.259 OA
BRANCH  29  31
HETATM   31  O   UNL     1      42.741 -15.159   2.155  1.00  0.00    -0.318 OA
BRANCH  31  32
HETATM   32  C   UNL     1      43.313 -16.263   1.419  1.00  0.00     0.174 C 
HETATM   33  C   UNL     1      43.326 -17.507   2.285  1.00  0.00     0.034 C 
ENDBRANCH  31  32
ENDBRANCH  29  31
ENDBRANCH   1  29
BRANCH   9  34
HETATM   34  C   UNL     1      38.396 -11.556   1.484  1.00  0.00     0.435 C 
HETATM   35  F   UNL     1      38.580 -12.343   0.383  1.00  0.00    -0.165 F 
HETATM   36  F   UNL     1      37.146 -11.835   1.928  1.00  0.00    -0.165 F 
HETATM   37  F   UNL     1      38.424 -10.289   1.008  1.00  0.00    -0.165 F 
ENDBRANCH   9  34
TORSDOF 10
ENDMDL
MODEL 3
REMARK VINA RESULT:      -7.7      3.978      7.498
REMARK  10 active torsions:
REMARK  status: ('A' for Active; 'I' for Inactive)
REMARK    1  A    between atoms: C_2  and  O_3 
REMARK    2  A    between atoms: O_3  and  C_4 
REMARK    3  A    between atoms: C_4  and  C_5 
REMARK    4  A    between atoms: C_6  and  C_7 
REMARK    5  A    between atoms: C_16  and  C_17 
REMARK    6  A    between atoms: C_17  and  C_18 
REMARK       I    between atoms: C_18  and  N_19 
REMARK    7  A    between atoms: N_19  and  C_20 
REMARK    8  A    between atoms: C_20  and  C_21 
REMARK    9  A    between atoms: C_21  and  N_22 
REMARK   10  A    between atoms: C_31  and  C_32 
ROOT
HETATM    1  C   UNL     1      43.476 -14.171   5.347  1.00  0.00     0.075 C 
HETATM    2  C   UNL     1      42.903 -14.010   3.916  1.00  0.00     0.151 C 
HETATM    3  N   UNL     1      41.519 -13.674   3.769  1.00  0.00    -0.321 N 
HETATM    4  C   UNL     1      40.578 -13.897   2.916  1.00  0.00     0.011 C 
HETATM    5  C   UNL     1      41.255 -12.482   4.650  1.00  0.00     0.170 C 
HETATM    6  S   UNL     1      39.761 -11.708   4.271  1.00  0.00    -0.086 SA
HETATM    7  C   UNL     1      39.343 -13.040   3.096  1.00  0.00     0.135 C 
HETATM    8  N   UNL     1      42.112 -12.068   5.505  1.00  0.00    -0.219 NA
HETATM    9  C   UNL     1      43.215 -12.866   5.924  1.00  0.00     0.157 C 
ENDROOT
BRANCH   4  10
HETATM   10  C   UNL     1      40.786 -14.808   1.740  1.00  0.00     0.156 C 
BRANCH  10  11
HETATM   11  C   UNL     1      40.507 -14.173   0.394  1.00  0.00     0.223 C 
HETATM   12  N   UNL     1      39.524 -14.788  -0.339  1.00  0.00    -0.359 N 
HETATM   13  H   UNL     1      39.096 -15.638   0.025  1.00  0.00     0.162 HD
HETATM   14  O   UNL     1      41.089 -13.165   0.006  1.00  0.00    -0.273 OA
BRANCH  12  15
HETATM   15  C   UNL     1      39.221 -14.479  -1.738  1.00  0.00     0.150 C 
BRANCH  15  16
HETATM   16  C   UNL     1      38.138 -13.402  -1.964  1.00  0.00     0.253 C 
BRANCH  16  17
HETATM   17  N   UNL     1      38.629 -12.006  -1.637  1.00  0.00    -0.077 N 
HETATM   18  H   UNL     1      39.635 -12.085  -1.391  1.00  0.00     0.279 HD
HETATM   19  C   UNL     1      38.555 -11.057  -2.802  1.00  0.00     0.269 C 
HETATM   20  C   UNL     1      37.926 -11.433  -0.436  1.00  0.00     0.269 C 
ENDBRANCH  16  17
ENDBRANCH  15  16
ENDBRANCH  12  15
ENDBRANCH  10  11
ENDBRANCH   4  10
BRANCH   2  21
HETATM   21  C   UNL     1      43.253 -15.387   4.026  1.00  0.00     0.044 C 
HETATM   22  C   UNL     1      42.542 -15.985   2.431  1.00  0.00    -0.068 C 
HETATM   23  C   UNL     1      43.399 -16.341   1.265  1.00  0.00     0.044 C 
HETATM   24  C   UNL     1      40.799 -16.279   2.411  1.00  0.00     0.004 C 
HETATM   25  C   UNL     1      39.826 -16.093   3.906  1.00  0.00     0.007 C 
HETATM   26  C   UNL     1      40.581 -15.699   5.497  1.00  0.00    -0.065 C 
HETATM   27  C   UNL     1      39.764 -15.807   6.751  1.00  0.00     0.048 C 
HETATM   28  C   UNL     1      42.322 -15.425   5.622  1.00  0.00    -0.002 C 
ENDBRANCH   2  21
BRANCH   1  29
HETATM   29  C   UNL     1      44.313 -16.123   5.606  1.00  0.00     0.293 C 
HETATM   30  O   UNL     1      44.739 -16.623   6.691  1.00  0.00    -0.259 OA
BRANCH  29  31
HETATM   31  O   UNL     1      44.508 -17.119   4.585  1.00  0.00    -0.318 OA
BRANCH  31  32
HETATM   32  C   UNL     1      44.306 -18.520   4.875  1.00  0.00     0.174 C 
HETATM   33  C   UNL     1      43.974 -19.266   3.598  1.00  0.00     0.034 C 
ENDBRANCH  31  32
ENDBRANCH  29  31
ENDBRANCH   1  29
BRANCH   9  34
HETATM   34  C   UNL     1      43.830 -12.126   7.175  1.00  0.00     0.435 C 
HETATM   35  F   UNL     1      43.666 -12.886   8.299  1.00  0.00    -0.165 F 
HETATM   36  F   UNL     1      45.167 -11.936   7.056  1.00  0.00    -0.165 F 
HETATM   37  F   UNL     1      43.239 -10.945   7.471  1.00  0.00    -0.165 F 
ENDBRANCH   9  34
TORSDOF 10
ENDMDL
MODEL 4
REMARK VINA RESULT:      -7.5      3.174      7.721
REMARK  10 active torsions:
REMARK  status: ('A' for Active; 'I' for Inactive)
REMARK    1  A    between atoms: C_2  and  O_3 
REMARK    2  A    between atoms: O_3  and  C_4 
REMARK    3  A    between atoms: C_4  and  C_5 
REMARK    4  A    between atoms: C_6  and  C_7 
REMARK    5  A    between atoms: C_16  and  C_17 
REMARK    6  A    between atoms: C_17  and  C_18 
REMARK       I    between atoms: C_18  and  N_19 
REMARK    7  A    between atoms: N_19  and  C_20 
REMARK    8  A    between atoms: C_20  and  C_21 
REMARK    9  A    between atoms: C_21  and  N_22 
REMARK   10  A    between atoms: C_31  and  C_32 
ROOT
HETATM    1  C   UNL     1      43.249 -13.647   5.686  1.00  0.00     0.075 C 
HETATM    2  C   UNL     1      42.174 -13.338   4.613  1.00  0.00     0.151 C 
HETATM    3  N   UNL     1      42.150 -14.133   3.423  1.00  0.00    -0.321 N 
HETATM    4  C   UNL     1      41.829 -13.970   2.184  1.00  0.00     0.011 C 
HETATM    5  C   UNL     1      42.162 -15.576   3.851  1.00  0.00     0.170 C 
HETATM    6  S   UNL     1      41.718 -16.641   2.569  1.00  0.00    -0.086 SA
HETATM    7  C   UNL     1      41.709 -15.251   1.386  1.00  0.00     0.135 C 
HETATM    8  N   UNL     1      42.387 -15.922   5.061  1.00  0.00    -0.219 NA
HETATM    9  C   UNL     1      42.959 -15.029   6.014  1.00  0.00     0.157 C 
ENDROOT
BRANCH   4  10
HETATM   10  C   UNL     1      41.433 -12.625   1.648  1.00  0.00     0.156 C 
BRANCH  10  11
HETATM   11  C   UNL     1      40.596 -12.670   0.386  1.00  0.00     0.223 C 
HETATM   12  N   UNL     1      41.278 -12.375  -0.767  1.00  0.00    -0.359 N 
HETATM   13  H   UNL     1      42.255 -12.095  -0.704  1.00  0.00     0.162 HD
HETATM   14  O   UNL     1      39.409 -12.984   0.392  1.00  0.00    -0.273 OA
BRANCH  12  15
HETATM   15  C   UNL     1      40.645 -12.163  -2.070  1.00  0.00     0.150 C 
BRANCH  15  16
HETATM   16  C   UNL     1      40.210 -13.442  -2.817  1.00  0.00     0.253 C 
BRANCH  16  17
HETATM   17  N   UNL     1      38.836 -13.924  -2.396  1.00  0.00    -0.077 N 
HETATM   18  H   UNL     1      38.858 -14.045  -1.364  1.00  0.00     0.279 HD
HETATM   19  C   UNL     1      37.741 -12.932  -2.680  1.00  0.00     0.269 C 
HETATM   20  C   UNL     1      38.509 -15.267  -2.990  1.00  0.00     0.269 C 
ENDBRANCH  16  17
ENDBRANCH  15  16
ENDBRANCH  12  15
ENDBRANCH  10  11
ENDBRANCH   4  10
BRANCH   2  21
HETATM   21  C   UNL     1      43.017 -12.190   4.639  1.00  0.00     0.044 C 
HETATM   22  C   UNL     1      42.510 -11.506   6.277  1.00  0.00    -0.068 C 
HETATM   23  C   UNL     1      43.385 -11.599   7.480  1.00  0.00     0.044 C 
HETATM   24  C   UNL     1      41.005 -10.580   6.308  1.00  0.00     0.004 C 
HETATM   25  C   UNL     1      40.103 -10.258   4.792  1.00  0.00     0.007 C 
HETATM   26  C   UNL     1      40.726 -10.771   3.178  1.00  0.00    -0.065 C 
HETATM   27  C   UNL     1      40.067 -10.257   1.932  1.00  0.00     0.048 C 
HETATM   28  C   UNL     1      42.242 -11.669   3.045  1.00  0.00    -0.002 C 
ENDBRANCH   2  21
BRANCH   1  29
HETATM   29  C   UNL     1      44.452 -11.918   6.064  1.00  0.00     0.293 C 
HETATM   30  O   UNL     1      44.587 -10.913   5.303  1.00  0.00    -0.259 OA
BRANCH  29  31
HETATM   31  O   UNL     1      45.268 -11.673   7.225  1.00  0.00    -0.318 OA
BRANCH  31  32
HETATM   32  C   UNL     1      46.454 -10.854   7.131  1.00  0.00     0.174 C 
HETATM   33  C   UNL     1      46.293  -9.616   7.990  1.00  0.00     0.034 C 
ENDBRANCH  31  32
ENDBRANCH  29  31
ENDBRANCH   1  29
BRANCH   9  34
HETATM   34  C   UNL     1      43.342 -15.919   7.260  1.00  0.00     0.435 C 
HETATM   35  F   UNL     1      42.562 -17.040   7.296  1.00  0.00    -0.165 F 
HETATM   36  F   UNL     1      44.621 -16.366   7.201  1.00  0.00    -0.165 F 
HETATM   37  F   UNL     1      43.138 -15.321   8.457  1.00  0.00    -0.165 F 
ENDBRANCH   9  34
TORSDOF 10
ENDMDL
MODEL 5
REMARK VINA RESULT:      -7.5      4.289      7.885
REMARK  10 active torsions:
REMARK  status: ('A' for Active; 'I' for Inactive)
REMARK    1  A    between atoms: C_2  and  O_3 
REMARK    2  A    between atoms: O_3  and  C_4 
REMARK    3  A    between atoms: C_4  and  C_5 
REMARK    4  A    between atoms: C_6  and  C_7 
REMARK    5  A    between atoms: C_16  and  C_17 
REMARK    6  A    between atoms: C_17  and  C_18 
REMARK       I    between atoms: C_18  and  N_19 
REMARK    7  A    between atoms: N_19  and  C_20 
REMARK    8  A    between atoms: C_20  and  C_21 
REMARK    9  A    between atoms: C_21  and  N_22 
REMARK   10  A    between atoms: C_31  and  C_32 
ROOT
HETATM    1  C   UNL     1      43.607 -13.152   5.260  1.00  0.00     0.075 C 
HETATM    2  C   UNL     1      43.085 -13.010   3.807  1.00  0.00     0.151 C 
HETATM    3  N   UNL     1      42.009 -12.099   3.555  1.00  0.00    -0.321 N 
HETATM    4  C   UNL     1      41.020 -12.010   2.733  1.00  0.00     0.011 C 
HETATM    5  C   UNL     1      42.386 -10.782   4.180  1.00  0.00     0.170 C 
HETATM    6  S   UNL     1      41.402  -9.485   3.612  1.00  0.00    -0.086 SA
HETATM    7  C   UNL     1      40.339 -10.658   2.704  1.00  0.00     0.135 C 
HETATM    8  N   UNL     1      43.389 -10.667   4.965  1.00  0.00    -0.219 NA
HETATM    9  C   UNL     1      44.019 -11.796   5.566  1.00  0.00     0.157 C 
ENDROOT
BRANCH   4  10
HETATM   10  C   UNL     1      40.705 -13.112   1.762  1.00  0.00     0.156 C 
BRANCH  10  11
HETATM   11  C   UNL     1      40.229 -12.639   0.405  1.00  0.00     0.223 C 
HETATM   12  N   UNL     1      41.182 -12.671  -0.582  1.00  0.00    -0.359 N 
HETATM   13  H   UNL     1      42.132 -12.943  -0.340  1.00  0.00     0.162 HD
HETATM   14  O   UNL     1      39.071 -12.291   0.196  1.00  0.00    -0.273 OA
BRANCH  12  15
HETATM   15  C   UNL     1      41.014 -12.081  -1.912  1.00  0.00     0.150 C 
BRANCH  15  16
HETATM   16  C   UNL     1      40.414 -13.015  -2.985  1.00  0.00     0.253 C 
BRANCH  16  17
HETATM   17  N   UNL     1      38.989 -12.646  -3.347  1.00  0.00    -0.077 N 
HETATM   18  H   UNL     1      38.906 -12.725  -4.380  1.00  0.00     0.279 HD
HETATM   19  C   UNL     1      37.962 -13.582  -2.770  1.00  0.00     0.269 C 
HETATM   20  C   UNL     1      38.674 -11.219  -2.989  1.00  0.00     0.269 C 
ENDBRANCH  16  17
ENDBRANCH  15  16
ENDBRANCH  12  15
ENDBRANCH  10  11
ENDBRANCH   4  10
BRANCH   2  21
HETATM   21  C   UNL     1      42.760 -14.343   4.193  1.00  0.00     0.044 C 
HETATM   22  C   UNL     1      42.021 -14.922   2.604  1.00  0.00    -0.068 C 
HETATM   23  C   UNL     1      42.738 -15.857   1.690  1.00  0.00     0.044 C 
HETATM   24  C   UNL     1      40.346 -14.449   2.299  1.00  0.00     0.004 C 
HETATM   25  C   UNL     1      39.417 -13.541   3.536  1.00  0.00     0.007 C 
HETATM   26  C   UNL     1      40.103 -13.161   5.161  1.00  0.00    -0.065 C 
HETATM   27  C   UNL     1      39.203 -12.631   6.238  1.00  0.00     0.048 C 
HETATM   28  C   UNL     1      41.757 -13.628   5.570  1.00  0.00    -0.002 C 
ENDBRANCH   2  21
BRANCH   1  29
HETATM   29  C   UNL     1      43.455 -15.183   5.918  1.00  0.00     0.293 C 
HETATM   30  O   UNL     1      42.763 -15.610   6.891  1.00  0.00    -0.259 OA
BRANCH  29  31
HETATM   31  O   UNL     1      44.122 -16.324   5.349  1.00  0.00    -0.318 OA
BRANCH  31  32
HETATM   32  C   UNL     1      43.539 -17.643   5.447  1.00  0.00     0.174 C 
HETATM   33  C   UNL     1      43.886 -18.452   4.214  1.00  0.00     0.034 C 
ENDBRANCH  31  32
ENDBRANCH  29  31
ENDBRANCH   1  29
BRANCH   9  34
HETATM   34  C   UNL     1      44.986 -11.212   6.669  1.00  0.00     0.435 C 
HETATM   35  F   UNL     1      44.880 -11.940   7.820  1.00  0.00    -0.165 F 
HETATM   36  F   UNL     1      46.289 -11.291   6.305  1.00  0.00    -0.165 F 
HETATM   37  F   UNL     1      44.705  -9.941   7.041  1.00  0.00    -0.165 F 
ENDBRANCH   9  34
TORSDOF 10
ENDMDL
MODEL 6
REMARK VINA RESULT:      -7.4      5.387      9.757
REMARK  10 active torsions:
REMARK  status: ('A' for Active; 'I' for Inactive)
REMARK    1  A    between atoms: C_2  and  O_3 
REMARK    2  A    between atoms: O_3  and  C_4 
REMARK    3  A    between atoms: C_4  and  C_5 
REMARK    4  A    between atoms: C_6  and  C_7 
REMARK    5  A    between atoms: C_16  and  C_17 
REMARK    6  A    between atoms: C_17  and  C_18 
REMARK       I    between atoms: C_18  and  N_19 
REMARK    7  A    between atoms: N_19  and  C_20 
REMARK    8  A    between atoms: C_20  and  C_21 
REMARK    9  A    between atoms: C_21  and  N_22 
REMARK   10  A    between atoms: C_31  and  C_32 
ROOT
HETATM    1  C   UNL     1      41.972  -9.116   9.703  1.00  0.00     0.075 C 
HETATM    2  C   UNL     1      42.631  -9.416   8.333  1.00  0.00     0.151 C 
HETATM    3  N   UNL     1      41.803  -9.895   7.268  1.00  0.00    -0.321 N 
HETATM    4  C   UNL     1      41.935 -10.664   6.241  1.00  0.00     0.011 C 
HETATM    5  C   UNL     1      40.624  -8.964   7.167  1.00  0.00     0.170 C 
HETATM    6  S   UNL     1      39.765  -9.157   5.684  1.00  0.00    -0.086 SA
HETATM    7  C   UNL     1      40.794 -10.599   5.248  1.00  0.00     0.135 C 
HETATM    8  N   UNL     1      40.380  -8.081   8.059  1.00  0.00    -0.219 NA
HETATM    9  C   UNL     1      40.983  -8.116   9.350  1.00  0.00     0.157 C 
ENDROOT
BRANCH   4  10
HETATM   10  C   UNL     1      43.210 -11.416   5.984  1.00  0.00     0.156 C 
BRANCH  10  11
HETATM   11  C   UNL     1      43.123 -12.444   4.875  1.00  0.00     0.223 C 
HETATM   12  N   UNL     1      42.750 -13.700   5.283  1.00  0.00    -0.359 N 
HETATM   13  H   UNL     1      42.615 -13.875   6.277  1.00  0.00     0.162 HD
HETATM   14  O   UNL     1      43.334 -12.165   3.699  1.00  0.00    -0.273 OA
BRANCH  12  15
HETATM   15  C   UNL     1      42.790 -14.891   4.432  1.00  0.00     0.150 C 
BRANCH  15  16
HETATM   16  C   UNL     1      41.486 -15.211   3.671  1.00  0.00     0.253 C 
BRANCH  16  17
HETATM   17  N   UNL     1      41.262 -14.292   2.487  1.00  0.00    -0.077 N 
HETATM   18  H   UNL     1      42.054 -13.620   2.467  1.00  0.00     0.279 HD
HETATM   19  C   UNL     1      41.282 -15.006   1.162  1.00  0.00     0.269 C 
HETATM   20  C   UNL     1      40.003 -13.483   2.639  1.00  0.00     0.269 C 
ENDBRANCH  16  17
ENDBRANCH  15  16
ENDBRANCH  12  15
ENDBRANCH  10  11
ENDBRANCH   4  10
BRANCH   2  21
HETATM   21  C   UNL     1      43.189 -10.369   9.233  1.00  0.00     0.044 C 
HETATM   22  C   UNL     1      44.272  -9.236  10.207  1.00  0.00    -0.068 C 
HETATM   23  C   UNL     1      43.933  -8.816  11.597  1.00  0.00     0.044 C 
HETATM   24  C   UNL     1      45.821  -8.806   9.473  1.00  0.00     0.004 C 
HETATM   25  C   UNL     1      46.321  -9.534   7.912  1.00  0.00     0.007 C 
HETATM   26  C   UNL     1      45.330 -10.791   7.079  1.00  0.00    -0.065 C 
HETATM   27  C   UNL     1      45.912 -11.545   5.920  1.00  0.00     0.048 C 
HETATM   28  C   UNL     1      43.784 -11.311   7.758  1.00  0.00    -0.002 C 
ENDBRANCH   2  21
BRANCH   1  29
HETATM   29  C   UNL     1      42.892 -10.276  11.249  1.00  0.00     0.293 C 
HETATM   30  O   UNL     1      43.816 -11.132  11.100  1.00  0.00    -0.259 OA
BRANCH  29  31
HETATM   31  O   UNL     1      42.580 -10.240  12.654  1.00  0.00    -0.318 OA
BRANCH  31  32
HETATM   32  C   UNL     1      41.216 -10.080  13.101  1.00  0.00     0.174 C 
HETATM   33  C   UNL     1      41.136  -8.957  14.115  1.00  0.00     0.034 C 
ENDBRANCH  31  32
ENDBRANCH  29  31
ENDBRANCH   1  29
BRANCH   9  34
HETATM   34  C   UNL     1      40.201  -7.056  10.219  1.00  0.00     0.435 C 
HETATM   35  F   UNL     1      41.041  -6.048  10.601  1.00  0.00    -0.165 F 
HETATM   36  F   UNL     1      39.203  -6.456   9.525  1.00  0.00    -0.165 F 
HETATM   37  F   UNL     1      39.702  -7.544  11.379  1.00  0.00    -0.165 F 
ENDBRANCH   9  34
TORSDOF 10
ENDMDL
MODEL 7
REMARK VINA RESULT:      -7.4      5.775      8.799
REMARK  10 active torsions:
REMARK  status: ('A' for Active; 'I' for Inactive)
REMARK    1  A    between atoms: C_2  and  O_3 
REMARK    2  A    between atoms: O_3  and  C_4 
REMARK    3  A    between atoms: C_4  and  C_5 
REMARK    4  A    between atoms: C_6  and  C_7 
REMARK    5  A    between atoms: C_16  and  C_17 
REMARK    6  A    between atoms: C_17  and  C_18 
REMARK       I    between atoms: C_18  and  N_19 
REMARK    7  A    between atoms: N_19  and  C_20 
REMARK    8  A    between atoms: C_20  and  C_21 
REMARK    9  A    between atoms: C_21  and  N_22 
REMARK   10  A    between atoms: C_31  and  C_32 
ROOT
HETATM    1  C   UNL     1      40.950 -13.449   1.947  1.00  0.00     0.075 C 
HETATM    2  C   UNL     1      40.532 -12.174   1.173  1.00  0.00     0.151 C 
HETATM    3  N   UNL     1      40.880 -12.073  -0.213  1.00  0.00    -0.321 N 
HETATM    4  C   UNL     1      41.170 -11.134  -1.048  1.00  0.00     0.011 C 
HETATM    5  C   UNL     1      40.428 -13.345  -0.879  1.00  0.00     0.170 C 
HETATM    6  S   UNL     1      40.396 -13.205  -2.598  1.00  0.00    -0.086 SA
HETATM    7  C   UNL     1      41.169 -11.555  -2.502  1.00  0.00     0.135 C 
HETATM    8  N   UNL     1      40.032 -14.358  -0.207  1.00  0.00    -0.219 NA
HETATM    9  C   UNL     1      40.288 -14.493   1.189  1.00  0.00     0.157 C 
ENDROOT
BRANCH   4  10
HETATM   10  C   UNL     1      41.312  -9.706  -0.604  1.00  0.00     0.156 C 
BRANCH  10  11
HETATM   11  C   UNL     1      42.148  -8.840  -1.523  1.00  0.00     0.223 C 
HETATM   12  N   UNL     1      41.460  -8.287  -2.574  1.00  0.00    -0.359 N 
HETATM   13  H   UNL     1      40.480  -8.528  -2.702  1.00  0.00     0.162 HD
HETATM   14  O   UNL     1      43.339  -8.621  -1.323  1.00  0.00    -0.273 OA
BRANCH  12  15
HETATM   15  C   UNL     1      42.089  -7.584  -3.694  1.00  0.00     0.150 C 
BRANCH  15  16
HETATM   16  C   UNL     1      42.257  -6.060  -3.515  1.00  0.00     0.253 C 
BRANCH  16  17
HETATM   17  N   UNL     1      42.643  -5.361  -4.804  1.00  0.00    -0.077 N 
HETATM   18  H   UNL     1      43.426  -4.717  -4.580  1.00  0.00     0.279 HD
HETATM   19  C   UNL     1      43.158  -6.298  -5.863  1.00  0.00     0.269 C 
HETATM   20  C   UNL     1      41.519  -4.517  -5.339  1.00  0.00     0.269 C 
ENDBRANCH  16  17
ENDBRANCH  15  16
ENDBRANCH  12  15
ENDBRANCH  10  11
ENDBRANCH   4  10
BRANCH   2  21
HETATM   21  C   UNL     1      41.481 -11.731   2.139  1.00  0.00     0.044 C 
HETATM   22  C   UNL     1      40.444 -11.912   3.655  1.00  0.00    -0.068 C 
HETATM   23  C   UNL     1      40.657 -13.015   4.635  1.00  0.00     0.044 C 
HETATM   24  C   UNL     1      39.292 -10.611   3.977  1.00  0.00     0.004 C 
HETATM   25  C   UNL     1      39.236  -9.162   2.921  1.00  0.00     0.007 C 
HETATM   26  C   UNL     1      40.398  -8.922   1.561  1.00  0.00    -0.065 C 
HETATM   27  C   UNL     1      40.472  -7.588   0.879  1.00  0.00     0.048 C 
HETATM   28  C   UNL     1      41.610 -10.152   1.188  1.00  0.00    -0.002 C 
ENDBRANCH   2  21
BRANCH   1  29
HETATM   29  C   UNL     1      42.171 -12.941   3.629  1.00  0.00     0.293 C 
HETATM   30  O   UNL     1      42.512 -13.714   4.575  1.00  0.00    -0.259 OA
BRANCH  29  31
HETATM   31  O   UNL     1      42.759 -11.657   3.910  1.00  0.00    -0.318 OA
BRANCH  31  32
HETATM   32  C   UNL     1      43.922 -11.549   4.761  1.00  0.00     0.174 C 
HETATM   33  C   UNL     1      43.555 -10.831   6.044  1.00  0.00     0.034 C 
ENDBRANCH  31  32
ENDBRANCH  29  31
ENDBRANCH   1  29
BRANCH   9  34
HETATM   34  C   UNL     1      39.911 -15.982   1.552  1.00  0.00     0.435 C 
HETATM   35  F   UNL     1      41.037 -16.688   1.870  1.00  0.00    -0.165 F 
HETATM   36  F   UNL     1      39.111 -16.059   2.644  1.00  0.00    -0.165 F 
HETATM   37  F   UNL     1      39.346 -16.678   0.539  1.00  0.00    -0.165 F 
ENDBRANCH   9  34
TORSDOF 10
ENDMDL
MODEL 8
REMARK VINA RESULT:      -7.3      5.397      8.118
REMARK  10 active torsions:
REMARK  status: ('A' for Active; 'I' for Inactive)
REMARK    1  A    between atoms: C_2  and  O_3 
REMARK    2  A    between atoms: O_3  and  C_4 
REMARK    3  A    between atoms: C_4  and  C_5 
REMARK    4  A    between atoms: C_6  and  C_7 
REMARK    5  A    between atoms: C_16  and  C_17 
REMARK    6  A    between atoms: C_17  and  C_18 
REMARK       I    between atoms: C_18  and  N_19 
REMARK    7  A    between atoms: N_19  and  C_20 
REMARK    8  A    between atoms: C_20  and  C_21 
REMARK    9  A    between atoms: C_21  and  N_22 
REMARK   10  A    between atoms: C_31  and  C_32 
ROOT
HETATM    1  C   UNL     1      40.954 -13.391   1.988  1.00  0.00     0.075 C 
HETATM    2  C   UNL     1      40.533 -12.085   1.267  1.00  0.00     0.151 C 
HETATM    3  N   UNL     1      40.891 -11.920  -0.110  1.00  0.00    -0.321 N 
HETATM    4  C   UNL     1      41.180 -10.943  -0.900  1.00  0.00     0.011 C 
HETATM    5  C   UNL     1      40.453 -13.165  -0.835  1.00  0.00     0.170 C 
HETATM    6  S   UNL     1      40.432 -12.950  -2.546  1.00  0.00    -0.086 SA
HETATM    7  C   UNL     1      41.193 -11.301  -2.372  1.00  0.00     0.135 C 
HETATM    8  N   UNL     1      40.059 -14.209  -0.211  1.00  0.00    -0.219 NA
HETATM    9  C   UNL     1      40.306 -14.404   1.179  1.00  0.00     0.157 C 
ENDROOT
BRANCH   4  10
HETATM   10  C   UNL     1      41.309  -9.536  -0.392  1.00  0.00     0.156 C 
BRANCH  10  11
HETATM   11  C   UNL     1      42.152  -8.627  -1.261  1.00  0.00     0.223 C 
HETATM   12  N   UNL     1      41.438  -7.774  -2.065  1.00  0.00    -0.359 N 
HETATM   13  H   UNL     1      40.423  -7.840  -2.073  1.00  0.00     0.162 HD
HETATM   14  O   UNL     1      43.379  -8.628  -1.222  1.00  0.00    -0.273 OA
BRANCH  12  15
HETATM   15  C   UNL     1      42.026  -6.952  -3.125  1.00  0.00     0.150 C 
BRANCH  15  16
HETATM   16  C   UNL     1      42.421  -5.517  -2.714  1.00  0.00     0.253 C 
BRANCH  16  17
HETATM   17  N   UNL     1      42.910  -5.436  -1.281  1.00  0.00    -0.077 N 
HETATM   18  H   UNL     1      42.801  -6.382  -0.867  1.00  0.00     0.279 HD
HETATM   19  C   UNL     1      44.371  -5.092  -1.165  1.00  0.00     0.269 C 
HETATM   20  C   UNL     1      42.073  -4.496  -0.457  1.00  0.00     0.269 C 
ENDBRANCH  16  17
ENDBRANCH  15  16
ENDBRANCH  12  15
ENDBRANCH  10  11
ENDBRANCH   4  10
BRANCH   2  21
HETATM   21  C   UNL     1      41.472 -11.678   2.259  1.00  0.00     0.044 C 
HETATM   22  C   UNL     1      40.430 -11.950   3.759  1.00  0.00    -0.068 C 
HETATM   23  C   UNL     1      40.654 -13.098   4.683  1.00  0.00     0.044 C 
HETATM   24  C   UNL     1      39.259 -10.683   4.140  1.00  0.00     0.004 C 
HETATM   25  C   UNL     1      39.187  -9.184   3.159  1.00  0.00     0.007 C 
HETATM   26  C   UNL     1      40.352  -8.859   1.819  1.00  0.00    -0.065 C 
HETATM   27  C   UNL     1      40.411  -7.491   1.205  1.00  0.00     0.048 C 
HETATM   28  C   UNL     1      41.583 -10.052   1.390  1.00  0.00    -0.002 C 
ENDBRANCH   2  21
BRANCH   1  29
HETATM   29  C   UNL     1      42.159 -12.948   3.700  1.00  0.00     0.293 C 
HETATM   30  O   UNL     1      42.474 -13.753   4.628  1.00  0.00    -0.259 OA
BRANCH  29  31
HETATM   31  O   UNL     1      42.762 -11.682   4.026  1.00  0.00    -0.318 OA
BRANCH  31  32
HETATM   32  C   UNL     1      43.928 -11.618   4.877  1.00  0.00     0.174 C 
HETATM   33  C   UNL     1      43.584 -10.900   6.166  1.00  0.00     0.034 C 
ENDBRANCH  31  32
ENDBRANCH  29  31
ENDBRANCH   1  29
BRANCH   9  34
HETATM   34  C   UNL     1      39.937 -15.910   1.474  1.00  0.00     0.435 C 
HETATM   35  F   UNL     1      41.069 -16.631   1.729  1.00  0.00    -0.165 F 
HETATM   36  F   UNL     1      39.161 -16.045   2.578  1.00  0.00    -0.165 F 
HETATM   37  F   UNL     1      39.348 -16.554   0.438  1.00  0.00    -0.165 F 
ENDBRANCH   9  34
TORSDOF 10
ENDMDL
MODEL 9
REMARK VINA RESULT:      -7.2      6.167     10.381
REMARK  10 active torsions:
REMARK  status: ('A' for Active; 'I' for Inactive)
REMARK    1  A    between atoms: C_2  and  O_3 
REMARK    2  A    between atoms: O_3  and  C_4 
REMARK    3  A    between atoms: C_4  and  C_5 
REMARK    4  A    between atoms: C_6  and  C_7 
REMARK    5  A    between atoms: C_16  and  C_17 
REMARK    6  A    between atoms: C_17  and  C_18 
REMARK       I    between atoms: C_18  and  N_19 
REMARK    7  A    between atoms: N_19  and  C_20 
REMARK    8  A    between atoms: C_20  and  C_21 
REMARK    9  A    between atoms: C_21  and  N_22 
REMARK   10  A    between atoms: C_31  and  C_32 
ROOT
HETATM    1  C   UNL     1      42.270  -7.595   9.772  1.00  0.00     0.075 C 
HETATM    2  C   UNL     1      42.854  -8.232   8.485  1.00  0.00     0.151 C 
HETATM    3  N   UNL     1      42.100  -8.133   7.272  1.00  0.00    -0.321 N 
HETATM    4  C   UNL     1      41.932  -8.836   6.204  1.00  0.00     0.011 C 
HETATM    5  C   UNL     1      41.724  -6.685   7.098  1.00  0.00     0.170 C 
HETATM    6  S   UNL     1      41.183  -6.339   5.498  1.00  0.00    -0.086 SA
HETATM    7  C   UNL     1      41.234  -8.112   5.072  1.00  0.00     0.135 C 
HETATM    8  N   UNL     1      41.893  -5.825   8.030  1.00  0.00    -0.219 NA
HETATM    9  C   UNL     1      42.129  -6.205   9.383  1.00  0.00     0.157 C 
ENDROOT
BRANCH   4  10
HETATM   10  C   UNL     1      42.549 -10.197   6.056  1.00  0.00     0.156 C 
BRANCH  10  11
HETATM   11  C   UNL     1      41.997 -11.018   4.910  1.00  0.00     0.223 C 
HETATM   12  N   UNL     1      40.860 -11.726   5.205  1.00  0.00    -0.359 N 
HETATM   13  H   UNL     1      40.500 -11.706   6.157  1.00  0.00     0.162 HD
HETATM   14  O   UNL     1      42.507 -11.021   3.793  1.00  0.00    -0.273 OA
BRANCH  12  15
HETATM   15  C   UNL     1      40.264 -12.736   4.327  1.00  0.00     0.150 C 
BRANCH  15  16
HETATM   16  C   UNL     1      40.647 -14.199   4.637  1.00  0.00     0.253 C 
BRANCH  16  17
HETATM   17  N   UNL     1      40.196 -15.160   3.555  1.00  0.00    -0.077 N 
HETATM   18  H   UNL     1      39.331 -15.623   3.898  1.00  0.00     0.279 HD
HETATM   19  C   UNL     1      39.826 -14.480   2.265  1.00  0.00     0.269 C 
HETATM   20  C   UNL     1      41.209 -16.246   3.315  1.00  0.00     0.269 C 
ENDBRANCH  16  17
ENDBRANCH  15  16
ENDBRANCH  12  15
ENDBRANCH  10  11
ENDBRANCH   4  10
BRANCH   2  21
HETATM   21  C   UNL     1      42.587  -9.327   9.356  1.00  0.00     0.044 C 
HETATM   22  C   UNL     1      43.909  -9.020  10.607  1.00  0.00    -0.068 C 
HETATM   23  C   UNL     1      43.608  -8.473  11.961  1.00  0.00     0.044 C 
HETATM   24  C   UNL     1      45.534  -9.568  10.181  1.00  0.00     0.004 C 
HETATM   25  C   UNL     1      45.822 -10.461   8.652  1.00  0.00     0.007 C 
HETATM   26  C   UNL     1      44.476 -10.920   7.542  1.00  0.00    -0.065 C 
HETATM   27  C   UNL     1      44.738 -11.880   6.419  1.00  0.00     0.048 C 
HETATM   28  C   UNL     1      42.812 -10.448   7.905  1.00  0.00    -0.002 C 
ENDBRANCH   2  21
BRANCH   1  29
HETATM   29  C   UNL     1      42.060  -9.068  11.310  1.00  0.00     0.293 C 
HETATM   30  O   UNL     1      42.392 -10.289  11.234  1.00  0.00    -0.259 OA
BRANCH  29  31
HETATM   31  O   UNL     1      41.511  -8.867  12.625  1.00  0.00    -0.318 OA
BRANCH  31  32
HETATM   32  C   UNL     1      40.087  -8.964  12.852  1.00  0.00     0.174 C 
HETATM   33  C   UNL     1      39.377  -7.815  12.165  1.00  0.00     0.034 C 
ENDBRANCH  31  32
ENDBRANCH  29  31
ENDBRANCH   1  29
BRANCH   9  34
HETATM   34  C   UNL     1      41.978  -4.884  10.233  1.00  0.00     0.435 C 
HETATM   35  F   UNL     1      41.349  -3.920   9.497  1.00  0.00    -0.165 F 
HETATM   36  F   UNL     1      41.206  -5.064  11.333  1.00  0.00    -0.165 F 
HETATM   37  F   UNL     1      43.152  -4.320  10.603  1.00  0.00    -0.165 F 
ENDBRANCH   9  34
TORSDOF 10
ENDMDL
MODEL 10
REMARK VINA RESULT:      -7.2      4.057      5.399
REMARK  10 active torsions:
REMARK  status: ('A' for Active; 'I' for Inactive)
REMARK    1  A    between atoms: C_2  and  O_3 
REMARK    2  A    between atoms: O_3  and  C_4 
REMARK    3  A    between atoms: C_4  and  C_5 
REMARK    4  A    between atoms: C_6  and  C_7 
REMARK    5  A    between atoms: C_16  and  C_17 
REMARK    6  A    between atoms: C_17  and  C_18 
REMARK       I    between atoms: C_18  and  N_19 
REMARK    7  A    between atoms: N_19  and  C_20 
REMARK    8  A    between atoms: C_20  and  C_21 
REMARK    9  A    between atoms: C_21  and  N_22 
REMARK   10  A    between atoms: C_31  and  C_32 
ROOT
HETATM    1  C   UNL     1      39.807 -12.289   2.025  1.00  0.00     0.075 C 
HETATM    2  C   UNL     1      40.245 -12.504   3.496  1.00  0.00     0.151 C 
HETATM    3  N   UNL     1      40.556 -11.354   4.290  1.00  0.00    -0.321 N 
HETATM    4  C   UNL     1      41.345 -11.067   5.268  1.00  0.00     0.011 C 
HETATM    5  C   UNL     1      39.407 -10.392   4.149  1.00  0.00     0.170 C 
HETATM    6  S   UNL     1      39.434  -9.160   5.356  1.00  0.00    -0.086 SA
HETATM    7  C   UNL     1      41.059  -9.744   5.947  1.00  0.00     0.135 C 
HETATM    8  N   UNL     1      38.485 -10.561   3.279  1.00  0.00    -0.219 NA
HETATM    9  C   UNL     1      38.630 -11.456   2.179  1.00  0.00     0.157 C 
ENDROOT
BRANCH   4  10
HETATM   10  C   UNL     1      42.342 -12.062   5.790  1.00  0.00     0.156 C 
BRANCH  10  11
HETATM   11  C   UNL     1      43.498 -11.454   6.556  1.00  0.00     0.223 C 
HETATM   12  N   UNL     1      43.279 -11.303   7.903  1.00  0.00    -0.359 N 
HETATM   13  H   UNL     1      42.366 -11.545   8.283  1.00  0.00     0.162 HD
HETATM   14  O   UNL     1      44.561 -11.154   6.021  1.00  0.00    -0.273 OA
BRANCH  12  15
HETATM   15  C   UNL     1      44.163 -10.564   8.806  1.00  0.00     0.150 C 
BRANCH  15  16
HETATM   16  C   UNL     1      43.472  -9.524   9.714  1.00  0.00     0.253 C 
BRANCH  16  17
HETATM   17  N   UNL     1      43.943  -9.604  11.152  1.00  0.00    -0.077 N 
HETATM   18  H   UNL     1      44.969  -9.443  11.147  1.00  0.00     0.279 HD
HETATM   19  C   UNL     1      43.355  -8.536  12.035  1.00  0.00     0.269 C 
HETATM   20  C   UNL     1      43.714 -10.969  11.740  1.00  0.00     0.269 C 
ENDBRANCH  16  17
ENDBRANCH  15  16
ENDBRANCH  12  15
ENDBRANCH  10  11
ENDBRANCH   4  10
BRANCH   2  21
HETATM   21  C   UNL     1      41.285 -13.078   2.708  1.00  0.00     0.044 C 
HETATM   22  C   UNL     1      40.387 -14.576   2.108  1.00  0.00    -0.068 C 
HETATM   23  C   UNL     1      39.894 -14.696   0.707  1.00  0.00     0.044 C 
HETATM   24  C   UNL     1      40.290 -15.936   3.233  1.00  0.00     0.004 C 
HETATM   25  C   UNL     1      41.119 -15.863   4.822  1.00  0.00     0.007 C 
HETATM   26  C   UNL     1      42.155 -14.465   5.300  1.00  0.00    -0.065 C 
HETATM   27  C   UNL     1      43.023 -14.570   6.519  1.00  0.00     0.048 C 
HETATM   28  C   UNL     1      42.342 -13.076   4.224  1.00  0.00    -0.002 C 
ENDBRANCH   2  21
BRANCH   1  29
HETATM   29  C   UNL     1      41.115 -13.333   0.691  1.00  0.00     0.293 C 
HETATM   30  O   UNL     1      42.160 -13.977   1.010  1.00  0.00    -0.259 OA
BRANCH  29  31
HETATM   31  O   UNL     1      40.985 -13.434  -0.739  1.00  0.00    -0.318 OA
BRANCH  31  32
HETATM   32  C   UNL     1      40.981 -12.248  -1.564  1.00  0.00     0.174 C 
HETATM   33  C   UNL     1      40.293 -12.541  -2.882  1.00  0.00     0.034 C 
ENDBRANCH  31  32
ENDBRANCH  29  31
ENDBRANCH   1  29
BRANCH   9  34
HETATM   34  C   UNL     1      37.426 -11.143   1.208  1.00  0.00     0.435 C 
HETATM   35  F   UNL     1      37.750 -11.496  -0.072  1.00  0.00    -0.165 F 
HETATM   36  F   UNL     1      36.317 -11.860   1.515  1.00  0.00    -0.165 F 
HETATM   37  F   UNL     1      37.099  -9.832   1.129  1.00  0.00    -0.165 F 
ENDBRANCH   9  34
TORSDOF 10
ENDMDL
