MODEL 1
REMARK VINA RESULT:      -8.4      0.000      0.000
REMARK  5 active torsions:
REMARK  status: ('A' for Active; 'I' for Inactive)
REMARK    1  A    between atoms: O_2  and  C_3 
REMARK    2  A    between atoms: C_4  and  N_5 
REMARK       I    between atoms: N_5  and  C_6 
REMARK       I    between atoms: C_6  and  N_7 
REMARK    3  A    between atoms: N_7  and  N_8 
REMARK       I    between atoms: N_8  and  C_9 
REMARK    4  A    between atoms: C_9  and  C_10 
REMARK    5  A    between atoms: C_11  and  N_12 
ROOT
HETATM    1  N   UNL     1      41.193 -16.310   2.810  1.00  0.00    -0.262 N 
HETATM    2  C   UNL     1      42.545 -16.581   2.683  1.00  0.00     0.272 C 
HETATM    3  O   UNL     1      43.388 -15.733   2.408  1.00  0.00    -0.266 OA
HETATM    4  H   UNL     1      40.548 -16.997   3.195  1.00  0.00     0.190 HD
ENDROOT
BRANCH   1   5
HETATM    5  N   UNL     1      40.809 -14.964   2.955  1.00  0.00    -0.249 N 
HETATM    6  C   UNL     1      40.194 -14.292   1.920  1.00  0.00     0.339 C 
HETATM    7  N   UNL     1      40.618 -14.691   0.679  1.00  0.00    -0.305 N 
HETATM    8  O   UNL     1      39.370 -13.417   2.167  1.00  0.00    -0.245 OA
HETATM    9  H   UNL     1      41.537 -15.121   0.663  1.00  0.00     0.171 HD
HETATM   10  H   UNL     1      40.526 -14.678   3.888  1.00  0.00     0.192 HD
BRANCH   7  11
HETATM   11  C   UNL     1      40.128 -14.237  -0.561  1.00  0.00     0.069 A 
HETATM   12  C   UNL     1      40.536 -12.971  -1.014  1.00  0.00     0.095 A 
HETATM   13  C   UNL     1      40.130 -12.500  -2.266  1.00  0.00     0.039 A 
HETATM   14  C   UNL     1      39.284 -13.277  -3.058  1.00  0.00     0.003 A 
HETATM   15  C   UNL     1      38.852 -14.522  -2.602  1.00  0.00     0.002 A 
HETATM   16  C   UNL     1      39.275 -15.001  -1.359  1.00  0.00     0.032 A 
BRANCH  12  17
HETATM   17  O   UNL     1      41.350 -12.229  -0.192  1.00  0.00    -0.354 OA
HETATM   18  C   UNL     1      40.831 -10.919   0.046  1.00  0.00     0.210 C 
ENDBRANCH  12  17
ENDBRANCH   7  11
ENDBRANCH   1   5
BRANCH   2  19
HETATM   19  C   UNL     1      42.974 -17.963   3.043  1.00  0.00     0.060 A 
HETATM   20  C   UNL     1      43.628 -18.353   4.226  1.00  0.00     0.054 A 
HETATM   21  C   UNL     1      44.170 -19.651   4.313  1.00  0.00     0.031 A 
HETATM   22  C   UNL     1      44.025 -20.560   3.263  1.00  0.00     0.002 A 
HETATM   23  C   UNL     1      43.338 -20.190   2.112  1.00  0.00     0.001 A 
HETATM   24  C   UNL     1      42.820 -18.901   2.002  1.00  0.00     0.019 A 
BRANCH  20  25
HETATM   25  N   UNL     1      43.718 -17.520   5.376  1.00  0.00    -0.332 N 
HETATM   26  C   UNL     1      44.767 -16.694   5.724  1.00  0.00     0.096 A 
HETATM   27  C   UNL     1      44.467 -16.060   6.910  1.00  0.00     0.019 A 
HETATM   28  C   UNL     1      43.184 -16.489   7.304  1.00  0.00     0.019 A 
HETATM   29  C   UNL     1      42.736 -17.362   6.337  1.00  0.00     0.096 A 
ENDBRANCH  20  25
ENDBRANCH   2  19
TORSDOF 5
ENDMDL
MODEL 2
REMARK VINA RESULT:      -8.1      5.234      8.278
REMARK  5 active torsions:
REMARK  status: ('A' for Active; 'I' for Inactive)
REMARK    1  A    between atoms: O_2  and  C_3 
REMARK    2  A    between atoms: C_4  and  N_5 
REMARK       I    between atoms: N_5  and  C_6 
REMARK       I    between atoms: C_6  and  N_7 
REMARK    3  A    between atoms: N_7  and  N_8 
REMARK       I    between atoms: N_8  and  C_9 
REMARK    4  A    between atoms: C_9  and  C_10 
REMARK    5  A    between atoms: C_11  and  N_12 
ROOT
HETATM    1  N   UNL     1      42.817 -12.753   6.832  1.00  0.00    -0.262 N 
HETATM    2  C   UNL     1      43.140 -11.493   6.357  1.00  0.00     0.272 C 
HETATM    3  O   UNL     1      42.625 -10.984   5.367  1.00  0.00    -0.266 OA
HETATM    4  H   UNL     1      43.143 -13.076   7.741  1.00  0.00     0.190 HD
ENDROOT
BRANCH   1   5
HETATM    5  N   UNL     1      41.627 -13.339   6.365  1.00  0.00    -0.249 N 
HETATM    6  C   UNL     1      41.649 -14.551   5.707  1.00  0.00     0.339 C 
HETATM    7  N   UNL     1      42.779 -14.744   4.954  1.00  0.00    -0.305 N 
HETATM    8  O   UNL     1      40.701 -15.321   5.818  1.00  0.00    -0.245 OA
HETATM    9  H   UNL     1      43.253 -13.892   4.675  1.00  0.00     0.171 HD
HETATM   10  H   UNL     1      40.794 -13.161   6.919  1.00  0.00     0.192 HD
BRANCH   7  11
HETATM   11  C   UNL     1      43.114 -15.903   4.228  1.00  0.00     0.069 A 
HETATM   12  C   UNL     1      43.874 -16.894   4.873  1.00  0.00     0.095 A 
HETATM   13  C   UNL     1      44.180 -18.091   4.219  1.00  0.00     0.039 A 
HETATM   14  C   UNL     1      43.760 -18.290   2.904  1.00  0.00     0.003 A 
HETATM   15  C   UNL     1      43.030 -17.299   2.249  1.00  0.00     0.002 A 
HETATM   16  C   UNL     1      42.707 -16.110   2.909  1.00  0.00     0.032 A 
BRANCH  12  17
HETATM   17  O   UNL     1      44.288 -16.647   6.160  1.00  0.00    -0.354 OA
HETATM   18  C   UNL     1      43.555 -17.410   7.121  1.00  0.00     0.210 C 
ENDBRANCH  12  17
ENDBRANCH   7  11
ENDBRANCH   1   5
BRANCH   2  19
HETATM   19  C   UNL     1      44.070 -10.690   7.202  1.00  0.00     0.060 A 
HETATM   20  C   UNL     1      43.769  -9.485   7.863  1.00  0.00     0.054 A 
HETATM   21  C   UNL     1      44.819  -8.734   8.431  1.00  0.00     0.031 A 
HETATM   22  C   UNL     1      46.136  -9.195   8.384  1.00  0.00     0.002 A 
HETATM   23  C   UNL     1      46.427 -10.408   7.772  1.00  0.00     0.001 A 
HETATM   24  C   UNL     1      45.403 -11.149   7.183  1.00  0.00     0.019 A 
BRANCH  20  25
HETATM   25  N   UNL     1      42.441  -9.009   8.045  1.00  0.00    -0.332 N 
HETATM   26  C   UNL     1      41.607  -9.261   9.116  1.00  0.00     0.096 A 
HETATM   27  C   UNL     1      40.404  -8.621   8.910  1.00  0.00     0.019 A 
HETATM   28  C   UNL     1      40.498  -7.933   7.684  1.00  0.00     0.019 A 
HETATM   29  C   UNL     1      41.761  -8.165   7.186  1.00  0.00     0.096 A 
ENDBRANCH  20  25
ENDBRANCH   2  19
TORSDOF 5
ENDMDL
MODEL 3
REMARK VINA RESULT:      -8.0      5.149      8.086
REMARK  5 active torsions:
REMARK  status: ('A' for Active; 'I' for Inactive)
REMARK    1  A    between atoms: O_2  and  C_3 
REMARK    2  A    between atoms: C_4  and  N_5 
REMARK       I    between atoms: N_5  and  C_6 
REMARK       I    between atoms: C_6  and  N_7 
REMARK    3  A    between atoms: N_7  and  N_8 
REMARK       I    between atoms: N_8  and  C_9 
REMARK    4  A    between atoms: C_9  and  C_10 
REMARK    5  A    between atoms: C_11  and  N_12 
ROOT
HETATM    1  N   UNL     1      43.035 -13.036   7.066  1.00  0.00    -0.262 N 
HETATM    2  C   UNL     1      43.168 -11.745   6.582  1.00  0.00     0.272 C 
HETATM    3  O   UNL     1      42.461 -11.271   5.699  1.00  0.00    -0.266 OA
HETATM    4  H   UNL     1      43.526 -13.341   7.904  1.00  0.00     0.190 HD
ENDROOT
BRANCH   1   5
HETATM    5  N   UNL     1      41.841 -13.720   6.774  1.00  0.00    -0.249 N 
HETATM    6  C   UNL     1      41.870 -14.970   6.192  1.00  0.00     0.339 C 
HETATM    7  N   UNL     1      42.920 -15.146   5.327  1.00  0.00    -0.305 N 
HETATM    8  O   UNL     1      40.993 -15.785   6.455  1.00  0.00    -0.245 OA
HETATM    9  H   UNL     1      43.304 -14.288   4.945  1.00  0.00     0.171 HD
HETATM   10  H   UNL     1      41.064 -13.555   7.408  1.00  0.00     0.192 HD
BRANCH   7  11
HETATM   11  C   UNL     1      43.249 -16.330   4.638  1.00  0.00     0.069 A 
HETATM   12  C   UNL     1      42.783 -16.484   3.322  1.00  0.00     0.095 A 
HETATM   13  C   UNL     1      43.134 -17.610   2.572  1.00  0.00     0.039 A 
HETATM   14  C   UNL     1      43.924 -18.606   3.145  1.00  0.00     0.003 A 
HETATM   15  C   UNL     1      44.366 -18.473   4.461  1.00  0.00     0.002 A 
HETATM   16  C   UNL     1      44.032 -17.338   5.204  1.00  0.00     0.032 A 
BRANCH  12  17
HETATM   17  O   UNL     1      41.988 -15.489   2.804  1.00  0.00    -0.354 OA
HETATM   18  C   UNL     1      40.638 -15.918   2.615  1.00  0.00     0.210 C 
ENDBRANCH  12  17
ENDBRANCH   7  11
ENDBRANCH   1   5
BRANCH   2  19
HETATM   19  C   UNL     1      44.146 -10.874   7.295  1.00  0.00     0.060 A 
HETATM   20  C   UNL     1      43.870  -9.642   7.915  1.00  0.00     0.054 A 
HETATM   21  C   UNL     1      44.944  -8.835   8.344  1.00  0.00     0.031 A 
HETATM   22  C   UNL     1      46.265  -9.265   8.202  1.00  0.00     0.002 A 
HETATM   23  C   UNL     1      46.536 -10.503   7.632  1.00  0.00     0.001 A 
HETATM   24  C   UNL     1      45.485 -11.300   7.180  1.00  0.00     0.019 A 
BRANCH  20  25
HETATM   25  N   UNL     1      42.550  -9.188   8.192  1.00  0.00    -0.332 N 
HETATM   26  C   UNL     1      41.813  -9.423   9.335  1.00  0.00     0.096 A 
HETATM   27  C   UNL     1      40.583  -8.816   9.211  1.00  0.00     0.019 A 
HETATM   28  C   UNL     1      40.559  -8.166   7.961  1.00  0.00     0.019 A 
HETATM   29  C   UNL     1      41.783  -8.387   7.367  1.00  0.00     0.096 A 
ENDBRANCH  20  25
ENDBRANCH   2  19
TORSDOF 5
ENDMDL
MODEL 4
REMARK VINA RESULT:      -8.0      3.712      6.023
REMARK  5 active torsions:
REMARK  status: ('A' for Active; 'I' for Inactive)
REMARK    1  A    between atoms: O_2  and  C_3 
REMARK    2  A    between atoms: C_4  and  N_5 
REMARK       I    between atoms: N_5  and  C_6 
REMARK       I    between atoms: C_6  and  N_7 
REMARK    3  A    between atoms: N_7  and  N_8 
REMARK       I    between atoms: N_8  and  C_9 
REMARK    4  A    between atoms: C_9  and  C_10 
REMARK    5  A    between atoms: C_11  and  N_12 
ROOT
HETATM    1  N   UNL     1      42.974 -14.535   3.771  1.00  0.00    -0.262 N 
HETATM    2  C   UNL     1      42.311 -15.516   3.053  1.00  0.00     0.272 C 
HETATM    3  O   UNL     1      41.464 -15.281   2.198  1.00  0.00    -0.266 OA
HETATM    4  H   UNL     1      43.780 -14.756   4.352  1.00  0.00     0.190 HD
ENDROOT
BRANCH   1   5
HETATM    5  N   UNL     1      42.920 -13.218   3.277  1.00  0.00    -0.249 N 
HETATM    6  C   UNL     1      43.542 -12.188   3.949  1.00  0.00     0.339 C 
HETATM    7  N   UNL     1      43.543 -12.345   5.311  1.00  0.00    -0.305 N 
HETATM    8  O   UNL     1      44.007 -11.243   3.320  1.00  0.00    -0.245 OA
HETATM    9  H   UNL     1      42.812 -12.950   5.669  1.00  0.00     0.171 HD
HETATM   10  H   UNL     1      42.889 -13.121   2.266  1.00  0.00     0.192 HD
BRANCH   7  11
HETATM   11  C   UNL     1      44.158 -11.496   6.253  1.00  0.00     0.069 A 
HETATM   12  C   UNL     1      43.346 -10.599   6.967  1.00  0.00     0.095 A 
HETATM   13  C   UNL     1      43.896  -9.779   7.958  1.00  0.00     0.039 A 
HETATM   14  C   UNL     1      45.265  -9.827   8.216  1.00  0.00     0.003 A 
HETATM   15  C   UNL     1      46.081 -10.695   7.491  1.00  0.00     0.002 A 
HETATM   16  C   UNL     1      45.529 -11.528   6.514  1.00  0.00     0.032 A 
BRANCH  12  17
HETATM   17  O   UNL     1      42.006 -10.568   6.664  1.00  0.00    -0.354 OA
HETATM   18  C   UNL     1      41.466  -9.247   6.730  1.00  0.00     0.210 C 
ENDBRANCH  12  17
ENDBRANCH   7  11
ENDBRANCH   1   5
BRANCH   2  19
HETATM   19  C   UNL     1      42.780 -16.916   3.266  1.00  0.00     0.060 A 
HETATM   20  C   UNL     1      43.335 -17.440   4.447  1.00  0.00     0.054 A 
HETATM   21  C   UNL     1      43.938 -18.714   4.414  1.00  0.00     0.031 A 
HETATM   22  C   UNL     1      43.948 -19.472   3.241  1.00  0.00     0.002 A 
HETATM   23  C   UNL     1      43.358 -18.973   2.086  1.00  0.00     0.001 A 
HETATM   24  C   UNL     1      42.782 -17.704   2.097  1.00  0.00     0.019 A 
BRANCH  20  25
HETATM   25  N   UNL     1      43.265 -16.774   5.702  1.00  0.00    -0.332 N 
HETATM   26  C   UNL     1      44.313 -16.219   6.409  1.00  0.00     0.096 A 
HETATM   27  C   UNL     1      43.829 -15.672   7.577  1.00  0.00     0.019 A 
HETATM   28  C   UNL     1      42.435 -15.875   7.591  1.00  0.00     0.019 A 
HETATM   29  C   UNL     1      42.110 -16.528   6.422  1.00  0.00     0.096 A 
ENDBRANCH  20  25
ENDBRANCH   2  19
TORSDOF 5
ENDMDL
MODEL 5
REMARK VINA RESULT:      -7.9      2.292      3.490
REMARK  5 active torsions:
REMARK  status: ('A' for Active; 'I' for Inactive)
REMARK    1  A    between atoms: O_2  and  C_3 
REMARK    2  A    between atoms: C_4  and  N_5 
REMARK       I    between atoms: N_5  and  C_6 
REMARK       I    between atoms: C_6  and  N_7 
REMARK    3  A    between atoms: N_7  and  N_8 
REMARK       I    between atoms: N_8  and  C_9 
REMARK    4  A    between atoms: C_9  and  C_10 
REMARK    5  A    between atoms: C_11  and  N_12 
ROOT
HETATM    1  N   UNL     1      42.234 -15.253   1.300  1.00  0.00    -0.262 N 
HETATM    2  C   UNL     1      41.581 -16.072   2.205  1.00  0.00     0.272 C 
HETATM    3  O   UNL     1      40.363 -16.097   2.347  1.00  0.00    -0.266 OA
HETATM    4  H   UNL     1      43.224 -15.373   1.095  1.00  0.00     0.190 HD
ENDROOT
BRANCH   1   5
HETATM    5  N   UNL     1      41.465 -14.667   0.278  1.00  0.00    -0.249 N 
HETATM    6  C   UNL     1      41.010 -13.370   0.393  1.00  0.00     0.339 C 
HETATM    7  N   UNL     1      40.720 -13.005   1.683  1.00  0.00    -0.305 N 
HETATM    8  O   UNL     1      40.885 -12.677  -0.611  1.00  0.00    -0.245 OA
HETATM    9  H   UNL     1      40.516 -13.778   2.307  1.00  0.00     0.171 HD
HETATM   10  H   UNL     1      41.674 -14.972  -0.669  1.00  0.00     0.192 HD
BRANCH   7  11
HETATM   11  C   UNL     1      40.303 -11.733   2.120  1.00  0.00     0.069 A 
HETATM   12  C   UNL     1      41.288 -10.776   2.416  1.00  0.00     0.095 A 
HETATM   13  C   UNL     1      40.927  -9.478   2.792  1.00  0.00     0.039 A 
HETATM   14  C   UNL     1      39.579  -9.141   2.910  1.00  0.00     0.003 A 
HETATM   15  C   UNL     1      38.596 -10.094   2.646  1.00  0.00     0.002 A 
HETATM   16  C   UNL     1      38.957 -11.385   2.250  1.00  0.00     0.032 A 
BRANCH  12  17
HETATM   17  O   UNL     1      42.604 -11.158   2.309  1.00  0.00    -0.354 OA
HETATM   18  C   UNL     1      43.224 -11.325   3.586  1.00  0.00     0.210 C 
ENDBRANCH  12  17
ENDBRANCH   7  11
ENDBRANCH   1   5
BRANCH   2  19
HETATM   19  C   UNL     1      42.431 -17.061   2.928  1.00  0.00     0.060 A 
HETATM   20  C   UNL     1      42.940 -16.929   4.233  1.00  0.00     0.054 A 
HETATM   21  C   UNL     1      43.912 -17.844   4.685  1.00  0.00     0.031 A 
HETATM   22  C   UNL     1      44.336 -18.898   3.874  1.00  0.00     0.002 A 
HETATM   23  C   UNL     1      43.799 -19.057   2.602  1.00  0.00     0.001 A 
HETATM   24  C   UNL     1      42.856 -18.144   2.132  1.00  0.00     0.019 A 
BRANCH  20  25
HETATM   25  N   UNL     1      42.476 -15.948   5.153  1.00  0.00    -0.332 N 
HETATM   26  C   UNL     1      41.319 -15.993   5.905  1.00  0.00     0.096 A 
HETATM   27  C   UNL     1      41.231 -14.849   6.667  1.00  0.00     0.019 A 
HETATM   28  C   UNL     1      42.378 -14.075   6.398  1.00  0.00     0.019 A 
HETATM   29  C   UNL     1      43.136 -14.779   5.488  1.00  0.00     0.096 A 
ENDBRANCH  20  25
ENDBRANCH   2  19
TORSDOF 5
ENDMDL
MODEL 6
REMARK VINA RESULT:      -7.9      1.106      2.061
REMARK  5 active torsions:
REMARK  status: ('A' for Active; 'I' for Inactive)
REMARK    1  A    between atoms: O_2  and  C_3 
REMARK    2  A    between atoms: C_4  and  N_5 
REMARK       I    between atoms: N_5  and  C_6 
REMARK       I    between atoms: C_6  and  N_7 
REMARK    3  A    between atoms: N_7  and  N_8 
REMARK       I    between atoms: N_8  and  C_9 
REMARK    4  A    between atoms: C_9  and  C_10 
REMARK    5  A    between atoms: C_11  and  N_12 
ROOT
HETATM    1  N   UNL     1      40.713 -15.665   2.915  1.00  0.00    -0.262 N 
HETATM    2  C   UNL     1      42.089 -15.749   3.044  1.00  0.00     0.272 C 
HETATM    3  O   UNL     1      42.830 -14.774   3.098  1.00  0.00    -0.266 OA
HETATM    4  H   UNL     1      40.118 -16.483   3.035  1.00  0.00     0.190 HD
ENDROOT
BRANCH   1   5
HETATM    5  N   UNL     1      40.108 -14.424   3.187  1.00  0.00    -0.249 N 
HETATM    6  C   UNL     1      39.800 -13.552   2.165  1.00  0.00     0.339 C 
HETATM    7  N   UNL     1      40.685 -13.600   1.119  1.00  0.00    -0.305 N 
HETATM    8  O   UNL     1      38.822 -12.818   2.264  1.00  0.00    -0.245 OA
HETATM    9  H   UNL     1      41.604 -13.957   1.357  1.00  0.00     0.171 HD
HETATM   10  H   UNL     1      39.478 -14.399   3.984  1.00  0.00     0.192 HD
BRANCH   7  11
HETATM   11  C   UNL     1      40.597 -12.880  -0.089  1.00  0.00     0.069 A 
HETATM   12  C   UNL     1      39.958 -13.490  -1.181  1.00  0.00     0.095 A 
HETATM   13  C   UNL     1      39.788 -12.795  -2.383  1.00  0.00     0.039 A 
HETATM   14  C   UNL     1      40.287 -11.499  -2.510  1.00  0.00     0.003 A 
HETATM   15  C   UNL     1      40.948 -10.898  -1.439  1.00  0.00     0.002 A 
HETATM   16  C   UNL     1      41.100 -11.585  -0.232  1.00  0.00     0.032 A 
BRANCH  12  17
HETATM   17  O   UNL     1      39.503 -14.777  -1.020  1.00  0.00    -0.354 OA
HETATM   18  C   UNL     1      38.914 -15.297  -2.213  1.00  0.00     0.210 C 
ENDBRANCH  12  17
ENDBRANCH   7  11
ENDBRANCH   1   5
BRANCH   2  19
HETATM   19  C   UNL     1      42.646 -17.115   3.262  1.00  0.00     0.060 A 
HETATM   20  C   UNL     1      43.285 -17.581   4.426  1.00  0.00     0.054 A 
HETATM   21  C   UNL     1      43.957 -18.820   4.390  1.00  0.00     0.031 A 
HETATM   22  C   UNL     1      43.954 -19.603   3.233  1.00  0.00     0.002 A 
HETATM   23  C   UNL     1      43.283 -19.164   2.098  1.00  0.00     0.001 A 
HETATM   24  C   UNL     1      42.637 -17.929   2.112  1.00  0.00     0.019 A 
BRANCH  20  25
HETATM   25  N   UNL     1      43.236 -16.890   5.669  1.00  0.00    -0.332 N 
HETATM   26  C   UNL     1      42.107 -16.513   6.368  1.00  0.00     0.096 A 
HETATM   27  C   UNL     1      42.487 -15.864   7.522  1.00  0.00     0.019 A 
HETATM   28  C   UNL     1      43.896 -15.853   7.554  1.00  0.00     0.019 A 
HETATM   29  C   UNL     1      44.331 -16.508   6.423  1.00  0.00     0.096 A 
ENDBRANCH  20  25
ENDBRANCH   2  19
TORSDOF 5
ENDMDL
MODEL 7
REMARK VINA RESULT:      -7.7      4.925      8.036
REMARK  5 active torsions:
REMARK  status: ('A' for Active; 'I' for Inactive)
REMARK    1  A    between atoms: O_2  and  C_3 
REMARK    2  A    between atoms: C_4  and  N_5 
REMARK       I    between atoms: N_5  and  C_6 
REMARK       I    between atoms: C_6  and  N_7 
REMARK    3  A    between atoms: N_7  and  N_8 
REMARK       I    between atoms: N_8  and  C_9 
REMARK    4  A    between atoms: C_9  and  C_10 
REMARK    5  A    between atoms: C_11  and  N_12 
ROOT
HETATM    1  N   UNL     1      41.195 -12.888   6.230  1.00  0.00    -0.262 N 
HETATM    2  C   UNL     1      41.825 -13.222   5.043  1.00  0.00     0.272 C 
HETATM    3  O   UNL     1      41.854 -12.494   4.057  1.00  0.00    -0.266 OA
HETATM    4  H   UNL     1      41.327 -13.441   7.075  1.00  0.00     0.190 HD
ENDROOT
BRANCH   1   5
HETATM    5  N   UNL     1      40.859 -11.537   6.431  1.00  0.00    -0.249 N 
HETATM    6  C   UNL     1      41.816 -10.623   6.817  1.00  0.00     0.339 C 
HETATM    7  N   UNL     1      42.783 -11.154   7.631  1.00  0.00    -0.305 N 
HETATM    8  O   UNL     1      41.731  -9.457   6.444  1.00  0.00    -0.245 OA
HETATM    9  H   UNL     1      42.502 -11.989   8.134  1.00  0.00     0.171 HD
HETATM   10  H   UNL     1      40.119 -11.168   5.839  1.00  0.00     0.192 HD
BRANCH   7  11
HETATM   11  C   UNL     1      43.919 -10.487   8.129  1.00  0.00     0.069 A 
HETATM   12  C   UNL     1      43.855  -9.940   9.422  1.00  0.00     0.095 A 
HETATM   13  C   UNL     1      44.976  -9.324   9.988  1.00  0.00     0.039 A 
HETATM   14  C   UNL     1      46.155  -9.219   9.251  1.00  0.00     0.003 A 
HETATM   15  C   UNL     1      46.216  -9.735   7.957  1.00  0.00     0.002 A 
HETATM   16  C   UNL     1      45.103 -10.368   7.399  1.00  0.00     0.032 A 
BRANCH  12  17
HETATM   17  O   UNL     1      42.666 -10.044  10.103  1.00  0.00    -0.354 OA
HETATM   18  C   UNL     1      41.970  -8.798  10.173  1.00  0.00     0.210 C 
ENDBRANCH  12  17
ENDBRANCH   7  11
ENDBRANCH   1   5
BRANCH   2  19
HETATM   19  C   UNL     1      42.616 -14.487   5.053  1.00  0.00     0.060 A 
HETATM   20  C   UNL     1      42.448 -15.583   4.188  1.00  0.00     0.054 A 
HETATM   21  C   UNL     1      43.118 -16.790   4.474  1.00  0.00     0.031 A 
HETATM   22  C   UNL     1      43.975 -16.891   5.571  1.00  0.00     0.002 A 
HETATM   23  C   UNL     1      44.178 -15.793   6.399  1.00  0.00     0.001 A 
HETATM   24  C   UNL     1      43.501 -14.602   6.143  1.00  0.00     0.019 A 
BRANCH  20  25
HETATM   25  N   UNL     1      41.679 -15.521   2.992  1.00  0.00    -0.332 N 
HETATM   26  C   UNL     1      42.113 -15.126   1.743  1.00  0.00     0.096 A 
HETATM   27  C   UNL     1      41.063 -15.203   0.855  1.00  0.00     0.019 A 
HETATM   28  C   UNL     1      39.944 -15.679   1.568  1.00  0.00     0.019 A 
HETATM   29  C   UNL     1      40.352 -15.891   2.866  1.00  0.00     0.096 A 
ENDBRANCH  20  25
ENDBRANCH   2  19
TORSDOF 5
ENDMDL
MODEL 8
REMARK VINA RESULT:      -7.4      6.387      9.066
REMARK  5 active torsions:
REMARK  status: ('A' for Active; 'I' for Inactive)
REMARK    1  A    between atoms: O_2  and  C_3 
REMARK    2  A    between atoms: C_4  and  N_5 
REMARK       I    between atoms: N_5  and  C_6 
REMARK       I    between atoms: C_6  and  N_7 
REMARK    3  A    between atoms: N_7  and  N_8 
REMARK       I    between atoms: N_8  and  C_9 
REMARK    4  A    between atoms: C_9  and  C_10 
REMARK    5  A    between atoms: C_11  and  N_12 
ROOT
HETATM    1  N   UNL     1      41.252 -10.181   8.043  1.00  0.00    -0.262 N 
HETATM    2  C   UNL     1      41.652  -8.894   8.362  1.00  0.00     0.272 C 
HETATM    3  O   UNL     1      41.418  -7.913   7.664  1.00  0.00    -0.266 OA
HETATM    4  H   UNL     1      41.321 -10.940   8.717  1.00  0.00     0.190 HD
ENDROOT
BRANCH   1   5
HETATM    5  N   UNL     1      40.261 -10.329   7.055  1.00  0.00    -0.249 N 
HETATM    6  C   UNL     1      40.013 -11.559   6.485  1.00  0.00     0.339 C 
HETATM    7  N   UNL     1      41.130 -12.345   6.371  1.00  0.00    -0.305 N 
HETATM    8  O   UNL     1      38.877 -11.843   6.119  1.00  0.00    -0.245 OA
HETATM    9  H   UNL     1      42.008 -11.836   6.360  1.00  0.00     0.171 HD
HETATM   10  H   UNL     1      39.453  -9.717   7.138  1.00  0.00     0.192 HD
BRANCH   7  11
HETATM   11  C   UNL     1      41.180 -13.669   5.893  1.00  0.00     0.069 A 
HETATM   12  C   UNL     1      42.019 -13.950   4.802  1.00  0.00     0.095 A 
HETATM   13  C   UNL     1      42.153 -15.260   4.329  1.00  0.00     0.039 A 
HETATM   14  C   UNL     1      41.421 -16.289   4.921  1.00  0.00     0.003 A 
HETATM   15  C   UNL     1      40.565 -16.011   5.986  1.00  0.00     0.002 A 
HETATM   16  C   UNL     1      40.446 -14.707   6.472  1.00  0.00     0.032 A 
BRANCH  12  17
HETATM   17  O   UNL     1      42.703 -12.903   4.234  1.00  0.00    -0.354 OA
HETATM   18  C   UNL     1      43.150 -13.202   2.910  1.00  0.00     0.210 C 
ENDBRANCH  12  17
ENDBRANCH   7  11
ENDBRANCH   1   5
BRANCH   2  19
HETATM   19  C   UNL     1      42.280  -8.715   9.703  1.00  0.00     0.060 A 
HETATM   20  C   UNL     1      43.575  -9.116  10.080  1.00  0.00     0.054 A 
HETATM   21  C   UNL     1      43.933  -9.082  11.443  1.00  0.00     0.031 A 
HETATM   22  C   UNL     1      43.038  -8.614  12.407  1.00  0.00     0.002 A 
HETATM   23  C   UNL     1      41.775  -8.173  12.029  1.00  0.00     0.001 A 
HETATM   24  C   UNL     1      41.398  -8.226  10.688  1.00  0.00     0.019 A 
BRANCH  20  25
HETATM   25  N   UNL     1      44.574  -9.500   9.142  1.00  0.00    -0.332 N 
HETATM   26  C   UNL     1      45.557  -8.698   8.600  1.00  0.00     0.096 A 
HETATM   27  C   UNL     1      46.321  -9.447   7.731  1.00  0.00     0.019 A 
HETATM   28  C   UNL     1      45.811 -10.761   7.748  1.00  0.00     0.019 A 
HETATM   29  C   UNL     1      44.759 -10.774   8.637  1.00  0.00     0.096 A 
ENDBRANCH  20  25
ENDBRANCH   2  19
TORSDOF 5
ENDMDL
MODEL 9
REMARK VINA RESULT:      -7.3      2.582      4.628
REMARK  5 active torsions:
REMARK  status: ('A' for Active; 'I' for Inactive)
REMARK    1  A    between atoms: O_2  and  C_3 
REMARK    2  A    between atoms: C_4  and  N_5 
REMARK       I    between atoms: N_5  and  C_6 
REMARK       I    between atoms: C_6  and  N_7 
REMARK    3  A    between atoms: N_7  and  N_8 
REMARK       I    between atoms: N_8  and  C_9 
REMARK    4  A    between atoms: C_9  and  C_10 
REMARK    5  A    between atoms: C_11  and  N_12 
ROOT
HETATM    1  N   UNL     1      40.632 -16.037   3.513  1.00  0.00    -0.262 N 
HETATM    2  C   UNL     1      41.967 -15.999   3.146  1.00  0.00     0.272 C 
HETATM    3  O   UNL     1      42.359 -15.698   2.024  1.00  0.00    -0.266 OA
HETATM    4  H   UNL     1      40.352 -16.133   4.486  1.00  0.00     0.190 HD
ENDROOT
BRANCH   1   5
HETATM    5  N   UNL     1      39.708 -15.390   2.671  1.00  0.00    -0.249 N 
HETATM    6  C   UNL     1      39.679 -14.015   2.583  1.00  0.00     0.339 C 
HETATM    7  N   UNL     1      40.004 -13.384   3.756  1.00  0.00    -0.305 N 
HETATM    8  O   UNL     1      39.361 -13.479   1.526  1.00  0.00    -0.245 OA
HETATM    9  H   UNL     1      39.864 -13.942   4.591  1.00  0.00     0.171 HD
HETATM   10  H   UNL     1      39.455 -15.886   1.821  1.00  0.00     0.192 HD
BRANCH   7  11
HETATM   11  C   UNL     1      40.124 -11.995   3.956  1.00  0.00     0.069 A 
HETATM   12  C   UNL     1      41.356 -11.385   3.662  1.00  0.00     0.095 A 
HETATM   13  C   UNL     1      41.509 -10.001   3.782  1.00  0.00     0.039 A 
HETATM   14  C   UNL     1      40.442  -9.222   4.231  1.00  0.00     0.003 A 
HETATM   15  C   UNL     1      39.227  -9.824   4.552  1.00  0.00     0.002 A 
HETATM   16  C   UNL     1      39.067 -11.205   4.412  1.00  0.00     0.032 A 
BRANCH  12  17
HETATM   17  O   UNL     1      42.387 -12.193   3.246  1.00  0.00    -0.354 OA
HETATM   18  C   UNL     1      43.666 -11.660   3.591  1.00  0.00     0.210 C 
ENDBRANCH  12  17
ENDBRANCH   7  11
ENDBRANCH   1   5
BRANCH   2  19
HETATM   19  C   UNL     1      42.955 -16.211   4.243  1.00  0.00     0.060 A 
HETATM   20  C   UNL     1      43.578 -17.426   4.583  1.00  0.00     0.054 A 
HETATM   21  C   UNL     1      44.309 -17.508   5.786  1.00  0.00     0.031 A 
HETATM   22  C   UNL     1      44.458 -16.391   6.611  1.00  0.00     0.002 A 
HETATM   23  C   UNL     1      43.882 -15.179   6.252  1.00  0.00     0.001 A 
HETATM   24  C   UNL     1      43.134 -15.090   5.078  1.00  0.00     0.019 A 
BRANCH  20  25
HETATM   25  N   UNL     1      43.562 -18.572   3.739  1.00  0.00    -0.332 N 
HETATM   26  C   UNL     1      43.190 -18.621   2.411  1.00  0.00     0.096 A 
HETATM   27  C   UNL     1      43.311 -19.916   1.957  1.00  0.00     0.019 A 
HETATM   28  C   UNL     1      43.792 -20.694   3.029  1.00  0.00     0.019 A 
HETATM   29  C   UNL     1      43.961 -19.845   4.100  1.00  0.00     0.096 A 
ENDBRANCH  20  25
ENDBRANCH   2  19
TORSDOF 5
ENDMDL
MODEL 10
REMARK VINA RESULT:      -7.2     13.973     16.939
REMARK  5 active torsions:
REMARK  status: ('A' for Active; 'I' for Inactive)
REMARK    1  A    between atoms: O_2  and  C_3 
REMARK    2  A    between atoms: C_4  and  N_5 
REMARK       I    between atoms: N_5  and  C_6 
REMARK       I    between atoms: C_6  and  N_7 
REMARK    3  A    between atoms: N_7  and  N_8 
REMARK       I    between atoms: N_8  and  C_9 
REMARK    4  A    between atoms: C_9  and  C_10 
REMARK    5  A    between atoms: C_11  and  N_12 
ROOT
HETATM    1  N   UNL     1      46.849 -30.098   1.505  1.00  0.00    -0.262 N 
HETATM    2  C   UNL     1      46.395 -28.831   1.181  1.00  0.00     0.272 C 
HETATM    3  O   UNL     1      46.616 -27.833   1.859  1.00  0.00    -0.266 OA
HETATM    4  H   UNL     1      46.786 -30.869   0.843  1.00  0.00     0.190 HD
ENDROOT
BRANCH   1   5
HETATM    5  N   UNL     1      47.874 -30.197   2.463  1.00  0.00    -0.249 N 
HETATM    6  C   UNL     1      49.154 -30.551   2.092  1.00  0.00     0.339 C 
HETATM    7  N   UNL     1      49.195 -31.428   1.039  1.00  0.00    -0.305 N 
HETATM    8  O   UNL     1      50.114 -30.098   2.707  1.00  0.00    -0.245 OA
HETATM    9  H   UNL     1      48.352 -31.976   0.910  1.00  0.00     0.171 HD
HETATM   10  H   UNL     1      47.811 -29.560   3.253  1.00  0.00     0.192 HD
BRANCH   7  11
HETATM   11  C   UNL     1      50.352 -31.915   0.398  1.00  0.00     0.069 A 
HETATM   12  C   UNL     1      50.965 -31.103  -0.571  1.00  0.00     0.095 A 
HETATM   13  C   UNL     1      52.150 -31.511  -1.192  1.00  0.00     0.039 A 
HETATM   14  C   UNL     1      52.709 -32.749  -0.873  1.00  0.00     0.003 A 
HETATM   15  C   UNL     1      52.089 -33.571   0.067  1.00  0.00     0.002 A 
HETATM   16  C   UNL     1      50.916 -33.155   0.702  1.00  0.00     0.032 A 
BRANCH  12  17
HETATM   17  O   UNL     1      50.368 -29.902  -0.872  1.00  0.00    -0.354 OA
HETATM   18  C   UNL     1      49.622 -29.958  -2.090  1.00  0.00     0.210 C 
ENDBRANCH  12  17
ENDBRANCH   7  11
ENDBRANCH   1   5
BRANCH   2  19
HETATM   19  C   UNL     1      45.721 -28.692  -0.143  1.00  0.00     0.060 A 
HETATM   20  C   UNL     1      44.493 -29.266  -0.519  1.00  0.00     0.054 A 
HETATM   21  C   UNL     1      44.107 -29.230  -1.874  1.00  0.00     0.031 A 
HETATM   22  C   UNL     1      44.903 -28.595  -2.829  1.00  0.00     0.002 A 
HETATM   23  C   UNL     1      46.094 -27.987  -2.450  1.00  0.00     0.001 A 
HETATM   24  C   UNL     1      46.501 -28.038  -1.117  1.00  0.00     0.019 A 
BRANCH  20  25
HETATM   25  N   UNL     1      43.581 -29.833   0.415  1.00  0.00    -0.332 N 
HETATM   26  C   UNL     1      43.473 -31.162   0.770  1.00  0.00     0.096 A 
HETATM   27  C   UNL     1      42.466 -31.299   1.700  1.00  0.00     0.019 A 
HETATM   28  C   UNL     1      41.943 -30.014   1.947  1.00  0.00     0.019 A 
HETATM   29  C   UNL     1      42.658 -29.131   1.168  1.00  0.00     0.096 A 
ENDBRANCH  20  25
ENDBRANCH   2  19
TORSDOF 5
ENDMDL
