MODEL 1
REMARK VINA RESULT:      -9.1      0.000      0.000
REMARK  5 active torsions:
REMARK  status: ('A' for Active; 'I' for Inactive)
REMARK    1  A    between atoms: C_4  and  C_5 
REMARK    2  A    between atoms: C_9  and  C_10 
REMARK       I    between atoms: C_10  and  N_11 
REMARK    3  A    between atoms: N_11  and  C_12 
REMARK    4  A    between atoms: C_14  and  C_15 
REMARK       I    between atoms: C_15  and  N_16 
REMARK    5  A    between atoms: N_16  and  C_17 
ROOT
HETATM    1  C   UNL     1      43.739 -13.870   6.827  1.00  0.00     0.276 C 
HETATM    2  N   UNL     1      44.302 -12.674   6.413  1.00  0.00    -0.322 N 
HETATM    3  O   UNL     1      43.409 -14.158   7.972  1.00  0.00    -0.266 OA
HETATM    4  H   UNL     1      44.435 -12.611   5.405  1.00  0.00     0.169 HD
ENDROOT
BRANCH   2   5
HETATM    5  C   UNL     1      44.612 -11.558   7.211  1.00  0.00     0.036 A 
HETATM    6  C   UNL     1      43.696 -10.973   8.088  1.00  0.00     0.046 A 
HETATM    7  C   UNL     1      44.029  -9.822   8.815  1.00  0.00     0.034 A 
HETATM    8  C   UNL     1      45.315  -9.288   8.710  1.00  0.00     0.017 A 
HETATM    9  C   UNL     1      46.249  -9.886   7.863  1.00  0.00     0.003 A 
HETATM   10  C   UNL     1      45.897 -11.013   7.113  1.00  0.00     0.029 A 
BRANCH   7  11
HETATM   11  C   UNL     1      43.040  -9.168   9.720  1.00  0.00     0.252 C 
HETATM   12  N   UNL     1      43.445  -8.996  11.032  1.00  0.00    -0.352 N 
HETATM   13  H   UNL     1      44.319  -9.405  11.338  1.00  0.00     0.163 HD
HETATM   14  O   UNL     1      41.940  -8.840   9.288  1.00  0.00    -0.268 OA
BRANCH  12  15
HETATM   15  C   UNL     1      42.649  -8.343  12.023  1.00  0.00     0.084 A 
HETATM   16  C   UNL     1      42.394  -9.004  13.349  1.00  0.00     0.027 A 
HETATM   17  C   UNL     1      43.302  -7.813  13.273  1.00  0.00     0.027 A 
ENDBRANCH  12  15
ENDBRANCH   7  11
ENDBRANCH   2   5
BRANCH   1  18
HETATM   18  C   UNL     1      43.522 -14.812   5.718  1.00  0.00     0.147 A 
HETATM   19  N   UNL     1      42.957 -14.452   4.548  1.00  0.00    -0.169 NA
HETATM   20  N   UNL     1      42.941 -15.599   3.837  1.00  0.00    -0.277 N 
HETATM   21  C   UNL     1      43.469 -16.682   4.493  1.00  0.00     0.063 A 
HETATM   22  H   UNL     1      42.536 -15.581   2.908  1.00  0.00     0.189 HD
HETATM   23  C   UNL     1      43.849 -16.189   5.723  1.00  0.00     0.071 A 
BRANCH  21  24
HETATM   24  C   UNL     1      43.543 -18.032   3.941  1.00  0.00    -0.008 A 
HETATM   25  C   UNL     1      43.201 -18.299   2.609  1.00  0.00     0.014 A 
HETATM   26  C   UNL     1      43.301 -19.595   2.097  1.00  0.00     0.001 A 
HETATM   27  C   UNL     1      43.744 -20.638   2.908  1.00  0.00     0.000 A 
HETATM   28  C   UNL     1      44.088 -20.387   4.234  1.00  0.00     0.001 A 
HETATM   29  C   UNL     1      43.990 -19.091   4.745  1.00  0.00     0.014 A 
ENDBRANCH  21  24
ENDBRANCH   1  18
TORSDOF 5
ENDMDL
MODEL 2
REMARK VINA RESULT:      -8.8      1.900     10.379
REMARK  5 active torsions:
REMARK  status: ('A' for Active; 'I' for Inactive)
REMARK    1  A    between atoms: C_4  and  C_5 
REMARK    2  A    between atoms: C_9  and  C_10 
REMARK       I    between atoms: C_10  and  N_11 
REMARK    3  A    between atoms: N_11  and  C_12 
REMARK    4  A    between atoms: C_14  and  C_15 
REMARK       I    between atoms: C_15  and  N_16 
REMARK    5  A    between atoms: N_16  and  C_17 
ROOT
HETATM    1  C   UNL     1      43.839 -11.890   6.731  1.00  0.00     0.276 C 
HETATM    2  N   UNL     1      43.113 -13.024   7.054  1.00  0.00    -0.322 N 
HETATM    3  O   UNL     1      44.211 -11.562   5.610  1.00  0.00    -0.266 OA
HETATM    4  H   UNL     1      42.844 -13.072   8.035  1.00  0.00     0.169 HD
ENDROOT
BRANCH   2   5
HETATM    5  C   UNL     1      42.660 -14.024   6.175  1.00  0.00     0.036 A 
HETATM    6  C   UNL     1      43.426 -15.142   5.836  1.00  0.00     0.046 A 
HETATM    7  C   UNL     1      42.959 -16.081   4.907  1.00  0.00     0.034 A 
HETATM    8  C   UNL     1      41.684 -15.931   4.355  1.00  0.00     0.017 A 
HETATM    9  C   UNL     1      40.897 -14.835   4.712  1.00  0.00     0.003 A 
HETATM   10  C   UNL     1      41.385 -13.884   5.615  1.00  0.00     0.029 A 
BRANCH   7  11
HETATM   11  C   UNL     1      43.791 -17.253   4.510  1.00  0.00     0.252 C 
HETATM   12  N   UNL     1      43.336 -17.975   3.420  1.00  0.00    -0.352 N 
HETATM   13  H   UNL     1      42.432 -17.752   3.022  1.00  0.00     0.163 HD
HETATM   14  O   UNL     1      44.797 -17.534   5.153  1.00  0.00    -0.268 OA
BRANCH  12  15
HETATM   15  C   UNL     1      44.032 -19.095   2.870  1.00  0.00     0.084 A 
HETATM   16  C   UNL     1      43.720 -20.489   3.340  1.00  0.00     0.027 A 
HETATM   17  C   UNL     1      43.302 -20.054   1.967  1.00  0.00     0.027 A 
ENDBRANCH  12  15
ENDBRANCH   7  11
ENDBRANCH   2   5
BRANCH   1  18
HETATM   18  C   UNL     1      44.119 -11.041   7.900  1.00  0.00     0.147 A 
HETATM   19  N   UNL     1      45.309 -11.032   8.533  1.00  0.00    -0.169 NA
HETATM   20  N   UNL     1      45.132 -10.140   9.530  1.00  0.00    -0.277 N 
HETATM   21  C   UNL     1      43.883  -9.572   9.569  1.00  0.00     0.063 A 
HETATM   22  H   UNL     1      45.902  -9.973  10.167  1.00  0.00     0.189 HD
HETATM   23  C   UNL     1      43.208 -10.152   8.517  1.00  0.00     0.071 A 
BRANCH  21  24
HETATM   24  C   UNL     1      43.444  -8.599  10.565  1.00  0.00    -0.008 A 
HETATM   25  C   UNL     1      42.889  -7.368  10.191  1.00  0.00     0.014 A 
HETATM   26  C   UNL     1      42.455  -6.461  11.161  1.00  0.00     0.001 A 
HETATM   27  C   UNL     1      42.572  -6.772  12.515  1.00  0.00     0.000 A 
HETATM   28  C   UNL     1      43.121  -7.991  12.901  1.00  0.00     0.001 A 
HETATM   29  C   UNL     1      43.553  -8.899  11.931  1.00  0.00     0.014 A 
ENDBRANCH  21  24
ENDBRANCH   1  18
TORSDOF 5
ENDMDL
MODEL 3
REMARK VINA RESULT:      -8.7      1.603      2.160
REMARK  5 active torsions:
REMARK  status: ('A' for Active; 'I' for Inactive)
REMARK    1  A    between atoms: C_4  and  C_5 
REMARK    2  A    between atoms: C_9  and  C_10 
REMARK       I    between atoms: C_10  and  N_11 
REMARK    3  A    between atoms: N_11  and  C_12 
REMARK    4  A    between atoms: C_14  and  C_15 
REMARK       I    between atoms: C_15  and  N_16 
REMARK    5  A    between atoms: N_16  and  C_17 
ROOT
HETATM    1  C   UNL     1      42.727 -11.828   6.335  1.00  0.00     0.276 C 
HETATM    2  N   UNL     1      43.728 -12.025   7.271  1.00  0.00    -0.322 N 
HETATM    3  O   UNL     1      42.101 -10.790   6.149  1.00  0.00    -0.266 OA
HETATM    4  H   UNL     1      44.169 -12.941   7.212  1.00  0.00     0.169 HD
ENDROOT
BRANCH   2   5
HETATM    5  C   UNL     1      44.225 -11.089   8.195  1.00  0.00     0.036 A 
HETATM    6  C   UNL     1      43.609 -10.831   9.422  1.00  0.00     0.046 A 
HETATM    7  C   UNL     1      44.105  -9.844  10.284  1.00  0.00     0.034 A 
HETATM    8  C   UNL     1      45.267  -9.149   9.941  1.00  0.00     0.017 A 
HETATM    9  C   UNL     1      45.910  -9.422   8.732  1.00  0.00     0.003 A 
HETATM   10  C   UNL     1      45.388 -10.385   7.862  1.00  0.00     0.029 A 
BRANCH   7  11
HETATM   11  C   UNL     1      43.426  -9.535  11.575  1.00  0.00     0.252 C 
HETATM   12  N   UNL     1      43.174  -8.196  11.819  1.00  0.00    -0.352 N 
HETATM   13  H   UNL     1      43.546  -7.499  11.186  1.00  0.00     0.163 HD
HETATM   14  O   UNL     1      43.146 -10.443  12.351  1.00  0.00    -0.268 OA
BRANCH  12  15
HETATM   15  C   UNL     1      42.486  -7.722  12.978  1.00  0.00     0.084 A 
HETATM   16  C   UNL     1      43.258  -7.191  14.155  1.00  0.00     0.027 A 
HETATM   17  C   UNL     1      42.478  -6.248  13.288  1.00  0.00     0.027 A 
ENDBRANCH  12  15
ENDBRANCH   7  11
ENDBRANCH   2   5
BRANCH   1  18
HETATM   18  C   UNL     1      42.479 -13.019   5.506  1.00  0.00     0.147 A 
HETATM   19  N   UNL     1      41.366 -13.176   4.762  1.00  0.00    -0.169 NA
HETATM   20  N   UNL     1      41.539 -14.384   4.184  1.00  0.00    -0.277 N 
HETATM   21  C   UNL     1      42.711 -15.012   4.520  1.00  0.00     0.063 A 
HETATM   22  H   UNL     1      40.806 -14.735   3.578  1.00  0.00     0.189 HD
HETATM   23  C   UNL     1      43.335 -14.139   5.386  1.00  0.00     0.071 A 
BRANCH  21  24
HETATM   24  C   UNL     1      43.113 -16.332   4.042  1.00  0.00    -0.008 A 
HETATM   25  C   UNL     1      43.933 -17.170   4.809  1.00  0.00     0.014 A 
HETATM   26  C   UNL     1      44.287 -18.439   4.340  1.00  0.00     0.001 A 
HETATM   27  C   UNL     1      43.827 -18.883   3.102  1.00  0.00     0.000 A 
HETATM   28  C   UNL     1      43.011 -18.060   2.330  1.00  0.00     0.001 A 
HETATM   29  C   UNL     1      42.656 -16.793   2.799  1.00  0.00     0.014 A 
ENDBRANCH  21  24
ENDBRANCH   1  18
TORSDOF 5
ENDMDL
MODEL 4
REMARK VINA RESULT:      -8.6      2.422      3.028
REMARK  5 active torsions:
REMARK  status: ('A' for Active; 'I' for Inactive)
REMARK    1  A    between atoms: C_4  and  C_5 
REMARK    2  A    between atoms: C_9  and  C_10 
REMARK       I    between atoms: C_10  and  N_11 
REMARK    3  A    between atoms: N_11  and  C_12 
REMARK    4  A    between atoms: C_14  and  C_15 
REMARK       I    between atoms: C_15  and  N_16 
REMARK    5  A    between atoms: N_16  and  C_17 
ROOT
HETATM    1  C   UNL     1      42.745 -13.186   3.348  1.00  0.00     0.276 C 
HETATM    2  N   UNL     1      42.195 -13.137   4.617  1.00  0.00    -0.322 N 
HETATM    3  O   UNL     1      43.050 -12.223   2.652  1.00  0.00    -0.266 OA
HETATM    4  H   UNL     1      42.083 -14.052   5.051  1.00  0.00     0.169 HD
ENDROOT
BRANCH   2   5
HETATM    5  C   UNL     1      41.872 -11.988   5.362  1.00  0.00     0.036 A 
HETATM    6  C   UNL     1      42.703 -11.470   6.358  1.00  0.00     0.046 A 
HETATM    7  C   UNL     1      42.312 -10.360   7.118  1.00  0.00     0.034 A 
HETATM    8  C   UNL     1      41.100  -9.724   6.836  1.00  0.00     0.017 A 
HETATM    9  C   UNL     1      40.278 -10.213   5.820  1.00  0.00     0.003 A 
HETATM   10  C   UNL     1      40.661 -11.343   5.089  1.00  0.00     0.029 A 
BRANCH   7  11
HETATM   11  C   UNL     1      43.176  -9.830   8.212  1.00  0.00     0.252 C 
HETATM   12  N   UNL     1      43.191 -10.570   9.381  1.00  0.00    -0.352 N 
HETATM   13  H   UNL     1      42.552 -11.350   9.481  1.00  0.00     0.163 HD
HETATM   14  O   UNL     1      43.801  -8.788   8.046  1.00  0.00    -0.268 OA
BRANCH  12  15
HETATM   15  C   UNL     1      44.000 -10.241  10.512  1.00  0.00     0.084 A 
HETATM   16  C   UNL     1      43.534  -9.213  11.506  1.00  0.00     0.027 A 
HETATM   17  C   UNL     1      43.560 -10.663  11.890  1.00  0.00     0.027 A 
ENDBRANCH  12  15
ENDBRANCH   7  11
ENDBRANCH   2   5
BRANCH   1  18
HETATM   18  C   UNL     1      42.981 -14.561   2.881  1.00  0.00     0.147 A 
HETATM   19  N   UNL     1      43.072 -14.888   1.577  1.00  0.00    -0.169 NA
HETATM   20  N   UNL     1      43.277 -16.223   1.598  1.00  0.00    -0.277 N 
HETATM   21  C   UNL     1      43.323 -16.771   2.854  1.00  0.00     0.063 A 
HETATM   22  H   UNL     1      43.360 -16.709   0.712  1.00  0.00     0.189 HD
HETATM   23  C   UNL     1      43.127 -15.703   3.704  1.00  0.00     0.071 A 
BRANCH  21  24
HETATM   24  C   UNL     1      43.511 -18.191   3.135  1.00  0.00    -0.008 A 
HETATM   25  C   UNL     1      43.283 -19.168   2.156  1.00  0.00     0.014 A 
HETATM   26  C   UNL     1      43.492 -20.520   2.441  1.00  0.00     0.001 A 
HETATM   27  C   UNL     1      43.930 -20.912   3.704  1.00  0.00     0.000 A 
HETATM   28  C   UNL     1      44.161 -19.952   4.686  1.00  0.00     0.001 A 
HETATM   29  C   UNL     1      43.955 -18.600   4.401  1.00  0.00     0.014 A 
ENDBRANCH  21  24
ENDBRANCH   1  18
TORSDOF 5
ENDMDL
MODEL 5
REMARK VINA RESULT:      -8.5      6.783      9.053
REMARK  5 active torsions:
REMARK  status: ('A' for Active; 'I' for Inactive)
REMARK    1  A    between atoms: C_4  and  C_5 
REMARK    2  A    between atoms: C_9  and  C_10 
REMARK       I    between atoms: C_10  and  N_11 
REMARK    3  A    between atoms: N_11  and  C_12 
REMARK    4  A    between atoms: C_14  and  C_15 
REMARK       I    between atoms: C_15  and  N_16 
REMARK    5  A    between atoms: N_16  and  C_17 
ROOT
HETATM    1  C   UNL     1      41.477 -13.770   1.425  1.00  0.00     0.276 C 
HETATM    2  N   UNL     1      41.134 -14.216   0.159  1.00  0.00    -0.322 N 
HETATM    3  O   UNL     1      41.212 -12.673   1.904  1.00  0.00    -0.266 OA
HETATM    4  H   UNL     1      41.387 -15.187  -0.015  1.00  0.00     0.169 HD
ENDROOT
BRANCH   2   5
HETATM    5  C   UNL     1      40.425 -13.509  -0.829  1.00  0.00     0.036 A 
HETATM    6  C   UNL     1      40.780 -12.224  -1.246  1.00  0.00     0.046 A 
HETATM    7  C   UNL     1      40.007 -11.534  -2.189  1.00  0.00     0.034 A 
HETATM    8  C   UNL     1      38.900 -12.161  -2.766  1.00  0.00     0.017 A 
HETATM    9  C   UNL     1      38.557 -13.458  -2.381  1.00  0.00     0.003 A 
HETATM   10  C   UNL     1      39.314 -14.127  -1.414  1.00  0.00     0.029 A 
BRANCH   7  11
HETATM   11  C   UNL     1      40.357 -10.145  -2.605  1.00  0.00     0.252 C 
HETATM   12  N   UNL     1      41.277  -9.490  -1.806  1.00  0.00    -0.352 N 
HETATM   13  H   UNL     1      41.580  -9.923  -0.942  1.00  0.00     0.163 HD
HETATM   14  O   UNL     1      39.820  -9.649  -3.590  1.00  0.00    -0.268 OA
BRANCH  12  15
HETATM   15  C   UNL     1      41.767  -8.176  -2.082  1.00  0.00     0.084 A 
HETATM   16  C   UNL     1      42.106  -7.240  -0.956  1.00  0.00     0.027 A 
HETATM   17  C   UNL     1      43.204  -7.839  -1.783  1.00  0.00     0.027 A 
ENDBRANCH  12  15
ENDBRANCH   7  11
ENDBRANCH   2   5
BRANCH   1  18
HETATM   18  C   UNL     1      42.194 -14.786   2.212  1.00  0.00     0.147 A 
HETATM   19  N   UNL     1      42.984 -14.478   3.260  1.00  0.00    -0.169 NA
HETATM   20  N   UNL     1      43.441 -15.679   3.675  1.00  0.00    -0.277 N 
HETATM   21  C   UNL     1      42.985 -16.745   2.943  1.00  0.00     0.063 A 
HETATM   22  H   UNL     1      44.084 -15.702   4.459  1.00  0.00     0.189 HD
HETATM   23  C   UNL     1      42.174 -16.182   1.981  1.00  0.00     0.071 A 
BRANCH  21  24
HETATM   24  C   UNL     1      43.354 -18.137   3.184  1.00  0.00    -0.008 A 
HETATM   25  C   UNL     1      43.873 -18.555   4.416  1.00  0.00     0.014 A 
HETATM   26  C   UNL     1      44.199 -19.897   4.630  1.00  0.00     0.001 A 
HETATM   27  C   UNL     1      44.011 -20.836   3.618  1.00  0.00     0.000 A 
HETATM   28  C   UNL     1      43.496 -20.434   2.388  1.00  0.00     0.001 A 
HETATM   29  C   UNL     1      43.168 -19.093   2.174  1.00  0.00     0.014 A 
ENDBRANCH  21  24
ENDBRANCH   1  18
TORSDOF 5
ENDMDL
MODEL 6
REMARK VINA RESULT:      -7.9      7.310      9.477
REMARK  5 active torsions:
REMARK  status: ('A' for Active; 'I' for Inactive)
REMARK    1  A    between atoms: C_4  and  C_5 
REMARK    2  A    between atoms: C_9  and  C_10 
REMARK       I    between atoms: C_10  and  N_11 
REMARK    3  A    between atoms: N_11  and  C_12 
REMARK    4  A    between atoms: C_14  and  C_15 
REMARK       I    between atoms: C_15  and  N_16 
REMARK    5  A    between atoms: N_16  and  C_17 
ROOT
HETATM    1  C   UNL     1      40.646 -14.131   0.836  1.00  0.00     0.276 C 
HETATM    2  N   UNL     1      40.350 -14.595  -0.434  1.00  0.00    -0.322 N 
HETATM    3  O   UNL     1      40.113 -13.183   1.405  1.00  0.00    -0.266 OA
HETATM    4  H   UNL     1      40.860 -15.439  -0.690  1.00  0.00     0.169 HD
ENDROOT
BRANCH   2   5
HETATM    5  C   UNL     1      39.393 -14.081  -1.327  1.00  0.00     0.036 A 
HETATM    6  C   UNL     1      38.807 -12.822  -1.172  1.00  0.00     0.046 A 
HETATM    7  C   UNL     1      37.811 -12.378  -2.051  1.00  0.00     0.034 A 
HETATM    8  C   UNL     1      37.440 -13.178  -3.135  1.00  0.00     0.017 A 
HETATM    9  C   UNL     1      38.044 -14.423  -3.319  1.00  0.00     0.003 A 
HETATM   10  C   UNL     1      39.013 -14.873  -2.416  1.00  0.00     0.029 A 
BRANCH   7  11
HETATM   11  C   UNL     1      37.152 -11.053  -1.863  1.00  0.00     0.252 C 
HETATM   12  N   UNL     1      37.283 -10.487  -0.607  1.00  0.00    -0.352 N 
HETATM   13  H   UNL     1      37.710 -11.026   0.136  1.00  0.00     0.163 HD
HETATM   14  O   UNL     1      36.525 -10.546  -2.788  1.00  0.00    -0.268 OA
BRANCH  12  15
HETATM   15  C   UNL     1      36.762  -9.202  -0.264  1.00  0.00     0.084 A 
HETATM   16  C   UNL     1      35.385  -9.073   0.326  1.00  0.00     0.027 A 
HETATM   17  C   UNL     1      36.590  -8.831   1.185  1.00  0.00     0.027 A 
ENDBRANCH  12  15
ENDBRANCH   7  11
ENDBRANCH   2   5
BRANCH   1  18
HETATM   18  C   UNL     1      41.686 -14.927   1.507  1.00  0.00     0.147 A 
HETATM   19  N   UNL     1      42.851 -14.402   1.935  1.00  0.00    -0.169 NA
HETATM   20  N   UNL     1      43.498 -15.459   2.470  1.00  0.00    -0.277 N 
HETATM   21  C   UNL     1      42.805 -16.641   2.406  1.00  0.00     0.063 A 
HETATM   22  H   UNL     1      44.427 -15.311   2.849  1.00  0.00     0.189 HD
HETATM   23  C   UNL     1      41.623 -16.315   1.777  1.00  0.00     0.071 A 
BRANCH  21  24
HETATM   24  C   UNL     1      43.303 -17.923   2.897  1.00  0.00    -0.008 A 
HETATM   25  C   UNL     1      43.980 -18.027   4.118  1.00  0.00     0.014 A 
HETATM   26  C   UNL     1      44.428 -19.269   4.578  1.00  0.00     0.001 A 
HETATM   27  C   UNL     1      44.206 -20.419   3.823  1.00  0.00     0.000 A 
HETATM   28  C   UNL     1      43.533 -20.330   2.607  1.00  0.00     0.001 A 
HETATM   29  C   UNL     1      43.084 -19.089   2.148  1.00  0.00     0.014 A 
ENDBRANCH  21  24
ENDBRANCH   1  18
TORSDOF 5
ENDMDL
MODEL 7
REMARK VINA RESULT:      -7.9      7.618     10.622
REMARK  5 active torsions:
REMARK  status: ('A' for Active; 'I' for Inactive)
REMARK    1  A    between atoms: C_4  and  C_5 
REMARK    2  A    between atoms: C_9  and  C_10 
REMARK       I    between atoms: C_10  and  N_11 
REMARK    3  A    between atoms: N_11  and  C_12 
REMARK    4  A    between atoms: C_14  and  C_15 
REMARK       I    between atoms: C_15  and  N_16 
REMARK    5  A    between atoms: N_16  and  C_17 
ROOT
HETATM    1  C   UNL     1      40.927 -13.892   0.581  1.00  0.00     0.276 C 
HETATM    2  N   UNL     1      39.942 -14.624  -0.060  1.00  0.00    -0.322 N 
HETATM    3  O   UNL     1      41.292 -12.757   0.292  1.00  0.00    -0.266 OA
HETATM    4  H   UNL     1      39.743 -15.519   0.384  1.00  0.00     0.169 HD
ENDROOT
BRANCH   2   5
HETATM    5  C   UNL     1      39.169 -14.226  -1.166  1.00  0.00     0.036 A 
HETATM    6  C   UNL     1      38.546 -12.978  -1.248  1.00  0.00     0.046 A 
HETATM    7  C   UNL     1      37.733 -12.649  -2.340  1.00  0.00     0.034 A 
HETATM    8  C   UNL     1      37.591 -13.557  -3.392  1.00  0.00     0.017 A 
HETATM    9  C   UNL     1      38.236 -14.793  -3.336  1.00  0.00     0.003 A 
HETATM   10  C   UNL     1      39.018 -15.127  -2.225  1.00  0.00     0.029 A 
BRANCH   7  11
HETATM   11  C   UNL     1      37.032 -11.335  -2.412  1.00  0.00     0.252 C 
HETATM   12  N   UNL     1      36.646 -10.925  -3.676  1.00  0.00    -0.352 N 
HETATM   13  H   UNL     1      36.943 -11.462  -4.482  1.00  0.00     0.163 HD
HETATM   14  O   UNL     1      36.849 -10.683  -1.389  1.00  0.00    -0.268 OA
BRANCH  12  15
HETATM   15  C   UNL     1      35.919  -9.721  -3.927  1.00  0.00     0.084 A 
HETATM   16  C   UNL     1      36.052  -9.014  -5.247  1.00  0.00     0.027 A 
HETATM   17  C   UNL     1      34.778  -9.730  -4.911  1.00  0.00     0.027 A 
ENDBRANCH  12  15
ENDBRANCH   7  11
ENDBRANCH   2   5
BRANCH   1  18
HETATM   18  C   UNL     1      41.514 -14.605   1.726  1.00  0.00     0.147 A 
HETATM   19  N   UNL     1      41.683 -14.037   2.937  1.00  0.00    -0.169 NA
HETATM   20  N   UNL     1      42.250 -15.019   3.671  1.00  0.00    -0.277 N 
HETATM   21  C   UNL     1      42.454 -16.192   2.990  1.00  0.00     0.063 A 
HETATM   22  H   UNL     1      42.493 -14.817   4.634  1.00  0.00     0.189 HD
HETATM   23  C   UNL     1      41.985 -15.940   1.719  1.00  0.00     0.071 A 
BRANCH  21  24
HETATM   24  C   UNL     1      43.070 -17.387   3.561  1.00  0.00    -0.008 A 
HETATM   25  C   UNL     1      43.326 -17.494   4.934  1.00  0.00     0.014 A 
HETATM   26  C   UNL     1      43.896 -18.657   5.460  1.00  0.00     0.001 A 
HETATM   27  C   UNL     1      44.216 -19.723   4.623  1.00  0.00     0.000 A 
HETATM   28  C   UNL     1      43.967 -19.630   3.256  1.00  0.00     0.001 A 
HETATM   29  C   UNL     1      43.395 -18.469   2.730  1.00  0.00     0.014 A 
ENDBRANCH  21  24
ENDBRANCH   1  18
TORSDOF 5
ENDMDL
MODEL 8
REMARK VINA RESULT:      -7.7      2.857     11.425
REMARK  5 active torsions:
REMARK  status: ('A' for Active; 'I' for Inactive)
REMARK    1  A    between atoms: C_4  and  C_5 
REMARK    2  A    between atoms: C_9  and  C_10 
REMARK       I    between atoms: C_10  and  N_11 
REMARK    3  A    between atoms: N_11  and  C_12 
REMARK    4  A    between atoms: C_14  and  C_15 
REMARK       I    between atoms: C_15  and  N_16 
REMARK    5  A    between atoms: N_16  and  C_17 
ROOT
HETATM    1  C   UNL     1      43.189  -8.320  11.293  1.00  0.00     0.276 C 
HETATM    2  N   UNL     1      43.878  -9.481  10.984  1.00  0.00    -0.322 N 
HETATM    3  O   UNL     1      42.979  -7.378  10.537  1.00  0.00    -0.266 OA
HETATM    4  H   UNL     1      43.878 -10.170  11.734  1.00  0.00     0.169 HD
ENDROOT
BRANCH   2   5
HETATM    5  C   UNL     1      44.477  -9.814   9.755  1.00  0.00     0.036 A 
HETATM    6  C   UNL     1      43.958 -10.787   8.897  1.00  0.00     0.046 A 
HETATM    7  C   UNL     1      44.624 -11.131   7.713  1.00  0.00     0.034 A 
HETATM    8  C   UNL     1      45.789 -10.450   7.353  1.00  0.00     0.017 A 
HETATM    9  C   UNL     1      46.297  -9.452   8.187  1.00  0.00     0.003 A 
HETATM   10  C   UNL     1      45.645  -9.140   9.385  1.00  0.00     0.029 A 
BRANCH   7  11
HETATM   11  C   UNL     1      44.097 -12.199   6.814  1.00  0.00     0.252 C 
HETATM   12  N   UNL     1      43.467 -13.259   7.443  1.00  0.00    -0.352 N 
HETATM   13  H   UNL     1      43.487 -13.317   8.454  1.00  0.00     0.163 HD
HETATM   14  O   UNL     1      44.256 -12.110   5.602  1.00  0.00    -0.268 OA
BRANCH  12  15
HETATM   15  C   UNL     1      42.859 -14.343   6.739  1.00  0.00     0.084 A 
HETATM   16  C   UNL     1      43.668 -15.552   6.361  1.00  0.00     0.027 A 
HETATM   17  C   UNL     1      42.636 -15.656   7.444  1.00  0.00     0.027 A 
ENDBRANCH  12  15
ENDBRANCH   7  11
ENDBRANCH   2   5
BRANCH   1  18
HETATM   18  C   UNL     1      42.667  -8.317  12.669  1.00  0.00     0.147 A 
HETATM   19  N   UNL     1      42.467  -9.443  13.381  1.00  0.00    -0.169 NA
HETATM   20  N   UNL     1      41.981  -8.993  14.557  1.00  0.00    -0.277 N 
HETATM   21  C   UNL     1      41.859  -7.629  14.637  1.00  0.00     0.063 A 
HETATM   22  H   UNL     1      41.732  -9.674  15.266  1.00  0.00     0.189 HD
HETATM   23  C   UNL     1      42.297  -7.171  13.412  1.00  0.00     0.071 A 
BRANCH  21  24
HETATM   24  C   UNL     1      41.339  -6.907  15.795  1.00  0.00    -0.008 A 
HETATM   25  C   UNL     1      42.139  -6.647  16.915  1.00  0.00     0.014 A 
HETATM   26  C   UNL     1      41.626  -5.935  18.003  1.00  0.00     0.001 A 
HETATM   27  C   UNL     1      40.310  -5.476  17.985  1.00  0.00     0.000 A 
HETATM   28  C   UNL     1      39.504  -5.728  16.877  1.00  0.00     0.001 A 
HETATM   29  C   UNL     1      40.017  -6.437  15.789  1.00  0.00     0.014 A 
ENDBRANCH  21  24
ENDBRANCH   1  18
TORSDOF 5
ENDMDL
MODEL 9
REMARK VINA RESULT:      -7.7     17.851     19.582
REMARK  5 active torsions:
REMARK  status: ('A' for Active; 'I' for Inactive)
REMARK    1  A    between atoms: C_4  and  C_5 
REMARK    2  A    between atoms: C_9  and  C_10 
REMARK       I    between atoms: C_10  and  N_11 
REMARK    3  A    between atoms: N_11  and  C_12 
REMARK    4  A    between atoms: C_14  and  C_15 
REMARK       I    between atoms: C_15  and  N_16 
REMARK    5  A    between atoms: N_16  and  C_17 
ROOT
HETATM    1  C   UNL     1      42.916 -31.472   3.144  1.00  0.00     0.276 C 
HETATM    2  N   UNL     1      42.343 -30.828   4.227  1.00  0.00    -0.322 N 
HETATM    3  O   UNL     1      42.940 -32.683   2.950  1.00  0.00    -0.266 OA
HETATM    4  H   UNL     1      42.370 -29.811   4.160  1.00  0.00     0.169 HD
ENDROOT
BRANCH   2   5
HETATM    5  C   UNL     1      41.680 -31.420   5.317  1.00  0.00     0.036 A 
HETATM    6  C   UNL     1      40.380 -31.924   5.234  1.00  0.00     0.046 A 
HETATM    7  C   UNL     1      39.737 -32.448   6.363  1.00  0.00     0.034 A 
HETATM    8  C   UNL     1      40.425 -32.524   7.576  1.00  0.00     0.017 A 
HETATM    9  C   UNL     1      41.737 -32.054   7.662  1.00  0.00     0.003 A 
HETATM   10  C   UNL     1      42.359 -31.500   6.538  1.00  0.00     0.029 A 
BRANCH   7  11
HETATM   11  C   UNL     1      38.333 -32.947   6.289  1.00  0.00     0.252 C 
HETATM   12  N   UNL     1      37.873 -33.265   5.023  1.00  0.00    -0.352 N 
HETATM   13  H   UNL     1      38.448 -33.048   4.218  1.00  0.00     0.163 HD
HETATM   14  O   UNL     1      37.661 -33.034   7.310  1.00  0.00    -0.268 OA
BRANCH  12  15
HETATM   15  C   UNL     1      36.574 -33.805   4.769  1.00  0.00     0.084 A 
HETATM   16  C   UNL     1      35.540 -32.989   4.045  1.00  0.00     0.027 A 
HETATM   17  C   UNL     1      36.178 -34.160   3.360  1.00  0.00     0.027 A 
ENDBRANCH  12  15
ENDBRANCH   7  11
ENDBRANCH   2   5
BRANCH   1  18
HETATM   18  C   UNL     1      43.500 -30.538   2.168  1.00  0.00     0.147 A 
HETATM   19  N   UNL     1      44.122 -29.397   2.526  1.00  0.00    -0.169 NA
HETATM   20  N   UNL     1      44.487 -28.852   1.346  1.00  0.00    -0.277 N 
HETATM   21  C   UNL     1      44.130 -29.588   0.245  1.00  0.00     0.063 A 
HETATM   22  H   UNL     1      44.966 -27.958   1.358  1.00  0.00     0.189 HD
HETATM   23  C   UNL     1      43.481 -30.689   0.761  1.00  0.00     0.071 A 
BRANCH  21  24
HETATM   24  C   UNL     1      44.394 -29.197  -1.137  1.00  0.00    -0.008 A 
HETATM   25  C   UNL     1      45.207 -28.099  -1.445  1.00  0.00     0.014 A 
HETATM   26  C   UNL     1      45.464 -27.757  -2.776  1.00  0.00     0.001 A 
HETATM   27  C   UNL     1      44.912 -28.507  -3.812  1.00  0.00     0.000 A 
HETATM   28  C   UNL     1      44.102 -29.601  -3.520  1.00  0.00     0.001 A 
HETATM   29  C   UNL     1      43.847 -29.944  -2.191  1.00  0.00     0.014 A 
ENDBRANCH  21  24
ENDBRANCH   1  18
TORSDOF 5
ENDMDL
MODEL 10
REMARK VINA RESULT:      -7.6     17.641     21.223
REMARK  5 active torsions:
REMARK  status: ('A' for Active; 'I' for Inactive)
REMARK    1  A    between atoms: C_4  and  C_5 
REMARK    2  A    between atoms: C_9  and  C_10 
REMARK       I    between atoms: C_10  and  N_11 
REMARK    3  A    between atoms: N_11  and  C_12 
REMARK    4  A    between atoms: C_14  and  C_15 
REMARK       I    between atoms: C_15  and  N_16 
REMARK    5  A    between atoms: N_16  and  C_17 
ROOT
HETATM    1  C   UNL     1      47.053 -28.614  -0.779  1.00  0.00     0.276 C 
HETATM    2  N   UNL     1      46.190 -29.641  -1.122  1.00  0.00    -0.322 N 
HETATM    3  O   UNL     1      47.374 -27.668  -1.491  1.00  0.00    -0.266 OA
HETATM    4  H   UNL     1      46.002 -30.289  -0.359  1.00  0.00     0.169 HD
ENDROOT
BRANCH   2   5
HETATM    5  C   UNL     1      45.514 -29.813  -2.343  1.00  0.00     0.036 A 
HETATM    6  C   UNL     1      46.020 -30.588  -3.390  1.00  0.00     0.046 A 
HETATM    7  C   UNL     1      45.342 -30.680  -4.612  1.00  0.00     0.034 A 
HETATM    8  C   UNL     1      44.111 -30.037  -4.768  1.00  0.00     0.017 A 
HETATM    9  C   UNL     1      43.580 -29.288  -3.717  1.00  0.00     0.003 A 
HETATM   10  C   UNL     1      44.281 -29.174  -2.512  1.00  0.00     0.029 A 
BRANCH   7  11
HETATM   11  C   UNL     1      45.900 -31.471  -5.747  1.00  0.00     0.252 C 
HETATM   12  N   UNL     1      45.176 -31.429  -6.925  1.00  0.00    -0.352 N 
HETATM   13  H   UNL     1      44.273 -30.971  -6.935  1.00  0.00     0.163 HD
HETATM   14  O   UNL     1      46.930 -32.119  -5.591  1.00  0.00    -0.268 OA
BRANCH  12  15
HETATM   15  C   UNL     1      45.587 -32.083  -8.127  1.00  0.00     0.084 A 
HETATM   16  C   UNL     1      45.211 -33.516  -8.379  1.00  0.00     0.027 A 
HETATM   17  C   UNL     1      44.563 -32.425  -9.177  1.00  0.00     0.027 A 
ENDBRANCH  12  15
ENDBRANCH   7  11
ENDBRANCH   2   5
BRANCH   1  18
HETATM   18  C   UNL     1      47.560 -28.731   0.597  1.00  0.00     0.147 A 
HETATM   19  N   UNL     1      47.448 -27.743   1.507  1.00  0.00    -0.169 NA
HETATM   20  N   UNL     1      48.041 -28.255   2.606  1.00  0.00    -0.277 N 
HETATM   21  C   UNL     1      48.531 -29.526   2.448  1.00  0.00     0.063 A 
HETATM   22  H   UNL     1      48.096 -27.675   3.435  1.00  0.00     0.189 HD
HETATM   23  C   UNL     1      48.231 -29.851   1.142  1.00  0.00     0.071 A 
BRANCH  21  24
HETATM   24  C   UNL     1      49.231 -30.282   3.483  1.00  0.00    -0.008 A 
HETATM   25  C   UNL     1      48.544 -31.128   4.363  1.00  0.00     0.014 A 
HETATM   26  C   UNL     1      49.238 -31.859   5.331  1.00  0.00     0.001 A 
HETATM   27  C   UNL     1      50.624 -31.752   5.431  1.00  0.00     0.000 A 
HETATM   28  C   UNL     1      51.319 -30.915   4.563  1.00  0.00     0.001 A 
HETATM   29  C   UNL     1      50.626 -30.187   3.594  1.00  0.00     0.014 A 
ENDBRANCH  21  24
ENDBRANCH   1  18
TORSDOF 5
ENDMDL
