MODEL 1
REMARK VINA RESULT:      -9.1      0.000      0.000
REMARK  3 active torsions:
REMARK  status: ('A' for Active; 'I' for Inactive)
REMARK    1  A    between atoms: C_2  and  C_3 
REMARK    2  A    between atoms: C_18  and  C_19 
REMARK    3  A    between atoms: C_22  and  O_23 
ROOT
HETATM    1  C   UNL     1      43.641 -13.622   6.000  1.00  0.00     0.060 C 
HETATM    2  C   UNL     1      42.904 -13.017   4.766  1.00  0.00     0.210 C 
HETATM    3  N   UNL     1      43.835 -11.957   4.335  1.00  0.00     0.110 N 
HETATM    4  C   UNL     1      43.257 -10.833   3.608  1.00  0.00     0.374 C 
HETATM    5  C   UNL     1      42.402 -11.114   2.390  1.00  0.00     0.250 C 
HETATM    6  O   UNL     1      41.954 -10.155   1.742  1.00  0.00    -0.271 OA
HETATM    7  N   UNL     1      42.141 -12.342   1.886  1.00  0.00    -0.325 N 
HETATM    8  C   UNL     1      42.394 -13.648   2.318  1.00  0.00     0.044 A 
HETATM    9  C   UNL     1      42.784 -14.032   3.610  1.00  0.00     0.012 A 
HETATM   10  C   UNL     1      42.192 -14.627   1.329  1.00  0.00     0.031 A 
HETATM   11  C   UNL     1      42.440 -15.976   1.576  1.00  0.00     0.014 A 
HETATM   12  C   UNL     1      42.888 -16.398   2.826  1.00  0.00    -0.025 A 
HETATM   13  C   UNL     1      43.028 -15.417   3.827  1.00  0.00     0.024 A 
HETATM   14  H   UNL     1      44.574 -12.381   3.774  1.00  0.00     0.318 HD
HETATM   15  H   UNL     1      41.667 -12.246   0.995  1.00  0.00     0.169 HD
ENDROOT
BRANCH  12  16
HETATM   16  C   UNL     1      43.219 -17.814   3.080  1.00  0.00    -0.026 A 
HETATM   17  C   UNL     1      42.926 -18.803   2.121  1.00  0.00     0.015 A 
HETATM   18  C   UNL     1      43.243 -20.147   2.340  1.00  0.00     0.037 A 
HETATM   19  C   UNL     1      43.863 -20.516   3.526  1.00  0.00     0.065 A 
HETATM   20  C   UNL     1      44.167 -19.565   4.490  1.00  0.00     0.037 A 
HETATM   21  C   UNL     1      43.845 -18.222   4.269  1.00  0.00     0.015 A 
BRANCH  19  22
HETATM   22  O   UNL     1      44.195 -21.812   3.782  1.00  0.00    -0.361 OA
HETATM   23  H   UNL     1      44.713 -21.844   4.603  1.00  0.00     0.217 HD
ENDBRANCH  19  22
ENDBRANCH  12  16
BRANCH   2  24
HETATM   24  C   UNL     1      41.545 -12.503   5.313  1.00  0.00    -0.016 A 
HETATM   25  C   UNL     1      40.322 -13.130   5.013  1.00  0.00     0.010 A 
HETATM   26  C   UNL     1      39.111 -12.641   5.516  1.00  0.00     0.001 A 
HETATM   27  C   UNL     1      39.094 -11.524   6.346  1.00  0.00     0.000 A 
HETATM   28  C   UNL     1      40.290 -10.900   6.683  1.00  0.00     0.001 A 
HETATM   29  C   UNL     1      41.499 -11.390   6.183  1.00  0.00     0.010 A 
ENDBRANCH   2  24
TORSDOF 3
ENDMDL
MODEL 2
REMARK VINA RESULT:      -8.7      2.983      6.933
REMARK  3 active torsions:
REMARK  status: ('A' for Active; 'I' for Inactive)
REMARK    1  A    between atoms: C_2  and  C_3 
REMARK    2  A    between atoms: C_18  and  C_19 
REMARK    3  A    between atoms: C_22  and  O_23 
ROOT
HETATM    1  C   UNL     1      41.412 -15.727   5.975  1.00  0.00     0.060 C 
HETATM    2  C   UNL     1      41.686 -15.391   4.477  1.00  0.00     0.210 C 
HETATM    3  N   UNL     1      40.322 -15.250   3.934  1.00  0.00     0.110 N 
HETATM    4  C   UNL     1      40.154 -15.508   2.508  1.00  0.00     0.374 C 
HETATM    5  C   UNL     1      41.039 -14.770   1.525  1.00  0.00     0.250 C 
HETATM    6  O   UNL     1      40.860 -14.951   0.311  1.00  0.00    -0.271 OA
HETATM    7  N   UNL     1      41.975 -13.851   1.855  1.00  0.00    -0.325 N 
HETATM    8  C   UNL     1      42.518 -13.401   3.062  1.00  0.00     0.044 A 
HETATM    9  C   UNL     1      42.397 -14.032   4.311  1.00  0.00     0.012 A 
HETATM   10  C   UNL     1      43.271 -12.219   2.947  1.00  0.00     0.031 A 
HETATM   11  C   UNL     1      43.848 -11.609   4.060  1.00  0.00     0.014 A 
HETATM   12  C   UNL     1      43.703 -12.166   5.329  1.00  0.00    -0.025 A 
HETATM   13  C   UNL     1      42.998 -13.382   5.425  1.00  0.00     0.024 A 
HETATM   14  H   UNL     1      39.978 -14.316   4.154  1.00  0.00     0.318 HD
HETATM   15  H   UNL     1      42.323 -13.408   1.012  1.00  0.00     0.169 HD
ENDROOT
BRANCH  12  16
HETATM   16  C   UNL     1      44.250 -11.494   6.524  1.00  0.00    -0.026 A 
HETATM   17  C   UNL     1      45.633 -11.254   6.643  1.00  0.00     0.015 A 
HETATM   18  C   UNL     1      46.167 -10.609   7.763  1.00  0.00     0.037 A 
HETATM   19  C   UNL     1      45.317 -10.192   8.778  1.00  0.00     0.065 A 
HETATM   20  C   UNL     1      43.949 -10.411   8.690  1.00  0.00     0.037 A 
HETATM   21  C   UNL     1      43.419 -11.060   7.570  1.00  0.00     0.015 A 
BRANCH  19  22
HETATM   22  O   UNL     1      45.790  -9.556   9.886  1.00  0.00    -0.361 OA
HETATM   23  H   UNL     1      46.608  -9.087   9.650  1.00  0.00     0.217 HD
ENDBRANCH  19  22
ENDBRANCH  12  16
BRANCH   2  24
HETATM   24  C   UNL     1      42.482 -16.605   3.925  1.00  0.00    -0.016 A 
HETATM   25  C   UNL     1      42.134 -17.256   2.727  1.00  0.00     0.010 A 
HETATM   26  C   UNL     1      42.867 -18.351   2.255  1.00  0.00     0.001 A 
HETATM   27  C   UNL     1      43.975 -18.811   2.960  1.00  0.00     0.000 A 
HETATM   28  C   UNL     1      44.359 -18.171   4.133  1.00  0.00     0.001 A 
HETATM   29  C   UNL     1      43.629 -17.076   4.602  1.00  0.00     0.010 A 
ENDBRANCH   2  24
TORSDOF 3
ENDMDL
MODEL 3
REMARK VINA RESULT:      -8.4      3.605      5.941
REMARK  3 active torsions:
REMARK  status: ('A' for Active; 'I' for Inactive)
REMARK    1  A    between atoms: C_2  and  C_3 
REMARK    2  A    between atoms: C_18  and  C_19 
REMARK    3  A    between atoms: C_22  and  O_23 
ROOT
HETATM    1  C   UNL     1      43.344 -14.792   1.936  1.00  0.00     0.060 C 
HETATM    2  C   UNL     1      42.586 -13.877   2.945  1.00  0.00     0.210 C 
HETATM    3  N   UNL     1      43.574 -12.813   3.205  1.00  0.00     0.110 N 
HETATM    4  C   UNL     1      43.471 -12.122   4.485  1.00  0.00     0.374 C 
HETATM    5  C   UNL     1      42.140 -11.517   4.881  1.00  0.00     0.250 C 
HETATM    6  O   UNL     1      42.067 -10.884   5.946  1.00  0.00    -0.271 OA
HETATM    7  N   UNL     1      41.018 -11.537   4.128  1.00  0.00    -0.325 N 
HETATM    8  C   UNL     1      40.657 -12.164   2.930  1.00  0.00     0.044 A 
HETATM    9  C   UNL     1      41.346 -13.216   2.307  1.00  0.00     0.012 A 
HETATM   10  C   UNL     1      39.470 -11.672   2.361  1.00  0.00     0.031 A 
HETATM   11  C   UNL     1      38.988 -12.154   1.145  1.00  0.00     0.014 A 
HETATM   12  C   UNL     1      39.671 -13.156   0.459  1.00  0.00    -0.025 A 
HETATM   13  C   UNL     1      40.826 -13.684   1.068  1.00  0.00     0.024 A 
HETATM   14  H   UNL     1      43.529 -12.134   2.446  1.00  0.00     0.318 HD
HETATM   15  H   UNL     1      40.314 -10.945   4.556  1.00  0.00     0.169 HD
ENDROOT
BRANCH  12  16
HETATM   16  C   UNL     1      39.209 -13.627  -0.861  1.00  0.00    -0.026 A 
HETATM   17  C   UNL     1      38.519 -12.761  -1.732  1.00  0.00     0.015 A 
HETATM   18  C   UNL     1      38.083 -13.187  -2.991  1.00  0.00     0.037 A 
HETATM   19  C   UNL     1      38.339 -14.490  -3.394  1.00  0.00     0.065 A 
HETATM   20  C   UNL     1      39.019 -15.368  -2.561  1.00  0.00     0.037 A 
HETATM   21  C   UNL     1      39.449 -14.939  -1.301  1.00  0.00     0.015 A 
BRANCH  19  22
HETATM   22  O   UNL     1      37.939 -14.949  -4.613  1.00  0.00    -0.361 OA
HETATM   23  H   UNL     1      37.306 -15.675  -4.479  1.00  0.00     0.217 HD
ENDBRANCH  19  22
ENDBRANCH  12  16
BRANCH   2  24
HETATM   24  C   UNL     1      42.274 -14.784   4.165  1.00  0.00    -0.016 A 
HETATM   25  C   UNL     1      40.961 -15.046   4.598  1.00  0.00     0.010 A 
HETATM   26  C   UNL     1      40.709 -15.865   5.705  1.00  0.00     0.001 A 
HETATM   27  C   UNL     1      41.762 -16.455   6.396  1.00  0.00     0.000 A 
HETATM   28  C   UNL     1      43.069 -16.238   5.975  1.00  0.00     0.001 A 
HETATM   29  C   UNL     1      43.320 -15.423   4.868  1.00  0.00     0.010 A 
ENDBRANCH   2  24
TORSDOF 3
ENDMDL
MODEL 4
REMARK VINA RESULT:      -8.4      1.986      3.579
REMARK  3 active torsions:
REMARK  status: ('A' for Active; 'I' for Inactive)
REMARK    1  A    between atoms: C_2  and  C_3 
REMARK    2  A    between atoms: C_18  and  C_19 
REMARK    3  A    between atoms: C_22  and  O_23 
ROOT
HETATM    1  C   UNL     1      39.491 -14.669   3.167  1.00  0.00     0.060 C 
HETATM    2  C   UNL     1      40.331 -13.687   4.039  1.00  0.00     0.210 C 
HETATM    3  N   UNL     1      39.365 -13.291   5.082  1.00  0.00     0.110 N 
HETATM    4  C   UNL     1      39.577 -11.993   5.713  1.00  0.00     0.374 C 
HETATM    5  C   UNL     1      40.935 -11.686   6.309  1.00  0.00     0.250 C 
HETATM    6  O   UNL     1      41.098 -10.603   6.892  1.00  0.00    -0.271 OA
HETATM    7  N   UNL     1      41.987 -12.536   6.334  1.00  0.00    -0.325 N 
HETATM    8  C   UNL     1      42.243 -13.788   5.768  1.00  0.00     0.044 A 
HETATM    9  C   UNL     1      41.507 -14.399   4.740  1.00  0.00     0.012 A 
HETATM   10  C   UNL     1      43.375 -14.436   6.296  1.00  0.00     0.031 A 
HETATM   11  C   UNL     1      43.750 -15.710   5.876  1.00  0.00     0.014 A 
HETATM   12  C   UNL     1      43.013 -16.381   4.901  1.00  0.00    -0.025 A 
HETATM   13  C   UNL     1      41.918 -15.700   4.335  1.00  0.00     0.024 A 
HETATM   14  H   UNL     1      39.340 -14.018   5.797  1.00  0.00     0.318 HD
HETATM   15  H   UNL     1      42.723 -12.143   6.910  1.00  0.00     0.169 HD
ENDROOT
BRANCH  12  16
HETATM   16  C   UNL     1      43.359 -17.758   4.497  1.00  0.00    -0.026 A 
HETATM   17  C   UNL     1      43.273 -18.154   3.148  1.00  0.00     0.015 A 
HETATM   18  C   UNL     1      43.607 -19.451   2.746  1.00  0.00     0.037 A 
HETATM   19  C   UNL     1      44.036 -20.369   3.695  1.00  0.00     0.065 A 
HETATM   20  C   UNL     1      44.134 -20.009   5.033  1.00  0.00     0.037 A 
HETATM   21  C   UNL     1      43.796 -18.712   5.431  1.00  0.00     0.015 A 
BRANCH  19  22
HETATM   22  O   UNL     1      44.376 -21.642   3.350  1.00  0.00    -0.361 OA
HETATM   23  H   UNL     1      44.259 -22.216   4.125  1.00  0.00     0.217 HD
ENDBRANCH  19  22
ENDBRANCH  12  16
BRANCH   2  24
HETATM   24  C   UNL     1      40.752 -12.544   3.078  1.00  0.00    -0.016 A 
HETATM   25  C   UNL     1      42.086 -12.115   2.951  1.00  0.00     0.010 A 
HETATM   26  C   UNL     1      42.438 -11.078   2.079  1.00  0.00     0.001 A 
HETATM   27  C   UNL     1      41.466 -10.455   1.301  1.00  0.00     0.000 A 
HETATM   28  C   UNL     1      40.144 -10.876   1.384  1.00  0.00     0.001 A 
HETATM   29  C   UNL     1      39.795 -11.914   2.252  1.00  0.00     0.010 A 
ENDBRANCH   2  24
TORSDOF 3
ENDMDL
MODEL 5
REMARK VINA RESULT:      -8.1      3.860      5.260
REMARK  3 active torsions:
REMARK  status: ('A' for Active; 'I' for Inactive)
REMARK    1  A    between atoms: C_2  and  C_3 
REMARK    2  A    between atoms: C_18  and  C_19 
REMARK    3  A    between atoms: C_22  and  O_23 
ROOT
HETATM    1  C   UNL     1      41.617 -11.208   1.370  1.00  0.00     0.060 C 
HETATM    2  C   UNL     1      40.674 -12.166   0.581  1.00  0.00     0.210 C 
HETATM    3  N   UNL     1      41.386 -12.319  -0.702  1.00  0.00     0.110 N 
HETATM    4  C   UNL     1      40.574 -12.650  -1.867  1.00  0.00     0.374 C 
HETATM    5  C   UNL     1      39.649 -13.848  -1.795  1.00  0.00     0.250 C 
HETATM    6  O   UNL     1      38.998 -14.159  -2.804  1.00  0.00    -0.271 OA
HETATM    7  N   UNL     1      39.524 -14.674  -0.732  1.00  0.00    -0.325 N 
HETATM    8  C   UNL     1      40.013 -14.660   0.578  1.00  0.00     0.044 A 
HETATM    9  C   UNL     1      40.588 -13.561   1.236  1.00  0.00     0.012 A 
HETATM   10  C   UNL     1      39.859 -15.880   1.261  1.00  0.00     0.031 A 
HETATM   11  C   UNL     1      40.330 -16.054   2.561  1.00  0.00     0.014 A 
HETATM   12  C   UNL     1      40.962 -15.009   3.231  1.00  0.00    -0.025 A 
HETATM   13  C   UNL     1      41.058 -13.774   2.562  1.00  0.00     0.024 A 
HETATM   14  H   UNL     1      42.118 -13.020  -0.587  1.00  0.00     0.318 HD
HETATM   15  H   UNL     1      38.951 -15.470  -0.990  1.00  0.00     0.169 HD
ENDROOT
BRANCH  12  16
HETATM   16  C   UNL     1      41.527 -15.202   4.582  1.00  0.00    -0.026 A 
HETATM   17  C   UNL     1      42.762 -14.623   4.933  1.00  0.00     0.015 A 
HETATM   18  C   UNL     1      43.307 -14.786   6.211  1.00  0.00     0.037 A 
HETATM   19  C   UNL     1      42.614 -15.531   7.156  1.00  0.00     0.065 A 
HETATM   20  C   UNL     1      41.393 -16.112   6.842  1.00  0.00     0.037 A 
HETATM   21  C   UNL     1      40.855 -15.950   5.562  1.00  0.00     0.015 A 
BRANCH  19  22
HETATM   22  O   UNL     1      43.103 -15.713   8.415  1.00  0.00    -0.361 OA
HETATM   23  H   UNL     1      43.993 -15.327   8.462  1.00  0.00     0.217 HD
ENDBRANCH  19  22
ENDBRANCH  12  16
BRANCH   2  24
HETATM   24  C   UNL     1      39.317 -11.417   0.484  1.00  0.00    -0.016 A 
HETATM   25  C   UNL     1      38.180 -11.814   1.211  1.00  0.00     0.010 A 
HETATM   26  C   UNL     1      36.968 -11.122   1.101  1.00  0.00     0.001 A 
HETATM   27  C   UNL     1      36.868 -10.008   0.274  1.00  0.00     0.000 A 
HETATM   28  C   UNL     1      37.983  -9.575  -0.436  1.00  0.00     0.001 A 
HETATM   29  C   UNL     1      39.193 -10.264  -0.323  1.00  0.00     0.010 A 
ENDBRANCH   2  24
TORSDOF 3
ENDMDL
MODEL 6
REMARK VINA RESULT:      -8.1      3.474      5.502
REMARK  3 active torsions:
REMARK  status: ('A' for Active; 'I' for Inactive)
REMARK    1  A    between atoms: C_2  and  C_3 
REMARK    2  A    between atoms: C_18  and  C_19 
REMARK    3  A    between atoms: C_22  and  O_23 
ROOT
HETATM    1  C   UNL     1      40.282 -14.031  -1.539  1.00  0.00     0.060 C 
HETATM    2  C   UNL     1      39.692 -12.925  -0.612  1.00  0.00     0.210 C 
HETATM    3  N   UNL     1      38.251 -12.994  -0.919  1.00  0.00     0.110 N 
HETATM    4  C   UNL     1      37.476 -11.778  -0.703  1.00  0.00     0.374 C 
HETATM    5  C   UNL     1      37.549 -11.098   0.649  1.00  0.00     0.250 C 
HETATM    6  O   UNL     1      36.848 -10.093   0.848  1.00  0.00    -0.271 OA
HETATM    7  N   UNL     1      38.265 -11.539   1.707  1.00  0.00    -0.325 N 
HETATM    8  C   UNL     1      39.200 -12.562   1.895  1.00  0.00     0.044 A 
HETATM    9  C   UNL     1      39.868 -13.270   0.882  1.00  0.00     0.012 A 
HETATM   10  C   UNL     1      39.479 -12.844   3.244  1.00  0.00     0.031 A 
HETATM   11  C   UNL     1      40.356 -13.863   3.612  1.00  0.00     0.014 A 
HETATM   12  C   UNL     1      40.995 -14.632   2.641  1.00  0.00    -0.025 A 
HETATM   13  C   UNL     1      40.755 -14.303   1.293  1.00  0.00     0.024 A 
HETATM   14  H   UNL     1      37.840 -13.760  -0.386  1.00  0.00     0.318 HD
HETATM   15  H   UNL     1      38.032 -10.987   2.525  1.00  0.00     0.169 HD
ENDROOT
BRANCH  12  16
HETATM   16  C   UNL     1      41.872 -15.759   3.018  1.00  0.00    -0.026 A 
HETATM   17  C   UNL     1      42.354 -16.651   2.040  1.00  0.00     0.015 A 
HETATM   18  C   UNL     1      43.194 -17.718   2.377  1.00  0.00     0.037 A 
HETATM   19  C   UNL     1      43.564 -17.900   3.702  1.00  0.00     0.065 A 
HETATM   20  C   UNL     1      43.107 -17.037   4.689  1.00  0.00     0.037 A 
HETATM   21  C   UNL     1      42.264 -15.974   4.349  1.00  0.00     0.015 A 
BRANCH  19  22
HETATM   22  O   UNL     1      44.383 -18.922   4.078  1.00  0.00    -0.361 OA
HETATM   23  H   UNL     1      45.189 -18.888   3.536  1.00  0.00     0.217 HD
ENDBRANCH  19  22
ENDBRANCH  12  16
BRANCH   2  24
HETATM   24  C   UNL     1      40.387 -11.608  -1.053  1.00  0.00    -0.016 A 
HETATM   25  C   UNL     1      41.153 -10.825  -0.171  1.00  0.00     0.010 A 
HETATM   26  C   UNL     1      41.765  -9.639  -0.595  1.00  0.00     0.001 A 
HETATM   27  C   UNL     1      41.639  -9.217  -1.915  1.00  0.00     0.000 A 
HETATM   28  C   UNL     1      40.910  -9.985  -2.816  1.00  0.00     0.001 A 
HETATM   29  C   UNL     1      40.303 -11.170  -2.393  1.00  0.00     0.010 A 
ENDBRANCH   2  24
TORSDOF 3
ENDMDL
MODEL 7
REMARK VINA RESULT:      -7.9      2.959      5.911
REMARK  3 active torsions:
REMARK  status: ('A' for Active; 'I' for Inactive)
REMARK    1  A    between atoms: C_2  and  C_3 
REMARK    2  A    between atoms: C_18  and  C_19 
REMARK    3  A    between atoms: C_22  and  O_23 
ROOT
HETATM    1  C   UNL     1      40.519 -12.788   5.318  1.00  0.00     0.060 C 
HETATM    2  C   UNL     1      41.764 -13.727   5.314  1.00  0.00     0.210 C 
HETATM    3  N   UNL     1      41.369 -14.774   6.276  1.00  0.00     0.110 N 
HETATM    4  C   UNL     1      42.448 -15.479   6.958  1.00  0.00     0.374 C 
HETATM    5  C   UNL     1      43.544 -16.114   6.126  1.00  0.00     0.250 C 
HETATM    6  O   UNL     1      44.433 -16.757   6.705  1.00  0.00    -0.271 OA
HETATM    7  N   UNL     1      43.601 -16.109   4.776  1.00  0.00    -0.325 N 
HETATM    8  C   UNL     1      42.861 -15.479   3.770  1.00  0.00     0.044 A 
HETATM    9  C   UNL     1      41.971 -14.407   3.944  1.00  0.00     0.012 A 
HETATM   10  C   UNL     1      43.095 -15.989   2.480  1.00  0.00     0.031 A 
HETATM   11  C   UNL     1      42.410 -15.505   1.367  1.00  0.00     0.014 A 
HETATM   12  C   UNL     1      41.472 -14.484   1.501  1.00  0.00    -0.025 A 
HETATM   13  C   UNL     1      41.289 -13.938   2.787  1.00  0.00     0.024 A 
HETATM   14  H   UNL     1      40.771 -15.447   5.797  1.00  0.00     0.318 HD
HETATM   15  H   UNL     1      44.351 -16.718   4.468  1.00  0.00     0.169 HD
ENDROOT
BRANCH  12  16
HETATM   16  C   UNL     1      40.690 -14.010   0.342  1.00  0.00    -0.026 A 
HETATM   17  C   UNL     1      40.756 -12.664  -0.067  1.00  0.00     0.015 A 
HETATM   18  C   UNL     1      40.030 -12.200  -1.169  1.00  0.00     0.037 A 
HETATM   19  C   UNL     1      39.230 -13.086  -1.878  1.00  0.00     0.065 A 
HETATM   20  C   UNL     1      39.145 -14.419  -1.502  1.00  0.00     0.037 A 
HETATM   21  C   UNL     1      39.869 -14.878  -0.397  1.00  0.00     0.015 A 
BRANCH  19  22
HETATM   22  O   UNL     1      38.508 -12.681  -2.961  1.00  0.00    -0.361 OA
HETATM   23  H   UNL     1      39.099 -12.206  -3.568  1.00  0.00     0.217 HD
ENDBRANCH  19  22
ENDBRANCH  12  16
BRANCH   2  24
HETATM   24  C   UNL     1      42.949 -12.837   5.776  1.00  0.00    -0.016 A 
HETATM   25  C   UNL     1      43.238 -12.606   7.133  1.00  0.00     0.010 A 
HETATM   26  C   UNL     1      44.311 -11.795   7.521  1.00  0.00     0.001 A 
HETATM   27  C   UNL     1      45.131 -11.209   6.561  1.00  0.00     0.000 A 
HETATM   28  C   UNL     1      44.887 -11.442   5.212  1.00  0.00     0.001 A 
HETATM   29  C   UNL     1      43.818 -12.255   4.826  1.00  0.00     0.010 A 
ENDBRANCH   2  24
TORSDOF 3
ENDMDL
MODEL 8
REMARK VINA RESULT:      -7.7      3.661      6.591
REMARK  3 active torsions:
REMARK  status: ('A' for Active; 'I' for Inactive)
REMARK    1  A    between atoms: C_2  and  C_3 
REMARK    2  A    between atoms: C_18  and  C_19 
REMARK    3  A    between atoms: C_22  and  O_23 
ROOT
HETATM    1  C   UNL     1      39.503 -11.982   4.542  1.00  0.00     0.060 C 
HETATM    2  C   UNL     1      40.519 -13.161   4.434  1.00  0.00     0.210 C 
HETATM    3  N   UNL     1      39.988 -14.122   5.419  1.00  0.00     0.110 N 
HETATM    4  C   UNL     1      40.945 -15.052   6.008  1.00  0.00     0.374 C 
HETATM    5  C   UNL     1      41.815 -15.884   5.088  1.00  0.00     0.250 C 
HETATM    6  O   UNL     1      42.591 -16.711   5.590  1.00  0.00    -0.271 OA
HETATM    7  N   UNL     1      41.766 -15.862   3.737  1.00  0.00    -0.325 N 
HETATM    8  C   UNL     1      41.099 -15.069   2.797  1.00  0.00     0.044 A 
HETATM    9  C   UNL     1      40.471 -13.839   3.048  1.00  0.00     0.012 A 
HETATM   10  C   UNL     1      41.120 -15.589   1.491  1.00  0.00     0.031 A 
HETATM   11  C   UNL     1      40.467 -14.949   0.439  1.00  0.00     0.014 A 
HETATM   12  C   UNL     1      39.778 -13.757   0.653  1.00  0.00    -0.025 A 
HETATM   13  C   UNL     1      39.814 -13.213   1.952  1.00  0.00     0.024 A 
HETATM   14  H   UNL     1      39.227 -14.645   4.987  1.00  0.00     0.318 HD
HETATM   15  H   UNL     1      42.345 -16.607   3.367  1.00  0.00     0.169 HD
ENDROOT
BRANCH  12  16
HETATM   16  C   UNL     1      39.025 -13.105  -0.437  1.00  0.00    -0.026 A 
HETATM   17  C   UNL     1      38.836 -13.759  -1.670  1.00  0.00     0.015 A 
HETATM   18  C   UNL     1      38.116 -13.161  -2.709  1.00  0.00     0.037 A 
HETATM   19  C   UNL     1      37.573 -11.897  -2.522  1.00  0.00     0.065 A 
HETATM   20  C   UNL     1      37.740 -11.227  -1.318  1.00  0.00     0.037 A 
HETATM   21  C   UNL     1      38.464 -11.827  -0.283  1.00  0.00     0.015 A 
BRANCH  19  22
HETATM   22  O   UNL     1      36.861 -11.277  -3.504  1.00  0.00    -0.361 OA
HETATM   23  H   UNL     1      37.412 -10.578  -3.893  1.00  0.00     0.217 HD
ENDBRANCH  19  22
ENDBRANCH  12  16
BRANCH   2  24
HETATM   24  C   UNL     1      41.897 -12.549   4.802  1.00  0.00    -0.016 A 
HETATM   25  C   UNL     1      42.905 -12.324   3.847  1.00  0.00     0.010 A 
HETATM   26  C   UNL     1      44.140 -11.774   4.208  1.00  0.00     0.001 A 
HETATM   27  C   UNL     1      44.392 -11.421   5.530  1.00  0.00     0.000 A 
HETATM   28  C   UNL     1      43.405 -11.606   6.492  1.00  0.00     0.001 A 
HETATM   29  C   UNL     1      42.171 -12.151   6.129  1.00  0.00     0.010 A 
ENDBRANCH   2  24
TORSDOF 3
ENDMDL
MODEL 9
REMARK VINA RESULT:      -7.5      3.309      7.178
REMARK  3 active torsions:
REMARK  status: ('A' for Active; 'I' for Inactive)
REMARK    1  A    between atoms: C_2  and  C_3 
REMARK    2  A    between atoms: C_18  and  C_19 
REMARK    3  A    between atoms: C_22  and  O_23 
ROOT
HETATM    1  C   UNL     1      43.879 -12.829   3.018  1.00  0.00     0.060 C 
HETATM    2  C   UNL     1      42.555 -13.401   3.611  1.00  0.00     0.210 C 
HETATM    3  N   UNL     1      42.499 -12.752   4.935  1.00  0.00     0.110 N 
HETATM    4  C   UNL     1      41.754 -13.450   5.976  1.00  0.00     0.374 C 
HETATM    5  C   UNL     1      40.327 -13.872   5.694  1.00  0.00     0.250 C 
HETATM    6  O   UNL     1      39.678 -14.419   6.598  1.00  0.00    -0.271 OA
HETATM    7  N   UNL     1      39.655 -13.631   4.545  1.00  0.00    -0.325 N 
HETATM    8  C   UNL     1      40.011 -13.111   3.297  1.00  0.00     0.044 A 
HETATM    9  C   UNL     1      41.317 -12.939   2.813  1.00  0.00     0.012 A 
HETATM   10  C   UNL     1      38.915 -12.775   2.483  1.00  0.00     0.031 A 
HETATM   11  C   UNL     1      39.088 -12.203   1.223  1.00  0.00     0.014 A 
HETATM   12  C   UNL     1      40.367 -11.958   0.726  1.00  0.00    -0.025 A 
HETATM   13  C   UNL     1      41.458 -12.354   1.524  1.00  0.00     0.024 A 
HETATM   14  H   UNL     1      42.124 -11.811   4.821  1.00  0.00     0.318 HD
HETATM   15  H   UNL     1      38.682 -13.889   4.665  1.00  0.00     0.169 HD
ENDROOT
BRANCH  12  16
HETATM   16  C   UNL     1      40.563 -11.290  -0.576  1.00  0.00    -0.026 A 
HETATM   17  C   UNL     1      41.260 -10.069  -0.659  1.00  0.00     0.015 A 
HETATM   18  C   UNL     1      41.465  -9.428  -1.885  1.00  0.00     0.037 A 
HETATM   19  C   UNL     1      40.974 -10.008  -3.047  1.00  0.00     0.065 A 
HETATM   20  C   UNL     1      40.285 -11.212  -2.999  1.00  0.00     0.037 A 
HETATM   21  C   UNL     1      40.079 -11.848  -1.770  1.00  0.00     0.015 A 
BRANCH  19  22
HETATM   22  O   UNL     1      41.153  -9.423  -4.264  1.00  0.00    -0.361 OA
HETATM   23  H   UNL     1      40.856 -10.041  -4.952  1.00  0.00     0.217 HD
ENDBRANCH  19  22
ENDBRANCH  12  16
BRANCH   2  24
HETATM   24  C   UNL     1      42.756 -14.940   3.652  1.00  0.00    -0.016 A 
HETATM   25  C   UNL     1      43.446 -15.586   4.694  1.00  0.00     0.010 A 
HETATM   26  C   UNL     1      43.616 -16.975   4.703  1.00  0.00     0.001 A 
HETATM   27  C   UNL     1      43.088 -17.754   3.678  1.00  0.00     0.000 A 
HETATM   28  C   UNL     1      42.377 -17.147   2.649  1.00  0.00     0.001 A 
HETATM   29  C   UNL     1      42.204 -15.760   2.643  1.00  0.00     0.010 A 
ENDBRANCH   2  24
TORSDOF 3
ENDMDL
MODEL 10
REMARK VINA RESULT:      -7.5     15.101     17.336
REMARK  3 active torsions:
REMARK  status: ('A' for Active; 'I' for Inactive)
REMARK    1  A    between atoms: C_2  and  C_3 
REMARK    2  A    between atoms: C_18  and  C_19 
REMARK    3  A    between atoms: C_22  and  O_23 
ROOT
HETATM    1  C   UNL     1      45.154 -32.607  -0.171  1.00  0.00     0.060 C 
HETATM    2  C   UNL     1      45.384 -31.103   0.172  1.00  0.00     0.210 C 
HETATM    3  N   UNL     1      46.654 -31.144   0.921  1.00  0.00     0.110 N 
HETATM    4  C   UNL     1      46.888 -30.065   1.873  1.00  0.00     0.374 C 
HETATM    5  C   UNL     1      46.769 -28.633   1.396  1.00  0.00     0.250 C 
HETATM    6  O   UNL     1      47.020 -27.716   2.194  1.00  0.00    -0.271 OA
HETATM    7  N   UNL     1      46.483 -28.253   0.130  1.00  0.00    -0.325 N 
HETATM    8  C   UNL     1      46.094 -28.933  -1.029  1.00  0.00     0.044 A 
HETATM    9  C   UNL     1      45.616 -30.251  -1.094  1.00  0.00     0.012 A 
HETATM   10  C   UNL     1      46.182 -28.163  -2.202  1.00  0.00     0.031 A 
HETATM   11  C   UNL     1      45.874 -28.698  -3.452  1.00  0.00     0.014 A 
HETATM   12  C   UNL     1      45.454 -30.021  -3.572  1.00  0.00    -0.025 A 
HETATM   13  C   UNL     1      45.311 -30.765  -2.385  1.00  0.00     0.024 A 
HETATM   14  H   UNL     1      47.425 -31.183   0.254  1.00  0.00     0.318 HD
HETATM   15  H   UNL     1      46.602 -27.250   0.045  1.00  0.00     0.169 HD
ENDROOT
BRANCH  12  16
HETATM   16  C   UNL     1      45.191 -30.619  -4.896  1.00  0.00    -0.026 A 
HETATM   17  C   UNL     1      46.141 -31.462  -5.505  1.00  0.00     0.015 A 
HETATM   18  C   UNL     1      45.904 -32.046  -6.753  1.00  0.00     0.037 A 
HETATM   19  C   UNL     1      44.706 -31.794  -7.407  1.00  0.00     0.065 A 
HETATM   20  C   UNL     1      43.748 -30.969  -6.833  1.00  0.00     0.037 A 
HETATM   21  C   UNL     1      43.991 -30.384  -5.586  1.00  0.00     0.015 A 
BRANCH  19  22
HETATM   22  O   UNL     1      44.429 -32.343  -8.622  1.00  0.00    -0.361 OA
HETATM   23  H   UNL     1      43.843 -31.741  -9.109  1.00  0.00     0.217 HD
ENDBRANCH  19  22
ENDBRANCH  12  16
BRANCH   2  24
HETATM   24  C   UNL     1      44.149 -30.682   1.012  1.00  0.00    -0.016 A 
HETATM   25  C   UNL     1      43.291 -29.636   0.625  1.00  0.00     0.010 A 
HETATM   26  C   UNL     1      42.186 -29.274   1.405  1.00  0.00     0.001 A 
HETATM   27  C   UNL     1      41.904 -29.959   2.583  1.00  0.00     0.000 A 
HETATM   28  C   UNL     1      42.718 -31.015   2.977  1.00  0.00     0.001 A 
HETATM   29  C   UNL     1      43.818 -31.378   2.196  1.00  0.00     0.010 A 
ENDBRANCH   2  24
TORSDOF 3
ENDMDL
