MODEL 1
REMARK VINA RESULT:      -7.6      0.000      0.000
REMARK  5 active torsions:
REMARK  status: ('A' for Active; 'I' for Inactive)
REMARK    1  A    between atoms: C_6  and  N_7 
REMARK       I    between atoms: N_7  and  C_8 
REMARK    2  A    between atoms: C_8  and  C_9 
REMARK    3  A    between atoms: C_9  and  O_10 
REMARK    4  A    between atoms: O_10  and  C_11 
REMARK    5  A    between atoms: C_19  and  C_20 
ROOT
HETATM    1  C   UNL     1      43.507 -19.880   1.801  1.00  0.00     0.073 C 
HETATM    2  C   UNL     1      43.636 -19.173   3.100  1.00  0.00     0.065 A 
HETATM    3  N   UNL     1      44.237 -19.780   4.132  1.00  0.00    -0.177 NA
HETATM    4  N   UNL     1      44.198 -18.861   5.112  1.00  0.00    -0.262 N 
HETATM    5  H   UNL     1      44.601 -19.078   6.020  1.00  0.00     0.191 HD
HETATM    6  C   UNL     1      43.574 -17.693   4.756  1.00  0.00     0.137 A 
HETATM    7  C   UNL     1      43.203 -17.858   3.437  1.00  0.00     0.046 A 
ENDROOT
BRANCH   6   8
HETATM    8  N   UNL     1      43.394 -16.626   5.619  1.00  0.00    -0.309 N 
HETATM    9  C   UNL     1      42.152 -16.297   6.136  1.00  0.00     0.252 C 
HETATM   10  O   UNL     1      41.109 -16.902   5.886  1.00  0.00    -0.270 OA
HETATM   11  H   UNL     1      44.191 -16.036   5.835  1.00  0.00     0.170 HD
BRANCH   9  12
HETATM   12  C   UNL     1      42.186 -15.122   7.125  1.00  0.00     0.217 C 
HETATM   13  C   UNL     1      43.197 -15.428   8.227  1.00  0.00     0.050 C 
BRANCH  12  14
HETATM   14  O   UNL     1      42.603 -13.909   6.500  1.00  0.00    -0.337 OA
BRANCH  14  15
HETATM   15  C   UNL     1      41.763 -13.359   5.570  1.00  0.00     0.070 A 
HETATM   16  C   UNL     1      42.394 -12.910   4.407  1.00  0.00     0.037 A 
HETATM   17  C   UNL     1      41.654 -12.325   3.378  1.00  0.00     0.003 A 
HETATM   18  C   UNL     1      40.273 -12.197   3.502  1.00  0.00     0.000 A 
HETATM   19  C   UNL     1      39.635 -12.658   4.653  1.00  0.00     0.003 A 
HETATM   20  C   UNL     1      40.377 -13.240   5.685  1.00  0.00     0.037 A 
ENDBRANCH  14  15
ENDBRANCH  12  14
ENDBRANCH   9  12
ENDBRANCH   6   8
BRANCH   7  21
HETATM   21  C   UNL     1      42.542 -16.856   2.624  1.00  0.00    -0.020 A 
HETATM   22  C   UNL     1      43.295 -15.930   1.889  1.00  0.00     0.014 A 
HETATM   23  C   UNL     1      42.657 -14.978   1.089  1.00  0.00     0.020 A 
HETATM   24  C   UNL     1      41.265 -14.956   1.020  1.00  0.00     0.011 A 
HETATM   25 BR   UNL     1      40.402 -13.674  -0.068  1.00  0.00    -0.051 Br
HETATM   26  C   UNL     1      40.506 -15.874   1.744  1.00  0.00     0.020 A 
HETATM   27  C   UNL     1      41.145 -16.823   2.545  1.00  0.00     0.014 A 
ENDBRANCH   7  21
TORSDOF 5
ENDMDL
MODEL 2
REMARK VINA RESULT:      -7.6      3.142      5.066
REMARK  5 active torsions:
REMARK  status: ('A' for Active; 'I' for Inactive)
REMARK    1  A    between atoms: C_6  and  N_7 
REMARK       I    between atoms: N_7  and  C_8 
REMARK    2  A    between atoms: C_8  and  C_9 
REMARK    3  A    between atoms: C_9  and  O_10 
REMARK    4  A    between atoms: O_10  and  C_11 
REMARK    5  A    between atoms: C_19  and  C_20 
ROOT
HETATM    1  C   UNL     1      40.690 -12.392   0.118  1.00  0.00     0.073 C 
HETATM    2  C   UNL     1      41.497 -12.023   1.308  1.00  0.00     0.065 A 
HETATM    3  N   UNL     1      41.609 -10.737   1.664  1.00  0.00    -0.177 NA
HETATM    4  N   UNL     1      42.371 -10.776   2.771  1.00  0.00    -0.262 N 
HETATM    5  H   UNL     1      42.605  -9.910   3.249  1.00  0.00     0.191 HD
HETATM    6  C   UNL     1      42.773 -12.038   3.127  1.00  0.00     0.137 A 
HETATM    7  C   UNL     1      42.207 -12.884   2.194  1.00  0.00     0.046 A 
ENDROOT
BRANCH   6   8
HETATM    8  N   UNL     1      43.589 -12.306   4.211  1.00  0.00    -0.309 N 
HETATM    9  C   UNL     1      43.212 -12.010   5.510  1.00  0.00     0.252 C 
HETATM   10  O   UNL     1      42.141 -11.489   5.824  1.00  0.00    -0.270 OA
HETATM   11  H   UNL     1      44.517 -12.683   4.040  1.00  0.00     0.170 HD
BRANCH   9  12
HETATM   12  C   UNL     1      44.235 -12.451   6.568  1.00  0.00     0.217 C 
HETATM   13  C   UNL     1      44.657 -11.235   7.390  1.00  0.00     0.050 C 
BRANCH  12  14
HETATM   14  O   UNL     1      43.686 -13.401   7.480  1.00  0.00    -0.337 OA
BRANCH  14  15
HETATM   15  C   UNL     1      43.295 -14.609   6.970  1.00  0.00     0.070 A 
HETATM   16  C   UNL     1      44.334 -15.391   6.459  1.00  0.00     0.037 A 
HETATM   17  C   UNL     1      44.073 -16.646   5.904  1.00  0.00     0.003 A 
HETATM   18  C   UNL     1      42.770 -17.131   5.870  1.00  0.00     0.000 A 
HETATM   19  C   UNL     1      41.730 -16.364   6.392  1.00  0.00     0.003 A 
HETATM   20  C   UNL     1      41.991 -15.106   6.944  1.00  0.00     0.037 A 
ENDBRANCH  14  15
ENDBRANCH  12  14
ENDBRANCH   9  12
ENDBRANCH   6   8
BRANCH   7  21
HETATM   21  C   UNL     1      42.330 -14.329   2.195  1.00  0.00    -0.020 A 
HETATM   22  C   UNL     1      43.523 -14.938   1.781  1.00  0.00     0.014 A 
HETATM   23  C   UNL     1      43.649 -16.329   1.801  1.00  0.00     0.020 A 
HETATM   24  C   UNL     1      42.583 -17.112   2.241  1.00  0.00     0.011 A 
HETATM   25 BR   UNL     1      42.755 -18.994   2.278  1.00  0.00    -0.051 Br
HETATM   26  C   UNL     1      41.393 -16.517   2.659  1.00  0.00     0.020 A 
HETATM   27  C   UNL     1      41.268 -15.126   2.635  1.00  0.00     0.014 A 
ENDBRANCH   7  21
TORSDOF 5
ENDMDL
MODEL 3
REMARK VINA RESULT:      -7.4      3.279      5.305
REMARK  5 active torsions:
REMARK  status: ('A' for Active; 'I' for Inactive)
REMARK    1  A    between atoms: C_6  and  N_7 
REMARK       I    between atoms: N_7  and  C_8 
REMARK    2  A    between atoms: C_8  and  C_9 
REMARK    3  A    between atoms: C_9  and  O_10 
REMARK    4  A    between atoms: O_10  and  C_11 
REMARK    5  A    between atoms: C_19  and  C_20 
ROOT
HETATM    1  C   UNL     1      40.156 -13.890  -1.404  1.00  0.00     0.073 C 
HETATM    2  C   UNL     1      39.708 -13.368  -0.089  1.00  0.00     0.065 A 
HETATM    3  N   UNL     1      38.809 -12.376  -0.037  1.00  0.00    -0.177 NA
HETATM    4  N   UNL     1      38.623 -12.180   1.279  1.00  0.00    -0.262 N 
HETATM    5  H   UNL     1      37.970 -11.466   1.593  1.00  0.00     0.191 HD
HETATM    6  C   UNL     1      39.385 -12.993   2.078  1.00  0.00     0.137 A 
HETATM    7  C   UNL     1      40.101 -13.796   1.212  1.00  0.00     0.046 A 
ENDROOT
BRANCH   6   8
HETATM    8  N   UNL     1      39.375 -12.939   3.460  1.00  0.00    -0.309 N 
HETATM    9  C   UNL     1      40.379 -12.315   4.182  1.00  0.00     0.252 C 
HETATM   10  O   UNL     1      41.359 -11.762   3.680  1.00  0.00    -0.270 OA
HETATM   11  H   UNL     1      38.634 -13.419   3.960  1.00  0.00     0.170 HD
BRANCH   9  12
HETATM   12  C   UNL     1      40.139 -12.310   5.699  1.00  0.00     0.217 C 
HETATM   13  C   UNL     1      38.849 -11.550   5.997  1.00  0.00     0.050 C 
BRANCH  12  14
HETATM   14  O   UNL     1      39.977 -13.629   6.219  1.00  0.00    -0.337 OA
BRANCH  14  15
HETATM   15  C   UNL     1      41.078 -14.441   6.229  1.00  0.00     0.070 A 
HETATM   16  C   UNL     1      40.816 -15.785   5.949  1.00  0.00     0.037 A 
HETATM   17  C   UNL     1      41.851 -16.722   5.932  1.00  0.00     0.003 A 
HETATM   18  C   UNL     1      43.158 -16.317   6.181  1.00  0.00     0.000 A 
HETATM   19  C   UNL     1      43.430 -14.975   6.445  1.00  0.00     0.003 A 
HETATM   20  C   UNL     1      42.394 -14.037   6.466  1.00  0.00     0.037 A 
ENDBRANCH  14  15
ENDBRANCH  12  14
ENDBRANCH   9  12
ENDBRANCH   6   8
BRANCH   7  21
HETATM   21  C   UNL     1      41.018 -14.845   1.613  1.00  0.00    -0.020 A 
HETATM   22  C   UNL     1      42.397 -14.597   1.668  1.00  0.00     0.014 A 
HETATM   23  C   UNL     1      43.279 -15.601   2.075  1.00  0.00     0.020 A 
HETATM   24  C   UNL     1      42.782 -16.854   2.431  1.00  0.00     0.011 A 
HETATM   25 BR   UNL     1      43.973 -18.210   2.989  1.00  0.00    -0.051 Br
HETATM   26  C   UNL     1      41.412 -17.111   2.383  1.00  0.00     0.020 A 
HETATM   27  C   UNL     1      40.532 -16.107   1.974  1.00  0.00     0.014 A 
ENDBRANCH   7  21
TORSDOF 5
ENDMDL
MODEL 4
REMARK VINA RESULT:      -7.2      3.264      5.621
REMARK  5 active torsions:
REMARK  status: ('A' for Active; 'I' for Inactive)
REMARK    1  A    between atoms: C_6  and  N_7 
REMARK       I    between atoms: N_7  and  C_8 
REMARK    2  A    between atoms: C_8  and  C_9 
REMARK    3  A    between atoms: C_9  and  O_10 
REMARK    4  A    between atoms: O_10  and  C_11 
REMARK    5  A    between atoms: C_19  and  C_20 
ROOT
HETATM    1  C   UNL     1      40.954 -11.026   0.175  1.00  0.00     0.073 C 
HETATM    2  C   UNL     1      40.972 -12.495   0.382  1.00  0.00     0.065 A 
HETATM    3  N   UNL     1      40.619 -13.314  -0.618  1.00  0.00    -0.177 NA
HETATM    4  N   UNL     1      40.774 -14.543  -0.097  1.00  0.00    -0.262 N 
HETATM    5  H   UNL     1      40.570 -15.359  -0.668  1.00  0.00     0.191 HD
HETATM    6  C   UNL     1      41.191 -14.546   1.209  1.00  0.00     0.137 A 
HETATM    7  C   UNL     1      41.343 -13.218   1.553  1.00  0.00     0.046 A 
ENDROOT
BRANCH   6   8
HETATM    8  N   UNL     1      41.382 -15.698   1.951  1.00  0.00    -0.309 N 
HETATM    9  C   UNL     1      42.599 -16.357   1.992  1.00  0.00     0.252 C 
HETATM   10  O   UNL     1      43.609 -15.995   1.387  1.00  0.00    -0.270 OA
HETATM   11  H   UNL     1      40.586 -16.101   2.437  1.00  0.00     0.170 HD
BRANCH   9  12
HETATM   12  C   UNL     1      42.613 -17.575   2.928  1.00  0.00     0.217 C 
HETATM   13  C   UNL     1      43.107 -18.793   2.152  1.00  0.00     0.050 C 
BRANCH  12  14
HETATM   14  O   UNL     1      43.502 -17.392   4.030  1.00  0.00    -0.337 OA
BRANCH  14  15
HETATM   15  C   UNL     1      43.061 -16.624   5.073  1.00  0.00     0.070 A 
HETATM   16  C   UNL     1      44.049 -15.849   5.686  1.00  0.00     0.037 A 
HETATM   17  C   UNL     1      43.736 -15.021   6.766  1.00  0.00     0.003 A 
HETATM   18  C   UNL     1      42.426 -14.954   7.231  1.00  0.00     0.000 A 
HETATM   19  C   UNL     1      41.431 -15.711   6.614  1.00  0.00     0.003 A 
HETATM   20  C   UNL     1      41.746 -16.542   5.535  1.00  0.00     0.037 A 
ENDBRANCH  14  15
ENDBRANCH  12  14
ENDBRANCH   9  12
ENDBRANCH   6   8
BRANCH   7  21
HETATM   21  C   UNL     1      41.809 -12.736   2.839  1.00  0.00    -0.020 A 
HETATM   22  C   UNL     1      43.173 -12.492   3.051  1.00  0.00     0.014 A 
HETATM   23  C   UNL     1      43.620 -12.008   4.284  1.00  0.00     0.020 A 
HETATM   24  C   UNL     1      42.701 -11.762   5.303  1.00  0.00     0.011 A 
HETATM   25 BR   UNL     1      43.303 -11.099   6.967  1.00  0.00    -0.051 Br
HETATM   26  C   UNL     1      41.342 -11.998   5.101  1.00  0.00     0.020 A 
HETATM   27  C   UNL     1      40.897 -12.484   3.870  1.00  0.00     0.014 A 
ENDBRANCH   7  21
TORSDOF 5
ENDMDL
MODEL 5
REMARK VINA RESULT:      -7.2     14.608     15.557
REMARK  5 active torsions:
REMARK  status: ('A' for Active; 'I' for Inactive)
REMARK    1  A    between atoms: C_6  and  N_7 
REMARK       I    between atoms: N_7  and  C_8 
REMARK    2  A    between atoms: C_8  and  C_9 
REMARK    3  A    between atoms: C_9  and  O_10 
REMARK    4  A    between atoms: O_10  and  C_11 
REMARK    5  A    between atoms: C_19  and  C_20 
ROOT
HETATM    1  C   UNL     1      40.912 -31.559   1.466  1.00  0.00     0.073 C 
HETATM    2  C   UNL     1      42.120 -30.934   2.062  1.00  0.00     0.065 A 
HETATM    3  N   UNL     1      42.204 -30.781   3.390  1.00  0.00    -0.177 NA
HETATM    4  N   UNL     1      43.412 -30.221   3.573  1.00  0.00    -0.262 N 
HETATM    5  H   UNL     1      43.726 -30.001   4.514  1.00  0.00     0.191 HD
HETATM    6  C   UNL     1      44.099 -29.986   2.409  1.00  0.00     0.137 A 
HETATM    7  C   UNL     1      43.285 -30.454   1.397  1.00  0.00     0.046 A 
ENDROOT
BRANCH   6   8
HETATM    8  N   UNL     1      45.345 -29.387   2.362  1.00  0.00    -0.309 N 
HETATM    9  C   UNL     1      46.466 -29.966   2.932  1.00  0.00     0.252 C 
HETATM   10  O   UNL     1      46.467 -31.045   3.527  1.00  0.00    -0.270 OA
HETATM   11  H   UNL     1      45.426 -28.466   1.940  1.00  0.00     0.170 HD
BRANCH   9  12
HETATM   12  C   UNL     1      47.759 -29.168   2.706  1.00  0.00     0.217 C 
HETATM   13  C   UNL     1      48.614 -29.239   3.969  1.00  0.00     0.050 C 
BRANCH  12  14
HETATM   14  O   UNL     1      48.541 -29.709   1.641  1.00  0.00    -0.337 OA
BRANCH  14  15
HETATM   15  C   UNL     1      48.200 -29.350   0.365  1.00  0.00     0.070 A 
HETATM   16  C   UNL     1      48.346 -30.364  -0.585  1.00  0.00     0.037 A 
HETATM   17  C   UNL     1      48.037 -30.130  -1.927  1.00  0.00     0.003 A 
HETATM   18  C   UNL     1      47.565 -28.883  -2.323  1.00  0.00     0.000 A 
HETATM   19  C   UNL     1      47.400 -27.871  -1.377  1.00  0.00     0.003 A 
HETATM   20  C   UNL     1      47.714 -28.104  -0.035  1.00  0.00     0.037 A 
ENDBRANCH  14  15
ENDBRANCH  12  14
ENDBRANCH   9  12
ENDBRANCH   6   8
BRANCH   7  21
HETATM   21  C   UNL     1      43.620 -30.449  -0.013  1.00  0.00    -0.020 A 
HETATM   22  C   UNL     1      43.686 -29.241  -0.721  1.00  0.00     0.014 A 
HETATM   23  C   UNL     1      44.030 -29.234  -2.075  1.00  0.00     0.020 A 
HETATM   24  C   UNL     1      44.313 -30.437  -2.721  1.00  0.00     0.011 A 
HETATM   25 BR   UNL     1      44.787 -30.428  -4.551  1.00  0.00    -0.051 Br
HETATM   26  C   UNL     1      44.254 -31.644  -2.027  1.00  0.00     0.020 A 
HETATM   27  C   UNL     1      43.908 -31.649  -0.673  1.00  0.00     0.014 A 
ENDBRANCH   7  21
TORSDOF 5
ENDMDL
MODEL 6
REMARK VINA RESULT:      -7.1      2.633      6.367
REMARK  5 active torsions:
REMARK  status: ('A' for Active; 'I' for Inactive)
REMARK    1  A    between atoms: C_6  and  N_7 
REMARK       I    between atoms: N_7  and  C_8 
REMARK    2  A    between atoms: C_8  and  C_9 
REMARK    3  A    between atoms: C_9  and  O_10 
REMARK    4  A    between atoms: O_10  and  C_11 
REMARK    5  A    between atoms: C_19  and  C_20 
ROOT
HETATM    1  C   UNL     1      38.708 -11.044   5.559  1.00  0.00     0.073 C 
HETATM    2  C   UNL     1      39.496 -12.294   5.415  1.00  0.00     0.065 A 
HETATM    3  N   UNL     1      39.465 -13.217   6.384  1.00  0.00    -0.177 NA
HETATM    4  N   UNL     1      40.254 -14.200   5.918  1.00  0.00    -0.262 N 
HETATM    5  H   UNL     1      40.397 -15.037   6.477  1.00  0.00     0.191 HD
HETATM    6  C   UNL     1      40.811 -13.933   4.693  1.00  0.00     0.137 A 
HETATM    7  C   UNL     1      40.325 -12.694   4.327  1.00  0.00     0.046 A 
ENDROOT
BRANCH   6   8
HETATM    8  N   UNL     1      41.680 -14.791   4.043  1.00  0.00    -0.309 N 
HETATM    9  C   UNL     1      41.264 -15.634   3.027  1.00  0.00     0.252 C 
HETATM   10  O   UNL     1      40.106 -15.708   2.612  1.00  0.00    -0.270 OA
HETATM   11  H   UNL     1      42.644 -14.838   4.359  1.00  0.00     0.170 HD
BRANCH   9  12
HETATM   12  C   UNL     1      42.400 -16.452   2.395  1.00  0.00     0.217 C 
HETATM   13  C   UNL     1      43.196 -15.553   1.453  1.00  0.00     0.050 C 
BRANCH  12  14
HETATM   14  O   UNL     1      43.315 -16.943   3.376  1.00  0.00    -0.337 OA
BRANCH  14  15
HETATM   15  C   UNL     1      43.518 -18.295   3.425  1.00  0.00     0.070 A 
HETATM   16  C   UNL     1      43.943 -18.777   4.666  1.00  0.00     0.037 A 
HETATM   17  C   UNL     1      44.192 -20.138   4.853  1.00  0.00     0.003 A 
HETATM   18  C   UNL     1      44.003 -21.028   3.800  1.00  0.00     0.000 A 
HETATM   19  C   UNL     1      43.562 -20.557   2.564  1.00  0.00     0.003 A 
HETATM   20  C   UNL     1      43.317 -19.194   2.376  1.00  0.00     0.037 A 
ENDBRANCH  14  15
ENDBRANCH  12  14
ENDBRANCH   9  12
ENDBRANCH   6   8
BRANCH   7  21
HETATM   21  C   UNL     1      40.617 -12.019   3.078  1.00  0.00    -0.020 A 
HETATM   22  C   UNL     1      39.764 -12.169   1.975  1.00  0.00     0.014 A 
HETATM   23  C   UNL     1      40.034 -11.501   0.778  1.00  0.00     0.020 A 
HETATM   24  C   UNL     1      41.155 -10.678   0.684  1.00  0.00     0.011 A 
HETATM   25 BR   UNL     1      41.517  -9.767  -0.932  1.00  0.00    -0.051 Br
HETATM   26  C   UNL     1      42.008 -10.518   1.775  1.00  0.00     0.020 A 
HETATM   27  C   UNL     1      41.739 -11.188   2.971  1.00  0.00     0.014 A 
ENDBRANCH   7  21
TORSDOF 5
ENDMDL
MODEL 7
REMARK VINA RESULT:      -7.1      2.101      2.972
REMARK  5 active torsions:
REMARK  status: ('A' for Active; 'I' for Inactive)
REMARK    1  A    between atoms: C_6  and  N_7 
REMARK       I    between atoms: N_7  and  C_8 
REMARK    2  A    between atoms: C_8  and  C_9 
REMARK    3  A    between atoms: C_9  and  O_10 
REMARK    4  A    between atoms: O_10  and  C_11 
REMARK    5  A    between atoms: C_19  and  C_20 
ROOT
HETATM    1  C   UNL     1      44.022 -18.324   4.352  1.00  0.00     0.073 C 
HETATM    2  C   UNL     1      43.835 -17.064   5.113  1.00  0.00     0.065 A 
HETATM    3  N   UNL     1      44.420 -16.914   6.309  1.00  0.00    -0.177 NA
HETATM    4  N   UNL     1      44.065 -15.676   6.688  1.00  0.00    -0.262 N 
HETATM    5  H   UNL     1      44.390 -15.310   7.580  1.00  0.00     0.191 HD
HETATM    6  C   UNL     1      43.252 -15.030   5.792  1.00  0.00     0.137 A 
HETATM    7  C   UNL     1      43.091 -15.908   4.739  1.00  0.00     0.046 A 
ENDROOT
BRANCH   6   8
HETATM    8  N   UNL     1      42.741 -13.760   5.996  1.00  0.00    -0.309 N 
HETATM    9  C   UNL     1      43.535 -12.700   6.397  1.00  0.00     0.252 C 
HETATM   10  O   UNL     1      44.746 -12.777   6.611  1.00  0.00    -0.270 OA
HETATM   11  H   UNL     1      41.740 -13.618   5.898  1.00  0.00     0.170 HD
BRANCH   9  12
HETATM   12  C   UNL     1      42.782 -11.365   6.498  1.00  0.00     0.217 C 
HETATM   13  C   UNL     1      43.424 -10.513   7.590  1.00  0.00     0.050 C 
BRANCH  12  14
HETATM   14  O   UNL     1      42.856 -10.616   5.285  1.00  0.00    -0.337 OA
BRANCH  14  15
HETATM   15  C   UNL     1      41.998 -10.964   4.278  1.00  0.00     0.070 A 
HETATM   16  C   UNL     1      42.592 -11.074   3.017  1.00  0.00     0.037 A 
HETATM   17  C   UNL     1      41.830 -11.419   1.900  1.00  0.00     0.003 A 
HETATM   18  C   UNL     1      40.468 -11.670   2.040  1.00  0.00     0.000 A 
HETATM   19  C   UNL     1      39.872 -11.578   3.297  1.00  0.00     0.003 A 
HETATM   20  C   UNL     1      40.634 -11.229   4.415  1.00  0.00     0.037 A 
ENDBRANCH  14  15
ENDBRANCH  12  14
ENDBRANCH   9  12
ENDBRANCH   6   8
BRANCH   7  21
HETATM   21  C   UNL     1      42.334 -15.635   3.533  1.00  0.00    -0.020 A 
HETATM   22  C   UNL     1      40.936 -15.743   3.534  1.00  0.00     0.014 A 
HETATM   23  C   UNL     1      40.205 -15.459   2.378  1.00  0.00     0.020 A 
HETATM   24  C   UNL     1      40.872 -15.062   1.220  1.00  0.00     0.011 A 
HETATM   25 BR   UNL     1      39.883 -14.670  -0.342  1.00  0.00    -0.051 Br
HETATM   26  C   UNL     1      42.261 -14.948   1.208  1.00  0.00     0.020 A 
HETATM   27  C   UNL     1      42.991 -15.234   2.364  1.00  0.00     0.014 A 
ENDBRANCH   7  21
TORSDOF 5
ENDMDL
MODEL 8
REMARK VINA RESULT:      -7.1      4.889      8.105
REMARK  5 active torsions:
REMARK  status: ('A' for Active; 'I' for Inactive)
REMARK    1  A    between atoms: C_6  and  N_7 
REMARK       I    between atoms: N_7  and  C_8 
REMARK    2  A    between atoms: C_8  and  C_9 
REMARK    3  A    between atoms: C_9  and  O_10 
REMARK    4  A    between atoms: O_10  and  C_11 
REMARK    5  A    between atoms: C_19  and  C_20 
ROOT
HETATM    1  C   UNL     1      46.520  -9.189   8.266  1.00  0.00     0.073 C 
HETATM    2  C   UNL     1      45.740 -10.324   7.711  1.00  0.00     0.065 A 
HETATM    3  N   UNL     1      46.224 -11.022   6.676  1.00  0.00    -0.177 NA
HETATM    4  N   UNL     1      45.291 -11.965   6.460  1.00  0.00    -0.262 N 
HETATM    5  H   UNL     1      45.424 -12.641   5.713  1.00  0.00     0.191 HD
HETATM    6  C   UNL     1      44.212 -11.885   7.304  1.00  0.00     0.137 A 
HETATM    7  C   UNL     1      44.480 -10.826   8.147  1.00  0.00     0.046 A 
ENDROOT
BRANCH   6   8
HETATM    8  N   UNL     1      43.122 -12.734   7.237  1.00  0.00    -0.309 N 
HETATM    9  C   UNL     1      42.620 -13.199   6.034  1.00  0.00     0.252 C 
HETATM   10  O   UNL     1      43.079 -12.910   4.928  1.00  0.00    -0.270 OA
HETATM   11  H   UNL     1      42.644 -12.979   8.099  1.00  0.00     0.170 HD
BRANCH   9  12
HETATM   12  C   UNL     1      41.450 -14.183   6.189  1.00  0.00     0.217 C 
HETATM   13  C   UNL     1      40.139 -13.400   6.190  1.00  0.00     0.050 C 
BRANCH  12  14
HETATM   14  O   UNL     1      41.383 -15.109   5.105  1.00  0.00    -0.337 OA
BRANCH  14  15
HETATM   15  C   UNL     1      42.226 -16.186   5.146  1.00  0.00     0.070 A 
HETATM   16  C   UNL     1      42.392 -16.751   6.413  1.00  0.00     0.037 A 
HETATM   17  C   UNL     1      43.229 -17.853   6.596  1.00  0.00     0.003 A 
HETATM   18  C   UNL     1      43.896 -18.406   5.507  1.00  0.00     0.000 A 
HETATM   19  C   UNL     1      43.722 -17.859   4.237  1.00  0.00     0.003 A 
HETATM   20  C   UNL     1      42.888 -16.753   4.054  1.00  0.00     0.037 A 
ENDBRANCH  14  15
ENDBRANCH  12  14
ENDBRANCH   9  12
ENDBRANCH   6   8
BRANCH   7  21
HETATM   21  C   UNL     1      43.627 -10.390   9.236  1.00  0.00    -0.020 A 
HETATM   22  C   UNL     1      43.945 -10.723  10.561  1.00  0.00     0.014 A 
HETATM   23  C   UNL     1      43.135 -10.286  11.612  1.00  0.00     0.020 A 
HETATM   24  C   UNL     1      42.010  -9.510  11.340  1.00  0.00     0.011 A 
HETATM   25 BR   UNL     1      40.919  -8.910  12.761  1.00  0.00    -0.051 Br
HETATM   26  C   UNL     1      41.686  -9.169  10.027  1.00  0.00     0.020 A 
HETATM   27  C   UNL     1      42.495  -9.610   8.977  1.00  0.00     0.014 A 
ENDBRANCH   7  21
TORSDOF 5
ENDMDL
MODEL 9
REMARK VINA RESULT:      -6.9      4.365      7.055
REMARK  5 active torsions:
REMARK  status: ('A' for Active; 'I' for Inactive)
REMARK    1  A    between atoms: C_6  and  N_7 
REMARK       I    between atoms: N_7  and  C_8 
REMARK    2  A    between atoms: C_8  and  C_9 
REMARK    3  A    between atoms: C_9  and  O_10 
REMARK    4  A    between atoms: O_10  and  C_11 
REMARK    5  A    between atoms: C_19  and  C_20 
ROOT
HETATM    1  C   UNL     1      44.318 -12.236   5.744  1.00  0.00     0.073 C 
HETATM    2  C   UNL     1      43.429 -11.793   4.642  1.00  0.00     0.065 A 
HETATM    3  N   UNL     1      43.099 -10.499   4.530  1.00  0.00    -0.177 NA
HETATM    4  N   UNL     1      42.324 -10.459   3.434  1.00  0.00    -0.262 N 
HETATM    5  H   UNL     1      41.938  -9.570   3.124  1.00  0.00     0.191 HD
HETATM    6  C   UNL     1      42.121 -11.682   2.848  1.00  0.00     0.137 A 
HETATM    7  C   UNL     1      42.844 -12.580   3.609  1.00  0.00     0.046 A 
ENDROOT
BRANCH   6   8
HETATM    8  N   UNL     1      41.330 -11.877   1.730  1.00  0.00    -0.309 N 
HETATM    9  C   UNL     1      41.329 -10.995   0.663  1.00  0.00     0.252 C 
HETATM   10  O   UNL     1      42.013  -9.972   0.603  1.00  0.00    -0.270 OA
HETATM   11  H   UNL     1      40.690 -12.665   1.719  1.00  0.00     0.170 HD
BRANCH   9  12
HETATM   12  C   UNL     1      40.430 -11.434  -0.502  1.00  0.00     0.217 C 
HETATM   13  C   UNL     1      41.239 -11.396  -1.797  1.00  0.00     0.050 C 
BRANCH  12  14
HETATM   14  O   UNL     1      39.962 -12.773  -0.342  1.00  0.00    -0.337 OA
BRANCH  14  15
HETATM   15  C   UNL     1      39.219 -13.305  -1.360  1.00  0.00     0.070 A 
HETATM   16  C   UNL     1      38.035 -12.618  -1.639  1.00  0.00     0.037 A 
HETATM   17  C   UNL     1      37.180 -13.057  -2.652  1.00  0.00     0.003 A 
HETATM   18  C   UNL     1      37.512 -14.181  -3.402  1.00  0.00     0.000 A 
HETATM   19  C   UNL     1      38.700 -14.862  -3.140  1.00  0.00     0.003 A 
HETATM   20  C   UNL     1      39.554 -14.425  -2.123  1.00  0.00     0.037 A 
ENDBRANCH  14  15
ENDBRANCH  12  14
ENDBRANCH   9  12
ENDBRANCH   6   8
BRANCH   7  21
HETATM   21  C   UNL     1      42.957 -14.000   3.339  1.00  0.00    -0.020 A 
HETATM   22  C   UNL     1      42.635 -14.937   4.331  1.00  0.00     0.014 A 
HETATM   23  C   UNL     1      42.723 -16.306   4.064  1.00  0.00     0.020 A 
HETATM   24  C   UNL     1      43.130 -16.739   2.803  1.00  0.00     0.011 A 
HETATM   25 BR   UNL     1      43.242 -18.589   2.439  1.00  0.00    -0.051 Br
HETATM   26  C   UNL     1      43.449 -15.816   1.808  1.00  0.00     0.020 A 
HETATM   27  C   UNL     1      43.363 -14.448   2.077  1.00  0.00     0.014 A 
ENDBRANCH   7  21
TORSDOF 5
ENDMDL
MODEL 10
REMARK VINA RESULT:      -6.8      2.560      6.564
REMARK  5 active torsions:
REMARK  status: ('A' for Active; 'I' for Inactive)
REMARK    1  A    between atoms: C_6  and  N_7 
REMARK       I    between atoms: N_7  and  C_8 
REMARK    2  A    between atoms: C_8  and  C_9 
REMARK    3  A    between atoms: C_9  and  O_10 
REMARK    4  A    between atoms: O_10  and  C_11 
REMARK    5  A    between atoms: C_19  and  C_20 
ROOT
HETATM    1  C   UNL     1      43.160  -9.612   7.519  1.00  0.00     0.073 C 
HETATM    2  C   UNL     1      43.351 -11.023   7.099  1.00  0.00     0.065 A 
HETATM    3  N   UNL     1      44.219 -11.803   7.755  1.00  0.00    -0.177 NA
HETATM    4  N   UNL     1      44.117 -12.991   7.135  1.00  0.00    -0.262 N 
HETATM    5  H   UNL     1      44.684 -13.773   7.453  1.00  0.00     0.191 HD
HETATM    6  C   UNL     1      43.231 -12.999   6.088  1.00  0.00     0.137 A 
HETATM    7  C   UNL     1      42.700 -11.725   6.043  1.00  0.00     0.046 A 
ENDROOT
BRANCH   6   8
HETATM    8  N   UNL     1      42.994 -14.105   5.292  1.00  0.00    -0.309 N 
HETATM    9  C   UNL     1      42.762 -15.362   5.824  1.00  0.00     0.252 C 
HETATM   10  O   UNL     1      42.746 -15.618   7.028  1.00  0.00    -0.270 OA
HETATM   11  H   UNL     1      43.046 -13.997   4.283  1.00  0.00     0.170 HD
BRANCH   9  12
HETATM   12  C   UNL     1      42.455 -16.434   4.767  1.00  0.00     0.217 C 
HETATM   13  C   UNL     1      41.574 -15.824   3.680  1.00  0.00     0.050 C 
BRANCH  12  14
HETATM   14  O   UNL     1      43.640 -16.909   4.127  1.00  0.00    -0.337 OA
BRANCH  14  15
HETATM   15  C   UNL     1      43.722 -18.251   3.873  1.00  0.00     0.070 A 
HETATM   16  C   UNL     1      43.995 -19.042   4.993  1.00  0.00     0.037 A 
HETATM   17  C   UNL     1      44.109 -20.428   4.873  1.00  0.00     0.003 A 
HETATM   18  C   UNL     1      43.937 -21.034   3.631  1.00  0.00     0.000 A 
HETATM   19  C   UNL     1      43.648 -20.253   2.513  1.00  0.00     0.003 A 
HETATM   20  C   UNL     1      43.537 -18.864   2.633  1.00  0.00     0.037 A 
ENDBRANCH  14  15
ENDBRANCH  12  14
ENDBRANCH   9  12
ENDBRANCH   6   8
BRANCH   7  21
HETATM   21  C   UNL     1      41.683 -11.278   5.112  1.00  0.00    -0.020 A 
HETATM   22  C   UNL     1      40.334 -11.584   5.335  1.00  0.00     0.014 A 
HETATM   23  C   UNL     1      39.351 -11.134   4.449  1.00  0.00     0.020 A 
HETATM   24  C   UNL     1      39.719 -10.373   3.340  1.00  0.00     0.011 A 
HETATM   25 BR   UNL     1      38.391  -9.757   2.146  1.00  0.00    -0.051 Br
HETATM   26  C   UNL     1      41.057 -10.059   3.110  1.00  0.00     0.020 A 
HETATM   27  C   UNL     1      42.038 -10.511   3.996  1.00  0.00     0.014 A 
ENDBRANCH   7  21
TORSDOF 5
ENDMDL
