MODEL 1
REMARK VINA RESULT:      -8.7      0.000      0.000
REMARK  6 active torsions:
REMARK  status: ('A' for Active; 'I' for Inactive)
REMARK    1  A    between atoms: C_4  and  C_5 
REMARK    2  A    between atoms: C_5  and  N_6 
REMARK    3  A    between atoms: C_5  and  C_22 
REMARK    4  A    between atoms: N_6  and  C_9 
REMARK    5  A    between atoms: C_9  and  C_10 
REMARK    6  A    between atoms: C_13  and  C_14 
REMARK       I    between atoms: C_22  and  N_23 
ROOT
HETATM    1  N   UNL     1      41.598 -13.193   0.826  1.00  0.00    -0.054 N 
HETATM    2  H   UNL     1      41.666 -14.141   0.447  1.00  0.00     0.278 HD
HETATM    3  H   UNL     1      42.132 -12.579   0.198  1.00  0.00     0.278 HD
ENDROOT
BRANCH   1   4
HETATM    4  C   UNL     1      40.166 -12.709   0.783  1.00  0.00     0.310 C 
BRANCH   4   5
HETATM    5  C   UNL     1      39.425 -13.183  -0.449  1.00  0.00    -0.019 A 
HETATM    6  C   UNL     1      39.764 -14.361  -1.136  1.00  0.00     0.010 A 
HETATM    7  C   UNL     1      39.063 -14.743  -2.282  1.00  0.00     0.001 A 
HETATM    8  C   UNL     1      38.030 -13.947  -2.772  1.00  0.00     0.000 A 
HETATM    9  C   UNL     1      37.691 -12.769  -2.114  1.00  0.00     0.001 A 
HETATM   10  C   UNL     1      38.377 -12.390  -0.961  1.00  0.00     0.010 A 
ENDBRANCH   4   5
BRANCH   4  11
HETATM   11  C   UNL     1      39.474 -12.967   2.144  1.00  0.00     0.251 C 
HETATM   12  N   UNL     1      39.079 -14.241   2.430  1.00  0.00    -0.368 N 
HETATM   13  H   UNL     1      39.309 -15.058   1.876  1.00  0.00     0.159 HD
HETATM   14  H   UNL     1      38.619 -14.410   3.319  1.00  0.00     0.159 HD
HETATM   15  O   UNL     1      39.209 -12.039   2.906  1.00  0.00    -0.271 OA
ENDBRANCH   4  11
ENDBRANCH   1   4
BRANCH   1  16
HETATM   16  C   UNL     1      42.304 -13.153   2.140  1.00  0.00     0.272 C 
BRANCH  16  17
HETATM   17  C   UNL     1      42.744 -14.548   2.498  1.00  0.00    -0.033 A 
HETATM   18  C   UNL     1      42.921 -15.512   1.498  1.00  0.00     0.010 A 
HETATM   19  C   UNL     1      43.216 -16.838   1.834  1.00  0.00     0.013 A 
HETATM   20  C   UNL     1      43.349 -17.240   3.174  1.00  0.00    -0.025 A 
HETATM   21  C   UNL     1      43.191 -16.258   4.165  1.00  0.00     0.013 A 
HETATM   22  C   UNL     1      42.886 -14.932   3.838  1.00  0.00     0.010 A 
BRANCH  20  23
HETATM   23  C   UNL     1      43.638 -18.643   3.526  1.00  0.00    -0.008 A 
HETATM   24  C   UNL     1      43.547 -19.676   2.590  1.00  0.00     0.128 A 
HETATM   25  N   UNL     1      43.780 -20.984   2.852  1.00  0.00    -0.272 NA
HETATM   26  C   UNL     1      44.134 -21.298   4.115  1.00  0.00     0.116 A 
HETATM   27  C   UNL     1      44.261 -20.361   5.124  1.00  0.00     0.020 A 
HETATM   28  C   UNL     1      44.008 -19.022   4.823  1.00  0.00     0.015 A 
ENDBRANCH  20  23
ENDBRANCH  16  17
ENDBRANCH   1  16
TORSDOF 6
ENDMDL
MODEL 2
REMARK VINA RESULT:      -8.4      1.877      2.663
REMARK  6 active torsions:
REMARK  status: ('A' for Active; 'I' for Inactive)
REMARK    1  A    between atoms: C_4  and  C_5 
REMARK    2  A    between atoms: C_5  and  N_6 
REMARK    3  A    between atoms: C_5  and  C_22 
REMARK    4  A    between atoms: N_6  and  C_9 
REMARK    5  A    between atoms: C_9  and  C_10 
REMARK    6  A    between atoms: C_13  and  C_14 
REMARK       I    between atoms: C_22  and  N_23 
ROOT
HETATM    1  N   UNL     1      41.636 -11.907   3.495  1.00  0.00    -0.054 N 
HETATM    2  H   UNL     1      41.735 -10.979   3.916  1.00  0.00     0.278 HD
HETATM    3  H   UNL     1      41.372 -12.552   4.250  1.00  0.00     0.278 HD
ENDROOT
BRANCH   1   4
HETATM    4  C   UNL     1      40.494 -11.917   2.503  1.00  0.00     0.310 C 
BRANCH   4   5
HETATM    5  C   UNL     1      40.207 -13.298   1.955  1.00  0.00    -0.019 A 
HETATM    6  C   UNL     1      39.853 -14.384   2.773  1.00  0.00     0.010 A 
HETATM    7  C   UNL     1      39.620 -15.645   2.220  1.00  0.00     0.001 A 
HETATM    8  C   UNL     1      39.758 -15.847   0.849  1.00  0.00     0.000 A 
HETATM    9  C   UNL     1      40.124 -14.788   0.025  1.00  0.00     0.001 A 
HETATM   10  C   UNL     1      40.343 -13.523   0.570  1.00  0.00     0.010 A 
ENDBRANCH   4   5
BRANCH   4  11
HETATM   11  C   UNL     1      39.285 -11.138   3.076  1.00  0.00     0.251 C 
HETATM   12  N   UNL     1      38.229 -10.897   2.248  1.00  0.00    -0.368 N 
HETATM   13  H   UNL     1      38.116 -11.290   1.320  1.00  0.00     0.159 HD
HETATM   14  H   UNL     1      37.437 -10.380   2.621  1.00  0.00     0.159 HD
HETATM   15  O   UNL     1      39.311 -10.675   4.215  1.00  0.00    -0.271 OA
ENDBRANCH   4  11
ENDBRANCH   1   4
BRANCH   1  16
HETATM   16  C   UNL     1      42.975 -12.357   3.015  1.00  0.00     0.272 C 
BRANCH  16  17
HETATM   17  C   UNL     1      43.024 -13.862   3.048  1.00  0.00    -0.033 A 
HETATM   18  C   UNL     1      42.828 -14.548   4.253  1.00  0.00     0.010 A 
HETATM   19  C   UNL     1      42.986 -15.937   4.312  1.00  0.00     0.013 A 
HETATM   20  C   UNL     1      43.337 -16.682   3.174  1.00  0.00    -0.025 A 
HETATM   21  C   UNL     1      43.509 -15.983   1.968  1.00  0.00     0.013 A 
HETATM   22  C   UNL     1      43.362 -14.593   1.903  1.00  0.00     0.010 A 
BRANCH  20  23
HETATM   23  C   UNL     1      43.525 -18.144   3.244  1.00  0.00    -0.008 A 
HETATM   24  C   UNL     1      44.082 -18.766   4.363  1.00  0.00     0.128 A 
HETATM   25  N   UNL     1      44.300 -20.098   4.485  1.00  0.00    -0.272 NA
HETATM   26  C   UNL     1      43.938 -20.870   3.440  1.00  0.00     0.116 A 
HETATM   27  C   UNL     1      43.373 -20.368   2.282  1.00  0.00     0.020 A 
HETATM   28  C   UNL     1      43.168 -18.990   2.187  1.00  0.00     0.015 A 
ENDBRANCH  20  23
ENDBRANCH  16  17
ENDBRANCH   1  16
TORSDOF 6
ENDMDL
MODEL 3
REMARK VINA RESULT:      -8.4      2.717      7.918
REMARK  6 active torsions:
REMARK  status: ('A' for Active; 'I' for Inactive)
REMARK    1  A    between atoms: C_4  and  C_5 
REMARK    2  A    between atoms: C_5  and  N_6 
REMARK    3  A    between atoms: C_5  and  C_22 
REMARK    4  A    between atoms: N_6  and  C_9 
REMARK    5  A    between atoms: C_9  and  C_10 
REMARK    6  A    between atoms: C_13  and  C_14 
REMARK       I    between atoms: C_22  and  N_23 
ROOT
HETATM    1  N   UNL     1      43.403 -15.845   4.130  1.00  0.00    -0.054 N 
HETATM    2  H   UNL     1      44.324 -15.410   4.241  1.00  0.00     0.278 HD
HETATM    3  H   UNL     1      43.366 -16.228   3.177  1.00  0.00     0.278 HD
ENDROOT
BRANCH   1   4
HETATM    4  C   UNL     1      43.260 -17.020   5.071  1.00  0.00     0.310 C 
BRANCH   4   5
HETATM    5  C   UNL     1      43.532 -18.347   4.395  1.00  0.00    -0.019 A 
HETATM    6  C   UNL     1      43.403 -18.537   3.009  1.00  0.00     0.010 A 
HETATM    7  C   UNL     1      43.644 -19.789   2.437  1.00  0.00     0.001 A 
HETATM    8  C   UNL     1      43.995 -20.872   3.239  1.00  0.00     0.000 A 
HETATM    9  C   UNL     1      44.112 -20.707   4.615  1.00  0.00     0.001 A 
HETATM   10  C   UNL     1      43.887 -19.456   5.190  1.00  0.00     0.010 A 
ENDBRANCH   4   5
BRANCH   4  11
HETATM   11  C   UNL     1      44.029 -16.748   6.386  1.00  0.00     0.251 C 
HETATM   12  N   UNL     1      43.374 -16.951   7.565  1.00  0.00    -0.368 N 
HETATM   13  H   UNL     1      42.461 -17.383   7.655  1.00  0.00     0.159 HD
HETATM   14  H   UNL     1      43.875 -16.765   8.429  1.00  0.00     0.159 HD
HETATM   15  O   UNL     1      45.165 -16.278   6.370  1.00  0.00    -0.271 OA
ENDBRANCH   4  11
ENDBRANCH   1   4
BRANCH   1  16
HETATM   16  C   UNL     1      42.362 -14.779   4.188  1.00  0.00     0.272 C 
BRANCH  16  17
HETATM   17  C   UNL     1      41.700 -14.671   2.839  1.00  0.00    -0.033 A 
HETATM   18  C   UNL     1      41.865 -13.519   2.061  1.00  0.00     0.010 A 
HETATM   19  C   UNL     1      41.161 -13.366   0.862  1.00  0.00     0.013 A 
HETATM   20  C   UNL     1      40.278 -14.356   0.401  1.00  0.00    -0.025 A 
HETATM   21  C   UNL     1      40.138 -15.516   1.181  1.00  0.00     0.013 A 
HETATM   22  C   UNL     1      40.832 -15.673   2.386  1.00  0.00     0.010 A 
BRANCH  20  23
HETATM   23  C   UNL     1      39.519 -14.182  -0.852  1.00  0.00    -0.008 A 
HETATM   24  C   UNL     1      38.998 -12.945  -1.237  1.00  0.00     0.128 A 
HETATM   25  N   UNL     1      38.278 -12.720  -2.363  1.00  0.00    -0.272 NA
HETATM   26  C   UNL     1      38.063 -13.781  -3.167  1.00  0.00     0.116 A 
HETATM   27  C   UNL     1      38.533 -15.052  -2.893  1.00  0.00     0.020 A 
HETATM   28  C   UNL     1      39.267 -15.250  -1.722  1.00  0.00     0.015 A 
ENDBRANCH  20  23
ENDBRANCH  16  17
ENDBRANCH   1  16
TORSDOF 6
ENDMDL
MODEL 4
REMARK VINA RESULT:      -8.4      1.505      2.155
REMARK  6 active torsions:
REMARK  status: ('A' for Active; 'I' for Inactive)
REMARK    1  A    between atoms: C_4  and  C_5 
REMARK    2  A    between atoms: C_5  and  N_6 
REMARK    3  A    between atoms: C_5  and  C_22 
REMARK    4  A    between atoms: N_6  and  C_9 
REMARK    5  A    between atoms: C_9  and  C_10 
REMARK    6  A    between atoms: C_13  and  C_14 
REMARK       I    between atoms: C_22  and  N_23 
ROOT
HETATM    1  N   UNL     1      41.361 -12.323   1.993  1.00  0.00    -0.054 N 
HETATM    2  H   UNL     1      40.790 -11.791   2.656  1.00  0.00     0.278 HD
HETATM    3  H   UNL     1      40.893 -13.227   1.853  1.00  0.00     0.278 HD
ENDROOT
BRANCH   1   4
HETATM    4  C   UNL     1      41.380 -11.637   0.646  1.00  0.00     0.310 C 
BRANCH   4   5
HETATM    5  C   UNL     1      40.808 -12.499  -0.459  1.00  0.00    -0.019 A 
HETATM    6  C   UNL     1      40.072 -13.669  -0.208  1.00  0.00     0.010 A 
HETATM    7  C   UNL     1      39.584 -14.442  -1.264  1.00  0.00     0.001 A 
HETATM    8  C   UNL     1      39.840 -14.073  -2.582  1.00  0.00     0.000 A 
HETATM    9  C   UNL     1      40.580 -12.926  -2.850  1.00  0.00     0.001 A 
HETATM   10  C   UNL     1      41.058 -12.142  -1.800  1.00  0.00     0.010 A 
ENDBRANCH   4   5
BRANCH   4  11
HETATM   11  C   UNL     1      40.806 -10.204   0.769  1.00  0.00     0.251 C 
HETATM   12  N   UNL     1      41.674  -9.156   0.681  1.00  0.00    -0.368 N 
HETATM   13  H   UNL     1      42.651  -9.232   0.420  1.00  0.00     0.159 HD
HETATM   14  H   UNL     1      41.299  -8.216   0.768  1.00  0.00     0.159 HD
HETATM   15  O   UNL     1      39.618 -10.018   1.027  1.00  0.00    -0.271 OA
ENDBRANCH   4  11
ENDBRANCH   1   4
BRANCH   1  16
HETATM   16  C   UNL     1      42.672 -12.632   2.634  1.00  0.00     0.272 C 
BRANCH  16  17
HETATM   17  C   UNL     1      42.798 -14.124   2.791  1.00  0.00    -0.033 A 
HETATM   18  C   UNL     1      42.833 -14.700   4.067  1.00  0.00     0.010 A 
HETATM   19  C   UNL     1      43.065 -16.071   4.222  1.00  0.00     0.013 A 
HETATM   20  C   UNL     1      43.263 -16.908   3.111  1.00  0.00    -0.025 A 
HETATM   21  C   UNL     1      43.204 -16.321   1.837  1.00  0.00     0.013 A 
HETATM   22  C   UNL     1      42.981 -14.949   1.674  1.00  0.00     0.010 A 
BRANCH  20  23
HETATM   23  C   UNL     1      43.530 -18.349   3.278  1.00  0.00    -0.008 A 
HETATM   24  C   UNL     1      43.323 -19.265   2.244  1.00  0.00     0.128 A 
HETATM   25  N   UNL     1      43.530 -20.601   2.335  1.00  0.00    -0.272 NA
HETATM   26  C   UNL     1      43.978 -21.066   3.519  1.00  0.00     0.116 A 
HETATM   27  C   UNL     1      44.224 -20.255   4.612  1.00  0.00     0.020 A 
HETATM   28  C   UNL     1      43.995 -18.884   4.486  1.00  0.00     0.015 A 
ENDBRANCH  20  23
ENDBRANCH  16  17
ENDBRANCH   1  16
TORSDOF 6
ENDMDL
MODEL 5
REMARK VINA RESULT:      -8.1      3.903      7.610
REMARK  6 active torsions:
REMARK  status: ('A' for Active; 'I' for Inactive)
REMARK    1  A    between atoms: C_4  and  C_5 
REMARK    2  A    between atoms: C_5  and  N_6 
REMARK    3  A    between atoms: C_5  and  C_22 
REMARK    4  A    between atoms: N_6  and  C_9 
REMARK    5  A    between atoms: C_9  and  C_10 
REMARK    6  A    between atoms: C_13  and  C_14 
REMARK       I    between atoms: C_22  and  N_23 
ROOT
HETATM    1  N   UNL     1      41.014 -16.242   3.688  1.00  0.00    -0.054 N 
HETATM    2  H   UNL     1      40.488 -15.501   3.217  1.00  0.00     0.278 HD
HETATM    3  H   UNL     1      40.547 -17.130   3.464  1.00  0.00     0.278 HD
ENDROOT
BRANCH   1   4
HETATM    4  C   UNL     1      42.412 -16.337   3.121  1.00  0.00     0.310 C 
BRANCH   4   5
HETATM    5  C   UNL     1      42.985 -17.736   3.210  1.00  0.00    -0.019 A 
HETATM    6  C   UNL     1      42.811 -18.696   2.200  1.00  0.00     0.010 A 
HETATM    7  C   UNL     1      43.342 -19.981   2.340  1.00  0.00     0.001 A 
HETATM    8  C   UNL     1      44.033 -20.333   3.497  1.00  0.00     0.000 A 
HETATM    9  C   UNL     1      44.201 -19.400   4.515  1.00  0.00     0.001 A 
HETATM   10  C   UNL     1      43.687 -18.111   4.374  1.00  0.00     0.010 A 
ENDBRANCH   4   5
BRANCH   4  11
HETATM   11  C   UNL     1      42.472 -15.656   1.732  1.00  0.00     0.251 C 
HETATM   12  N   UNL     1      43.673 -15.169   1.309  1.00  0.00    -0.368 N 
HETATM   13  H   UNL     1      44.560 -15.324   1.777  1.00  0.00     0.159 HD
HETATM   14  H   UNL     1      43.712 -14.715   0.401  1.00  0.00     0.159 HD
HETATM   15  O   UNL     1      41.452 -15.479   1.069  1.00  0.00    -0.271 OA
ENDBRANCH   4  11
ENDBRANCH   1   4
BRANCH   1  16
HETATM   16  C   UNL     1      40.874 -16.062   5.163  1.00  0.00     0.272 C 
BRANCH  16  17
HETATM   17  C   UNL     1      41.779 -14.942   5.605  1.00  0.00    -0.033 A 
HETATM   18  C   UNL     1      42.863 -15.203   6.452  1.00  0.00     0.010 A 
HETATM   19  C   UNL     1      43.637 -14.152   6.958  1.00  0.00     0.013 A 
HETATM   20  C   UNL     1      43.358 -12.815   6.631  1.00  0.00    -0.025 A 
HETATM   21  C   UNL     1      42.281 -12.571   5.763  1.00  0.00     0.013 A 
HETATM   22  C   UNL     1      41.496 -13.614   5.260  1.00  0.00     0.010 A 
BRANCH  20  23
HETATM   23  C   UNL     1      44.161 -11.709   7.183  1.00  0.00    -0.008 A 
HETATM   24  C   UNL     1      43.614 -10.753   8.043  1.00  0.00     0.128 A 
HETATM   25  N   UNL     1      44.289  -9.704   8.570  1.00  0.00    -0.272 NA
HETATM   26  C   UNL     1      45.591  -9.590   8.236  1.00  0.00     0.116 A 
HETATM   27  C   UNL     1      46.242 -10.477   7.399  1.00  0.00     0.020 A 
HETATM   28  C   UNL     1      45.516 -11.544   6.868  1.00  0.00     0.015 A 
ENDBRANCH  20  23
ENDBRANCH  16  17
ENDBRANCH   1  16
TORSDOF 6
ENDMDL
MODEL 6
REMARK VINA RESULT:      -8.0      3.916      7.240
REMARK  6 active torsions:
REMARK  status: ('A' for Active; 'I' for Inactive)
REMARK    1  A    between atoms: C_4  and  C_5 
REMARK    2  A    between atoms: C_5  and  N_6 
REMARK    3  A    between atoms: C_5  and  C_22 
REMARK    4  A    between atoms: N_6  and  C_9 
REMARK    5  A    between atoms: C_9  and  C_10 
REMARK    6  A    between atoms: C_13  and  C_14 
REMARK       I    between atoms: C_22  and  N_23 
ROOT
HETATM    1  N   UNL     1      42.705 -14.615   1.550  1.00  0.00    -0.054 N 
HETATM    2  H   UNL     1      43.643 -14.626   1.959  1.00  0.00     0.278 HD
HETATM    3  H   UNL     1      42.817 -14.421   0.547  1.00  0.00     0.278 HD
ENDROOT
BRANCH   1   4
HETATM    4  C   UNL     1      42.070 -15.984   1.653  1.00  0.00     0.310 C 
BRANCH   4   5
HETATM    5  C   UNL     1      42.822 -16.910   2.584  1.00  0.00    -0.019 A 
HETATM    6  C   UNL     1      43.388 -16.477   3.795  1.00  0.00     0.010 A 
HETATM    7  C   UNL     1      44.093 -17.368   4.609  1.00  0.00     0.001 A 
HETATM    8  C   UNL     1      44.262 -18.694   4.218  1.00  0.00     0.000 A 
HETATM    9  C   UNL     1      43.722 -19.136   3.014  1.00  0.00     0.001 A 
HETATM   10  C   UNL     1      43.005 -18.256   2.205  1.00  0.00     0.010 A 
ENDBRANCH   4   5
BRANCH   4  11
HETATM   11  C   UNL     1      40.547 -15.848   1.899  1.00  0.00     0.251 C 
HETATM   12  N   UNL     1      39.744 -15.600   0.826  1.00  0.00    -0.368 N 
HETATM   13  H   UNL     1      40.047 -15.617  -0.142  1.00  0.00     0.159 HD
HETATM   14  H   UNL     1      38.746 -15.503   0.987  1.00  0.00     0.159 HD
HETATM   15  O   UNL     1      40.085 -15.874   3.039  1.00  0.00    -0.271 OA
ENDBRANCH   4  11
ENDBRANCH   1   4
BRANCH   1  16
HETATM   16  C   UNL     1      41.953 -13.457   2.113  1.00  0.00     0.272 C 
BRANCH  16  17
HETATM   17  C   UNL     1      42.658 -12.975   3.353  1.00  0.00    -0.033 A 
HETATM   18  C   UNL     1      42.207 -13.366   4.620  1.00  0.00     0.010 A 
HETATM   19  C   UNL     1      42.785 -12.831   5.776  1.00  0.00     0.013 A 
HETATM   20  C   UNL     1      43.831 -11.896   5.705  1.00  0.00    -0.025 A 
HETATM   21  C   UNL     1      44.287 -11.529   4.428  1.00  0.00     0.013 A 
HETATM   22  C   UNL     1      43.709 -12.053   3.267  1.00  0.00     0.010 A 
BRANCH  20  23
HETATM   23  C   UNL     1      44.423 -11.316   6.925  1.00  0.00    -0.008 A 
HETATM   24  C   UNL     1      43.785 -11.387   8.165  1.00  0.00     0.128 A 
HETATM   25  N   UNL     1      44.263 -10.861   9.318  1.00  0.00    -0.272 NA
HETATM   26  C   UNL     1      45.452 -10.229   9.249  1.00  0.00     0.116 A 
HETATM   27  C   UNL     1      46.179 -10.099   8.079  1.00  0.00     0.020 A 
HETATM   28  C   UNL     1      45.654 -10.648   6.908  1.00  0.00     0.015 A 
ENDBRANCH  20  23
ENDBRANCH  16  17
ENDBRANCH   1  16
TORSDOF 6
ENDMDL
MODEL 7
REMARK VINA RESULT:      -7.9      4.608      6.821
REMARK  6 active torsions:
REMARK  status: ('A' for Active; 'I' for Inactive)
REMARK    1  A    between atoms: C_4  and  C_5 
REMARK    2  A    between atoms: C_5  and  N_6 
REMARK    3  A    between atoms: C_5  and  C_22 
REMARK    4  A    between atoms: N_6  and  C_9 
REMARK    5  A    between atoms: C_9  and  C_10 
REMARK    6  A    between atoms: C_13  and  C_14 
REMARK       I    between atoms: C_22  and  N_23 
ROOT
HETATM    1  N   UNL     1      42.446 -12.625   6.352  1.00  0.00    -0.054 N 
HETATM    2  H   UNL     1      41.583 -12.673   6.900  1.00  0.00     0.278 HD
HETATM    3  H   UNL     1      42.243 -13.044   5.435  1.00  0.00     0.278 HD
ENDROOT
BRANCH   1   4
HETATM    4  C   UNL     1      42.825 -11.185   6.090  1.00  0.00     0.310 C 
BRANCH   4   5
HETATM    5  C   UNL     1      43.903 -10.684   7.028  1.00  0.00    -0.019 A 
HETATM    6  C   UNL     1      45.274 -10.849   6.770  1.00  0.00     0.010 A 
HETATM    7  C   UNL     1      46.230 -10.388   7.679  1.00  0.00     0.001 A 
HETATM    8  C   UNL     1      45.833  -9.777   8.866  1.00  0.00     0.000 A 
HETATM    9  C   UNL     1      44.479  -9.619   9.146  1.00  0.00     0.001 A 
HETATM   10  C   UNL     1      43.521 -10.064   8.235  1.00  0.00     0.010 A 
ENDBRANCH   4   5
BRANCH   4  11
HETATM   11  C   UNL     1      43.072 -10.965   4.578  1.00  0.00     0.251 C 
HETATM   12  N   UNL     1      42.338 -10.008   3.942  1.00  0.00    -0.368 N 
HETATM   13  H   UNL     1      41.727  -9.342   4.403  1.00  0.00     0.159 HD
HETATM   14  H   UNL     1      42.494  -9.867   2.948  1.00  0.00     0.159 HD
HETATM   15  O   UNL     1      43.842 -11.689   3.949  1.00  0.00    -0.271 OA
ENDBRANCH   4  11
ENDBRANCH   1   4
BRANCH   1  16
HETATM   16  C   UNL     1      43.466 -13.506   6.991  1.00  0.00     0.272 C 
BRANCH  16  17
HETATM   17  C   UNL     1      43.610 -14.760   6.169  1.00  0.00    -0.033 A 
HETATM   18  C   UNL     1      42.969 -14.869   4.929  1.00  0.00     0.010 A 
HETATM   19  C   UNL     1      43.005 -16.072   4.215  1.00  0.00     0.013 A 
HETATM   20  C   UNL     1      43.684 -17.197   4.711  1.00  0.00    -0.025 A 
HETATM   21  C   UNL     1      44.340 -17.066   5.946  1.00  0.00     0.013 A 
HETATM   22  C   UNL     1      44.301 -15.870   6.671  1.00  0.00     0.010 A 
BRANCH  20  23
HETATM   23  C   UNL     1      43.700 -18.471   3.968  1.00  0.00    -0.008 A 
HETATM   24  C   UNL     1      44.113 -19.668   4.558  1.00  0.00     0.128 A 
HETATM   25  N   UNL     1      44.170 -20.866   3.928  1.00  0.00    -0.272 NA
HETATM   26  C   UNL     1      43.789 -20.890   2.634  1.00  0.00     0.116 A 
HETATM   27  C   UNL     1      43.358 -19.771   1.946  1.00  0.00     0.020 A 
HETATM   28  C   UNL     1      43.316 -18.551   2.623  1.00  0.00     0.015 A 
ENDBRANCH  20  23
ENDBRANCH  16  17
ENDBRANCH   1  16
TORSDOF 6
ENDMDL
MODEL 8
REMARK VINA RESULT:      -7.8      2.273      3.088
REMARK  6 active torsions:
REMARK  status: ('A' for Active; 'I' for Inactive)
REMARK    1  A    between atoms: C_4  and  C_5 
REMARK    2  A    between atoms: C_5  and  N_6 
REMARK    3  A    between atoms: C_5  and  C_22 
REMARK    4  A    between atoms: N_6  and  C_9 
REMARK    5  A    between atoms: C_9  and  C_10 
REMARK    6  A    between atoms: C_13  and  C_14 
REMARK       I    between atoms: C_22  and  N_23 
ROOT
HETATM    1  N   UNL     1      40.882 -13.251  -0.606  1.00  0.00    -0.054 N 
HETATM    2  H   UNL     1      41.376 -14.097  -0.903  1.00  0.00     0.278 HD
HETATM    3  H   UNL     1      41.291 -12.466  -1.129  1.00  0.00     0.278 HD
ENDROOT
BRANCH   1   4
HETATM    4  C   UNL     1      39.426 -13.321  -1.009  1.00  0.00     0.310 C 
BRANCH   4   5
HETATM    5  C   UNL     1      38.727 -11.982  -0.913  1.00  0.00    -0.019 A 
HETATM    6  C   UNL     1      37.802 -11.676   0.099  1.00  0.00     0.010 A 
HETATM    7  C   UNL     1      37.167 -10.433   0.130  1.00  0.00     0.001 A 
HETATM    8  C   UNL     1      37.428  -9.486  -0.858  1.00  0.00     0.000 A 
HETATM    9  C   UNL     1      38.328  -9.777  -1.877  1.00  0.00     0.001 A 
HETATM   10  C   UNL     1      38.977 -11.011  -1.905  1.00  0.00     0.010 A 
ENDBRANCH   4   5
BRANCH   4  11
HETATM   11  C   UNL     1      39.280 -14.080  -2.350  1.00  0.00     0.251 C 
HETATM   12  N   UNL     1      38.143 -14.803  -2.557  1.00  0.00    -0.368 N 
HETATM   13  H   UNL     1      37.328 -14.789  -1.953  1.00  0.00     0.159 HD
HETATM   14  H   UNL     1      38.050 -15.307  -3.434  1.00  0.00     0.159 HD
HETATM   15  O   UNL     1      40.198 -14.102  -3.169  1.00  0.00    -0.271 OA
ENDBRANCH   4  11
ENDBRANCH   1   4
BRANCH   1  16
HETATM   16  C   UNL     1      41.193 -12.997   0.831  1.00  0.00     0.272 C 
BRANCH  16  17
HETATM   17  C   UNL     1      41.678 -14.278   1.458  1.00  0.00    -0.033 A 
HETATM   18  C   UNL     1      43.044 -14.478   1.689  1.00  0.00     0.010 A 
HETATM   19  C   UNL     1      43.510 -15.709   2.164  1.00  0.00     0.013 A 
HETATM   20  C   UNL     1      42.630 -16.772   2.427  1.00  0.00    -0.025 A 
HETATM   21  C   UNL     1      41.260 -16.550   2.210  1.00  0.00     0.013 A 
HETATM   22  C   UNL     1      40.787 -15.324   1.727  1.00  0.00     0.010 A 
BRANCH  20  23
HETATM   23  C   UNL     1      43.127 -18.076   2.905  1.00  0.00    -0.008 A 
HETATM   24  C   UNL     1      43.670 -18.239   4.181  1.00  0.00     0.128 A 
HETATM   25  N   UNL     1      44.161 -19.401   4.675  1.00  0.00    -0.272 NA
HETATM   26  C   UNL     1      44.104 -20.477   3.864  1.00  0.00     0.116 A 
HETATM   27  C   UNL     1      43.584 -20.439   2.583  1.00  0.00     0.020 A 
HETATM   28  C   UNL     1      43.093 -19.224   2.103  1.00  0.00     0.015 A 
ENDBRANCH  20  23
ENDBRANCH  16  17
ENDBRANCH   1  16
TORSDOF 6
ENDMDL
MODEL 9
REMARK VINA RESULT:      -7.8      3.172      4.289
REMARK  6 active torsions:
REMARK  status: ('A' for Active; 'I' for Inactive)
REMARK    1  A    between atoms: C_4  and  C_5 
REMARK    2  A    between atoms: C_5  and  N_6 
REMARK    3  A    between atoms: C_5  and  C_22 
REMARK    4  A    between atoms: N_6  and  C_9 
REMARK    5  A    between atoms: C_9  and  C_10 
REMARK    6  A    between atoms: C_13  and  C_14 
REMARK       I    between atoms: C_22  and  N_23 
ROOT
HETATM    1  N   UNL     1      42.268 -12.632   6.345  1.00  0.00    -0.054 N 
HETATM    2  H   UNL     1      42.017 -11.764   6.826  1.00  0.00     0.278 HD
HETATM    3  H   UNL     1      41.404 -13.181   6.248  1.00  0.00     0.278 HD
ENDROOT
BRANCH   1   4
HETATM    4  C   UNL     1      42.748 -12.338   4.941  1.00  0.00     0.310 C 
BRANCH   4   5
HETATM    5  C   UNL     1      42.306 -13.384   3.940  1.00  0.00    -0.019 A 
HETATM    6  C   UNL     1      43.204 -14.056   3.094  1.00  0.00     0.010 A 
HETATM    7  C   UNL     1      42.742 -14.998   2.172  1.00  0.00     0.001 A 
HETATM    8  C   UNL     1      41.380 -15.266   2.063  1.00  0.00     0.000 A 
HETATM    9  C   UNL     1      40.474 -14.598   2.881  1.00  0.00     0.001 A 
HETATM   10  C   UNL     1      40.931 -13.668   3.815  1.00  0.00     0.010 A 
ENDBRANCH   4   5
BRANCH   4  11
HETATM   11  C   UNL     1      42.449 -10.864   4.574  1.00  0.00     0.251 C 
HETATM   12  N   UNL     1      42.621 -10.480   3.277  1.00  0.00    -0.368 N 
HETATM   13  H   UNL     1      42.814 -11.109   2.506  1.00  0.00     0.159 HD
HETATM   14  H   UNL     1      42.433  -9.511   3.036  1.00  0.00     0.159 HD
HETATM   15  O   UNL     1      42.151 -10.043   5.440  1.00  0.00    -0.271 OA
ENDBRANCH   4  11
ENDBRANCH   1   4
BRANCH   1  16
HETATM   16  C   UNL     1      43.165 -13.427   7.233  1.00  0.00     0.272 C 
BRANCH  16  17
HETATM   17  C   UNL     1      43.301 -14.817   6.669  1.00  0.00    -0.033 A 
HETATM   18  C   UNL     1      44.558 -15.310   6.299  1.00  0.00     0.010 A 
HETATM   19  C   UNL     1      44.676 -16.554   5.669  1.00  0.00     0.013 A 
HETATM   20  C   UNL     1      43.547 -17.344   5.395  1.00  0.00    -0.025 A 
HETATM   21  C   UNL     1      42.295 -16.847   5.791  1.00  0.00     0.013 A 
HETATM   22  C   UNL     1      42.167 -15.599   6.413  1.00  0.00     0.010 A 
BRANCH  20  23
HETATM   23  C   UNL     1      43.672 -18.645   4.711  1.00  0.00    -0.008 A 
HETATM   24  C   UNL     1      43.862 -19.837   5.413  1.00  0.00     0.128 A 
HETATM   25  N   UNL     1      44.003 -21.059   4.847  1.00  0.00    -0.272 NA
HETATM   26  C   UNL     1      43.944 -21.115   3.501  1.00  0.00     0.116 A 
HETATM   27  C   UNL     1      43.754 -20.004   2.700  1.00  0.00     0.020 A 
HETATM   28  C   UNL     1      43.619 -18.758   3.316  1.00  0.00     0.015 A 
ENDBRANCH  20  23
ENDBRANCH  16  17
ENDBRANCH   1  16
TORSDOF 6
ENDMDL
MODEL 10
REMARK VINA RESULT:      -7.7      2.618      7.393
REMARK  6 active torsions:
REMARK  status: ('A' for Active; 'I' for Inactive)
REMARK    1  A    between atoms: C_4  and  C_5 
REMARK    2  A    between atoms: C_5  and  N_6 
REMARK    3  A    between atoms: C_5  and  C_22 
REMARK    4  A    between atoms: N_6  and  C_9 
REMARK    5  A    between atoms: C_9  and  C_10 
REMARK    6  A    between atoms: C_13  and  C_14 
REMARK       I    between atoms: C_22  and  N_23 
ROOT
HETATM    1  N   UNL     1      42.855 -13.885   4.777  1.00  0.00    -0.054 N 
HETATM    2  H   UNL     1      43.597 -13.638   5.439  1.00  0.00     0.278 HD
HETATM    3  H   UNL     1      43.308 -14.061   3.871  1.00  0.00     0.278 HD
ENDROOT
BRANCH   1   4
HETATM    4  C   UNL     1      42.196 -15.184   5.186  1.00  0.00     0.310 C 
BRANCH   4   5
HETATM    5  C   UNL     1      42.773 -16.384   4.467  1.00  0.00    -0.019 A 
HETATM    6  C   UNL     1      43.831 -17.148   4.987  1.00  0.00     0.010 A 
HETATM    7  C   UNL     1      44.343 -18.234   4.274  1.00  0.00     0.001 A 
HETATM    8  C   UNL     1      43.823 -18.561   3.024  1.00  0.00     0.000 A 
HETATM    9  C   UNL     1      42.786 -17.807   2.485  1.00  0.00     0.001 A 
HETATM   10  C   UNL     1      42.261 -16.730   3.199  1.00  0.00     0.010 A 
ENDBRANCH   4   5
BRANCH   4  11
HETATM   11  C   UNL     1      42.115 -15.278   6.729  1.00  0.00     0.251 C 
HETATM   12  N   UNL     1      42.972 -14.513   7.463  1.00  0.00    -0.368 N 
HETATM   13  H   UNL     1      43.579 -13.795   7.084  1.00  0.00     0.159 HD
HETATM   14  H   UNL     1      42.924 -14.580   8.476  1.00  0.00     0.159 HD
HETATM   15  O   UNL     1      41.363 -16.083   7.276  1.00  0.00    -0.271 OA
ENDBRANCH   4  11
ENDBRANCH   1   4
BRANCH   1  16
HETATM   16  C   UNL     1      41.979 -12.695   4.577  1.00  0.00     0.272 C 
BRANCH  16  17
HETATM   17  C   UNL     1      41.315 -12.800   3.229  1.00  0.00    -0.033 A 
HETATM   18  C   UNL     1      39.947 -12.534   3.093  1.00  0.00     0.010 A 
HETATM   19  C   UNL     1      39.303 -12.741   1.868  1.00  0.00     0.013 A 
HETATM   20  C   UNL     1      40.001 -13.214   0.745  1.00  0.00    -0.025 A 
HETATM   21  C   UNL     1      41.377 -13.456   0.891  1.00  0.00     0.013 A 
HETATM   22  C   UNL     1      42.028 -13.260   2.115  1.00  0.00     0.010 A 
BRANCH  20  23
HETATM   23  C   UNL     1      39.315 -13.453  -0.538  1.00  0.00    -0.008 A 
HETATM   24  C   UNL     1      38.394 -12.546  -1.067  1.00  0.00     0.128 A 
HETATM   25  N   UNL     1      37.716 -12.713  -2.228  1.00  0.00    -0.272 NA
HETATM   26  C   UNL     1      37.965 -13.843  -2.919  1.00  0.00     0.116 A 
HETATM   27  C   UNL     1      38.859 -14.812  -2.498  1.00  0.00     0.020 A 
HETATM   28  C   UNL     1      39.536 -14.611  -1.295  1.00  0.00     0.015 A 
ENDBRANCH  20  23
ENDBRANCH  16  17
ENDBRANCH   1  16
TORSDOF 6
ENDMDL
