MODEL 1
REMARK VINA RESULT:      -9.5      0.000      0.000
REMARK  8 active torsions:
REMARK  status: ('A' for Active; 'I' for Inactive)
REMARK    1  A    between atoms: C_4  and  C_5 
REMARK    2  A    between atoms: C_5  and  C_6 
REMARK    3  A    between atoms: C_5  and  C_31 
REMARK       I    between atoms: C_6  and  N_7 
REMARK    4  A    between atoms: N_7  and  C_8 
REMARK    5  A    between atoms: C_8  and  N_9 
REMARK    6  A    between atoms: N_9  and  C_10 
REMARK    7  A    between atoms: C_13  and  N_14 
REMARK       I    between atoms: N_17  and  C_18 
REMARK    8  A    between atoms: C_18  and  C_19 
ROOT
HETATM    1  N   UNL     1      41.411 -13.044   1.976  1.00  0.00    -0.333 N 
HETATM    2  H   UNL     1      41.316 -12.344   1.238  1.00  0.00     0.168 HD
ENDROOT
BRANCH   1   3
HETATM    3  C   UNL     1      41.165 -14.319   1.525  1.00  0.00     0.178 C 
HETATM    4  S   UNL     1      40.214 -14.850   0.261  1.00  0.00    -0.040 SA
BRANCH   3   5
HETATM    5  N   UNL     1      41.763 -15.318   2.285  1.00  0.00    -0.303 N 
HETATM    6  C   UNL     1      43.105 -15.682   2.355  1.00  0.00     0.236 C 
HETATM    7  O   UNL     1      43.931 -15.323   1.512  1.00  0.00    -0.272 OA
HETATM    8  H   UNL     1      41.133 -15.734   2.958  1.00  0.00     0.171 HD
BRANCH   6   9
HETATM    9  C   UNL     1      43.494 -16.553   3.559  1.00  0.00     0.144 C 
BRANCH   9  10
HETATM   10  C   UNL     1      43.547 -18.060   3.308  1.00  0.00    -0.041 A 
HETATM   11  C   UNL     1      44.110 -18.881   4.306  1.00  0.00     0.008 A 
HETATM   12  C   UNL     1      44.183 -20.265   4.149  1.00  0.00     0.001 A 
HETATM   13  C   UNL     1      43.698 -20.857   2.988  1.00  0.00     0.000 A 
HETATM   14  C   UNL     1      43.150 -20.064   1.984  1.00  0.00     0.001 A 
HETATM   15  C   UNL     1      43.079 -18.676   2.137  1.00  0.00     0.008 A 
ENDBRANCH   9  10
BRANCH   9  16
HETATM   16  C   UNL     1      42.694 -16.125   4.793  1.00  0.00    -0.041 A 
HETATM   17  C   UNL     1      43.318 -15.312   5.755  1.00  0.00     0.008 A 
HETATM   18  C   UNL     1      42.610 -14.848   6.864  1.00  0.00     0.001 A 
HETATM   19  C   UNL     1      41.270 -15.185   7.026  1.00  0.00     0.000 A 
HETATM   20  C   UNL     1      40.635 -15.986   6.079  1.00  0.00     0.001 A 
HETATM   21  C   UNL     1      41.339 -16.452   4.967  1.00  0.00     0.008 A 
ENDBRANCH   9  16
ENDBRANCH   6   9
ENDBRANCH   3   5
ENDBRANCH   1   3
BRANCH   1  22
HETATM   22  C   UNL     1      41.832 -12.505   3.208  1.00  0.00     0.034 A 
HETATM   23  C   UNL     1      43.122 -12.104   3.537  1.00  0.00     0.031 A 
HETATM   24  C   UNL     1      43.404 -11.554   4.801  1.00  0.00     0.026 A 
HETATM   25  C   UNL     1      42.404 -11.373   5.762  1.00  0.00     0.010 A 
HETATM   26  C   UNL     1      41.113 -11.793   5.423  1.00  0.00     0.026 A 
HETATM   27  C   UNL     1      40.832 -12.359   4.177  1.00  0.00     0.031 A 
BRANCH  25  28
HETATM   28  N   UNL     1      42.618 -10.818   7.028  1.00  0.00    -0.280 NA
HETATM   29  C   UNL     1      42.031  -9.467   7.176  1.00  0.00     0.115 C 
HETATM   30  C   UNL     1      41.950  -9.086   8.666  1.00  0.00     0.141 C 
HETATM   31  N   UNL     1      43.211  -9.293   9.395  1.00  0.00    -0.345 N 
HETATM   32  C   UNL     1      43.590  -8.586  10.543  1.00  0.00     0.260 C 
HETATM   33  C   UNL     1      43.910 -10.555   9.108  1.00  0.00     0.141 C 
HETATM   34  O   UNL     1      44.650  -8.840  11.114  1.00  0.00    -0.267 OA
HETATM   35  C   UNL     1      43.972 -10.893   7.608  1.00  0.00     0.115 C 
BRANCH  32  36
HETATM   36  C   UNL     1      42.688  -7.558  11.038  1.00  0.00     0.072 A 
HETATM   37  S   UNL     1      41.540  -7.970  12.240  1.00  0.00    -0.097 SA
HETATM   38  C   UNL     1      40.903  -6.382  12.268  1.00  0.00     0.050 A 
HETATM   39  C   UNL     1      41.532  -5.557  11.363  1.00  0.00     0.009 A 
HETATM   40  C   UNL     1      42.555  -6.240  10.640  1.00  0.00     0.025 A 
ENDBRANCH  32  36
ENDBRANCH  25  28
ENDBRANCH   1  22
TORSDOF 8
ENDMDL
MODEL 2
REMARK VINA RESULT:      -9.5      0.622      3.067
REMARK  8 active torsions:
REMARK  status: ('A' for Active; 'I' for Inactive)
REMARK    1  A    between atoms: C_4  and  C_5 
REMARK    2  A    between atoms: C_5  and  C_6 
REMARK    3  A    between atoms: C_5  and  C_31 
REMARK       I    between atoms: C_6  and  N_7 
REMARK    4  A    between atoms: N_7  and  C_8 
REMARK    5  A    between atoms: C_8  and  N_9 
REMARK    6  A    between atoms: N_9  and  C_10 
REMARK    7  A    between atoms: C_13  and  N_14 
REMARK       I    between atoms: N_17  and  C_18 
REMARK    8  A    between atoms: C_18  and  C_19 
ROOT
HETATM    1  N   UNL     1      41.805 -13.009   1.432  1.00  0.00    -0.333 N 
HETATM    2  H   UNL     1      42.151 -12.442   0.656  1.00  0.00     0.168 HD
ENDROOT
BRANCH   1   3
HETATM    3  C   UNL     1      41.123 -14.124   1.006  1.00  0.00     0.178 C 
HETATM    4  S   UNL     1      40.139 -14.341  -0.324  1.00  0.00    -0.040 SA
BRANCH   3   5
HETATM    5  N   UNL     1      41.234 -15.218   1.855  1.00  0.00    -0.303 N 
HETATM    6  C   UNL     1      42.377 -15.898   2.267  1.00  0.00     0.236 C 
HETATM    7  O   UNL     1      43.462 -15.773   1.693  1.00  0.00    -0.272 OA
HETATM    8  H   UNL     1      40.363 -15.451   2.316  1.00  0.00     0.171 HD
BRANCH   6   9
HETATM    9  C   UNL     1      42.203 -16.806   3.493  1.00  0.00     0.144 C 
BRANCH   9  10
HETATM   10  C   UNL     1      42.469 -16.159   4.852  1.00  0.00    -0.041 A 
HETATM   11  C   UNL     1      41.551 -16.398   5.894  1.00  0.00     0.008 A 
HETATM   12  C   UNL     1      41.735 -15.847   7.163  1.00  0.00     0.001 A 
HETATM   13  C   UNL     1      42.841 -15.042   7.414  1.00  0.00     0.000 A 
HETATM   14  C   UNL     1      43.753 -14.782   6.396  1.00  0.00     0.001 A 
HETATM   15  C   UNL     1      43.569 -15.330   5.122  1.00  0.00     0.008 A 
ENDBRANCH   9  10
BRANCH   9  16
HETATM   16  C   UNL     1      42.913 -18.142   3.257  1.00  0.00    -0.041 A 
HETATM   17  C   UNL     1      43.766 -18.641   4.258  1.00  0.00     0.008 A 
HETATM   18  C   UNL     1      44.387 -19.882   4.113  1.00  0.00     0.001 A 
HETATM   19  C   UNL     1      44.161 -20.644   2.970  1.00  0.00     0.000 A 
HETATM   20  C   UNL     1      43.316 -20.167   1.972  1.00  0.00     0.001 A 
HETATM   21  C   UNL     1      42.692 -18.926   2.112  1.00  0.00     0.008 A 
ENDBRANCH   9  16
ENDBRANCH   6   9
ENDBRANCH   3   5
ENDBRANCH   1   3
BRANCH   1  22
HETATM   22  C   UNL     1      42.189 -12.519   2.697  1.00  0.00     0.034 A 
HETATM   23  C   UNL     1      43.464 -12.109   3.072  1.00  0.00     0.031 A 
HETATM   24  C   UNL     1      43.708 -11.613   4.366  1.00  0.00     0.026 A 
HETATM   25  C   UNL     1      42.684 -11.495   5.312  1.00  0.00     0.010 A 
HETATM   26  C   UNL     1      41.409 -11.924   4.926  1.00  0.00     0.026 A 
HETATM   27  C   UNL     1      41.166 -12.436   3.649  1.00  0.00     0.031 A 
BRANCH  25  28
HETATM   28  N   UNL     1      42.860 -10.995   6.606  1.00  0.00    -0.280 NA
HETATM   29  C   UNL     1      42.326  -9.625   6.776  1.00  0.00     0.115 C 
HETATM   30  C   UNL     1      42.189  -9.293   8.274  1.00  0.00     0.141 C 
HETATM   31  N   UNL     1      43.403  -9.583   9.053  1.00  0.00    -0.345 N 
HETATM   32  C   UNL     1      43.756  -8.935  10.244  1.00  0.00     0.260 C 
HETATM   33  C   UNL     1      44.058 -10.865   8.753  1.00  0.00     0.141 C 
HETATM   34  O   UNL     1      44.775  -9.257  10.855  1.00  0.00    -0.267 OA
HETATM   35  C   UNL     1      44.180 -11.152   7.246  1.00  0.00     0.115 C 
BRANCH  32  36
HETATM   36  C   UNL     1      42.878  -7.884  10.734  1.00  0.00     0.072 A 
HETATM   37  S   UNL     1      41.653  -8.285  11.862  1.00  0.00    -0.097 SA
HETATM   38  C   UNL     1      41.088  -6.671  11.919  1.00  0.00     0.050 A 
HETATM   39  C   UNL     1      41.797  -5.844  11.078  1.00  0.00     0.009 A 
HETATM   40  C   UNL     1      42.823  -6.548  10.380  1.00  0.00     0.025 A 
ENDBRANCH  32  36
ENDBRANCH  25  28
ENDBRANCH   1  22
TORSDOF 8
ENDMDL
MODEL 3
REMARK VINA RESULT:      -9.5      1.412      1.810
REMARK  8 active torsions:
REMARK  status: ('A' for Active; 'I' for Inactive)
REMARK    1  A    between atoms: C_4  and  C_5 
REMARK    2  A    between atoms: C_5  and  C_6 
REMARK    3  A    between atoms: C_5  and  C_31 
REMARK       I    between atoms: C_6  and  N_7 
REMARK    4  A    between atoms: N_7  and  C_8 
REMARK    5  A    between atoms: C_8  and  N_9 
REMARK    6  A    between atoms: N_9  and  C_10 
REMARK    7  A    between atoms: C_13  and  N_14 
REMARK       I    between atoms: N_17  and  C_18 
REMARK    8  A    between atoms: C_18  and  C_19 
ROOT
HETATM    1  N   UNL     1      41.531 -12.966   1.352  1.00  0.00    -0.333 N 
HETATM    2  H   UNL     1      41.828 -12.492   0.497  1.00  0.00     0.168 HD
ENDROOT
BRANCH   1   3
HETATM    3  C   UNL     1      41.132 -14.262   1.124  1.00  0.00     0.178 C 
HETATM    4  S   UNL     1      40.043 -14.874   0.019  1.00  0.00    -0.040 SA
BRANCH   3   5
HETATM    5  N   UNL     1      41.689 -15.191   1.994  1.00  0.00    -0.303 N 
HETATM    6  C   UNL     1      43.027 -15.530   2.178  1.00  0.00     0.236 C 
HETATM    7  O   UNL     1      43.903 -15.224   1.365  1.00  0.00    -0.272 OA
HETATM    8  H   UNL     1      41.021 -15.565   2.656  1.00  0.00     0.171 HD
BRANCH   6   9
HETATM    9  C   UNL     1      43.346 -16.301   3.467  1.00  0.00     0.144 C 
BRANCH   9  10
HETATM   10  C   UNL     1      43.462 -17.819   3.329  1.00  0.00    -0.041 A 
HETATM   11  C   UNL     1      44.066 -18.538   4.380  1.00  0.00     0.008 A 
HETATM   12  C   UNL     1      44.197 -19.926   4.328  1.00  0.00     0.001 A 
HETATM   13  C   UNL     1      43.729 -20.624   3.219  1.00  0.00     0.000 A 
HETATM   14  C   UNL     1      43.141 -19.933   2.164  1.00  0.00     0.001 A 
HETATM   15  C   UNL     1      43.011 -18.541   2.213  1.00  0.00     0.008 A 
ENDBRANCH   9  10
BRANCH   9  16
HETATM   16  C   UNL     1      42.440 -15.816   4.603  1.00  0.00    -0.041 A 
HETATM   17  C   UNL     1      42.753 -14.607   5.249  1.00  0.00     0.008 A 
HETATM   18  C   UNL     1      41.924 -14.097   6.247  1.00  0.00     0.001 A 
HETATM   19  C   UNL     1      40.768 -14.782   6.611  1.00  0.00     0.000 A 
HETATM   20  C   UNL     1      40.441 -15.978   5.978  1.00  0.00     0.001 A 
HETATM   21  C   UNL     1      41.267 -16.494   4.978  1.00  0.00     0.008 A 
ENDBRANCH   9  16
ENDBRANCH   6   9
ENDBRANCH   3   5
ENDBRANCH   1   3
BRANCH   1  22
HETATM   22  C   UNL     1      41.684 -12.177   2.511  1.00  0.00     0.034 A 
HETATM   23  C   UNL     1      42.875 -11.651   3.000  1.00  0.00     0.031 A 
HETATM   24  C   UNL     1      42.885 -10.853   4.159  1.00  0.00     0.026 A 
HETATM   25  C   UNL     1      41.708 -10.546   4.849  1.00  0.00     0.010 A 
HETATM   26  C   UNL     1      40.519 -11.094   4.355  1.00  0.00     0.026 A 
HETATM   27  C   UNL     1      40.506 -11.903   3.215  1.00  0.00     0.031 A 
BRANCH  25  28
HETATM   28  N   UNL     1      41.652  -9.748   5.996  1.00  0.00    -0.280 NA
HETATM   29  C   UNL     1      41.985 -10.486   7.235  1.00  0.00     0.115 C 
HETATM   30  C   UNL     1      42.290  -9.496   8.374  1.00  0.00     0.141 C 
HETATM   31  N   UNL     1      41.266  -8.451   8.535  1.00  0.00    -0.345 N 
HETATM   32  C   UNL     1      40.999  -7.780   9.736  1.00  0.00     0.260 C 
HETATM   33  C   UNL     1      40.782  -7.840   7.288  1.00  0.00     0.141 C 
HETATM   34  O   UNL     1      40.145  -6.894   9.781  1.00  0.00    -0.267 OA
HETATM   35  C   UNL     1      40.483  -8.866   6.181  1.00  0.00     0.115 C 
BRANCH  32  36
HETATM   36  C   UNL     1      41.766  -8.157  10.912  1.00  0.00     0.072 A 
HETATM   37  S   UNL     1      41.211  -9.453  11.884  1.00  0.00    -0.097 SA
HETATM   38  C   UNL     1      42.514  -9.275  12.978  1.00  0.00     0.050 A 
HETATM   39  C   UNL     1      43.344  -8.233  12.630  1.00  0.00     0.009 A 
HETATM   40  C   UNL     1      42.904  -7.576  11.444  1.00  0.00     0.025 A 
ENDBRANCH  32  36
ENDBRANCH  25  28
ENDBRANCH   1  22
TORSDOF 8
ENDMDL
MODEL 4
REMARK VINA RESULT:      -8.9      1.868      3.802
REMARK  8 active torsions:
REMARK  status: ('A' for Active; 'I' for Inactive)
REMARK    1  A    between atoms: C_4  and  C_5 
REMARK    2  A    between atoms: C_5  and  C_6 
REMARK    3  A    between atoms: C_5  and  C_31 
REMARK       I    between atoms: C_6  and  N_7 
REMARK    4  A    between atoms: N_7  and  C_8 
REMARK    5  A    between atoms: C_8  and  N_9 
REMARK    6  A    between atoms: N_9  and  C_10 
REMARK    7  A    between atoms: C_13  and  N_14 
REMARK       I    between atoms: N_17  and  C_18 
REMARK    8  A    between atoms: C_18  and  C_19 
ROOT
HETATM    1  N   UNL     1      41.194 -12.721   0.529  1.00  0.00    -0.333 N 
HETATM    2  H   UNL     1      41.924 -12.411  -0.114  1.00  0.00     0.168 HD
ENDROOT
BRANCH   1   3
HETATM    3  C   UNL     1      40.563 -13.864   0.097  1.00  0.00     0.178 C 
HETATM    4  S   UNL     1      39.667 -14.143  -1.282  1.00  0.00    -0.040 SA
BRANCH   3   5
HETATM    5  N   UNL     1      40.646 -14.930   0.984  1.00  0.00    -0.303 N 
HETATM    6  C   UNL     1      41.738 -15.375   1.723  1.00  0.00     0.236 C 
HETATM    7  O   UNL     1      42.894 -15.024   1.469  1.00  0.00    -0.272 OA
HETATM    8  H   UNL     1      39.745 -15.342   1.193  1.00  0.00     0.171 HD
BRANCH   6   9
HETATM    9  C   UNL     1      41.412 -16.323   2.885  1.00  0.00     0.144 C 
BRANCH   9  10
HETATM   10  C   UNL     1      40.981 -15.659   4.193  1.00  0.00    -0.041 A 
HETATM   11  C   UNL     1      40.498 -16.482   5.230  1.00  0.00     0.008 A 
HETATM   12  C   UNL     1      40.097 -15.946   6.454  1.00  0.00     0.001 A 
HETATM   13  C   UNL     1      40.166 -14.573   6.665  1.00  0.00     0.000 A 
HETATM   14  C   UNL     1      40.627 -13.740   5.650  1.00  0.00     0.001 A 
HETATM   15  C   UNL     1      41.028 -14.275   4.421  1.00  0.00     0.008 A 
ENDBRANCH   9  10
BRANCH   9  16
HETATM   16  C   UNL     1      42.512 -17.380   3.022  1.00  0.00    -0.041 A 
HETATM   17  C   UNL     1      43.419 -17.277   4.093  1.00  0.00     0.008 A 
HETATM   18  C   UNL     1      44.400 -18.249   4.292  1.00  0.00     0.001 A 
HETATM   19  C   UNL     1      44.486 -19.338   3.430  1.00  0.00     0.000 A 
HETATM   20  C   UNL     1      43.593 -19.457   2.368  1.00  0.00     0.001 A 
HETATM   21  C   UNL     1      42.610 -18.488   2.164  1.00  0.00     0.008 A 
ENDBRANCH   9  16
ENDBRANCH   6   9
ENDBRANCH   3   5
ENDBRANCH   1   3
BRANCH   1  22
HETATM   22  C   UNL     1      41.100 -11.930   1.693  1.00  0.00     0.034 A 
HETATM   23  C   UNL     1      39.929 -11.481   2.293  1.00  0.00     0.031 A 
HETATM   24  C   UNL     1      39.975 -10.716   3.474  1.00  0.00     0.026 A 
HETATM   25  C   UNL     1      41.187 -10.396   4.094  1.00  0.00     0.010 A 
HETATM   26  C   UNL     1      42.358 -10.842   3.471  1.00  0.00     0.026 A 
HETATM   27  C   UNL     1      42.319 -11.585   2.288  1.00  0.00     0.031 A 
BRANCH  25  28
HETATM   28  N   UNL     1      41.297  -9.655   5.275  1.00  0.00    -0.280 NA
HETATM   29  C   UNL     1      41.672 -10.479   6.445  1.00  0.00     0.115 C 
HETATM   30  C   UNL     1      42.156  -9.576   7.595  1.00  0.00     0.141 C 
HETATM   31  N   UNL     1      41.241  -8.463   7.893  1.00  0.00    -0.345 N 
HETATM   32  C   UNL     1      41.135  -7.835   9.141  1.00  0.00     0.260 C 
HETATM   33  C   UNL     1      40.704  -7.753   6.723  1.00  0.00     0.141 C 
HETATM   34  O   UNL     1      40.366  -6.888   9.302  1.00  0.00    -0.267 OA
HETATM   35  C   UNL     1      40.226  -8.693   5.602  1.00  0.00     0.115 C 
BRANCH  32  36
HETATM   36  C   UNL     1      41.966  -8.332  10.226  1.00  0.00     0.072 A 
HETATM   37  S   UNL     1      41.318  -9.498  11.300  1.00  0.00    -0.097 SA
HETATM   38  C   UNL     1      42.760  -9.545  12.220  1.00  0.00     0.050 A 
HETATM   39  C   UNL     1      43.710  -8.673  11.739  1.00  0.00     0.009 A 
HETATM   40  C   UNL     1      43.246  -7.959  10.595  1.00  0.00     0.025 A 
ENDBRANCH  32  36
ENDBRANCH  25  28
ENDBRANCH   1  22
TORSDOF 8
ENDMDL
MODEL 5
REMARK VINA RESULT:      -8.5      2.511     10.728
REMARK  8 active torsions:
REMARK  status: ('A' for Active; 'I' for Inactive)
REMARK    1  A    between atoms: C_4  and  C_5 
REMARK    2  A    between atoms: C_5  and  C_6 
REMARK    3  A    between atoms: C_5  and  C_31 
REMARK       I    between atoms: C_6  and  N_7 
REMARK    4  A    between atoms: N_7  and  C_8 
REMARK    5  A    between atoms: C_8  and  N_9 
REMARK    6  A    between atoms: N_9  and  C_10 
REMARK    7  A    between atoms: C_13  and  N_14 
REMARK       I    between atoms: N_17  and  C_18 
REMARK    8  A    between atoms: C_18  and  C_19 
ROOT
HETATM    1  N   UNL     1      39.243  -8.874   8.577  1.00  0.00    -0.333 N 
HETATM    2  H   UNL     1      38.273  -9.118   8.787  1.00  0.00     0.168 HD
ENDROOT
BRANCH   1   3
HETATM    3  C   UNL     1      39.677  -7.784   9.292  1.00  0.00     0.178 C 
HETATM    4  S   UNL     1      39.330  -6.163   9.101  1.00  0.00    -0.040 SA
BRANCH   3   5
HETATM    5  N   UNL     1      40.592  -8.087  10.293  1.00  0.00    -0.303 N 
HETATM    6  C   UNL     1      40.738  -9.264  11.022  1.00  0.00     0.236 C 
HETATM    7  O   UNL     1      39.861 -10.132  11.057  1.00  0.00    -0.272 OA
HETATM    8  H   UNL     1      41.313  -7.384  10.397  1.00  0.00     0.171 HD
BRANCH   6   9
HETATM    9  C   UNL     1      42.068  -9.419  11.773  1.00  0.00     0.144 C 
BRANCH   9  10
HETATM   10  C   UNL     1      42.189  -8.652  13.090  1.00  0.00    -0.041 A 
HETATM   11  C   UNL     1      43.171  -7.646  13.186  1.00  0.00     0.008 A 
HETATM   12  C   UNL     1      43.332  -6.899  14.354  1.00  0.00     0.001 A 
HETATM   13  C   UNL     1      42.515  -7.147  15.452  1.00  0.00     0.000 A 
HETATM   14  C   UNL     1      41.548  -8.146  15.384  1.00  0.00     0.001 A 
HETATM   15  C   UNL     1      41.387  -8.897  14.215  1.00  0.00     0.008 A 
ENDBRANCH   9  10
BRANCH   9  16
HETATM   16  C   UNL     1      43.239  -9.238  10.803  1.00  0.00    -0.041 A 
HETATM   17  C   UNL     1      44.275 -10.189  10.807  1.00  0.00     0.008 A 
HETATM   18  C   UNL     1      45.331 -10.097   9.900  1.00  0.00     0.001 A 
HETATM   19  C   UNL     1      45.366  -9.059   8.974  1.00  0.00     0.000 A 
HETATM   20  C   UNL     1      44.346  -8.111   8.953  1.00  0.00     0.001 A 
HETATM   21  C   UNL     1      43.287  -8.198   9.858  1.00  0.00     0.008 A 
ENDBRANCH   9  16
ENDBRANCH   6   9
ENDBRANCH   3   5
ENDBRANCH   1   3
BRANCH   1  22
HETATM   22  C   UNL     1      39.861  -9.765   7.676  1.00  0.00     0.034 A 
HETATM   23  C   UNL     1      41.195  -9.749   7.282  1.00  0.00     0.031 A 
HETATM   24  C   UNL     1      41.694 -10.717   6.391  1.00  0.00     0.026 A 
HETATM   25  C   UNL     1      40.880 -11.736   5.884  1.00  0.00     0.010 A 
HETATM   26  C   UNL     1      39.537 -11.732   6.277  1.00  0.00     0.026 A 
HETATM   27  C   UNL     1      39.032 -10.761   7.146  1.00  0.00     0.031 A 
BRANCH  25  28
HETATM   28  N   UNL     1      41.320 -12.734   5.010  1.00  0.00    -0.280 NA
HETATM   29  C   UNL     1      41.976 -13.865   5.704  1.00  0.00     0.115 C 
HETATM   30  C   UNL     1      42.074 -15.079   4.760  1.00  0.00     0.141 C 
HETATM   31  N   UNL     1      42.640 -14.753   3.441  1.00  0.00    -0.345 N 
HETATM   32  C   UNL     1      43.312 -15.666   2.618  1.00  0.00     0.260 C 
HETATM   33  C   UNL     1      42.136 -13.518   2.822  1.00  0.00     0.141 C 
HETATM   34  O   UNL     1      43.730 -15.323   1.512  1.00  0.00    -0.267 OA
HETATM   35  C   UNL     1      42.060 -12.331   3.799  1.00  0.00     0.115 C 
BRANCH  32  36
HETATM   36  C   UNL     1      43.488 -17.024   3.109  1.00  0.00     0.072 A 
HETATM   37  S   UNL     1      44.167 -17.263   4.663  1.00  0.00    -0.097 SA
HETATM   38  C   UNL     1      44.077 -18.965   4.511  1.00  0.00     0.050 A 
HETATM   39  C   UNL     1      43.565 -19.350   3.292  1.00  0.00     0.009 A 
HETATM   40  C   UNL     1      43.238 -18.228   2.474  1.00  0.00     0.025 A 
ENDBRANCH  32  36
ENDBRANCH  25  28
ENDBRANCH   1  22
TORSDOF 8
ENDMDL
MODEL 6
REMARK VINA RESULT:      -8.3      4.859      8.932
REMARK  8 active torsions:
REMARK  status: ('A' for Active; 'I' for Inactive)
REMARK    1  A    between atoms: C_4  and  C_5 
REMARK    2  A    between atoms: C_5  and  C_6 
REMARK    3  A    between atoms: C_5  and  C_31 
REMARK       I    between atoms: C_6  and  N_7 
REMARK    4  A    between atoms: N_7  and  C_8 
REMARK    5  A    between atoms: C_8  and  N_9 
REMARK    6  A    between atoms: N_9  and  C_10 
REMARK    7  A    between atoms: C_13  and  N_14 
REMARK       I    between atoms: N_17  and  C_18 
REMARK    8  A    between atoms: C_18  and  C_19 
ROOT
HETATM    1  N   UNL     1      41.478 -12.006   5.445  1.00  0.00    -0.333 N 
HETATM    2  H   UNL     1      41.005 -11.646   6.275  1.00  0.00     0.168 HD
ENDROOT
BRANCH   1   3
HETATM    3  C   UNL     1      42.460 -12.918   5.753  1.00  0.00     0.178 C 
HETATM    4  S   UNL     1      43.782 -12.777   6.759  1.00  0.00    -0.040 SA
BRANCH   3   5
HETATM    5  N   UNL     1      42.353 -14.123   5.069  1.00  0.00    -0.303 N 
HETATM    6  C   UNL     1      41.299 -15.032   5.051  1.00  0.00     0.236 C 
HETATM    7  O   UNL     1      40.395 -15.010   5.891  1.00  0.00    -0.272 OA
HETATM    8  H   UNL     1      43.105 -14.270   4.407  1.00  0.00     0.171 HD
BRANCH   6   9
HETATM    9  C   UNL     1      41.329 -16.061   3.912  1.00  0.00     0.144 C 
BRANCH   9  10
HETATM   10  C   UNL     1      42.471 -17.075   3.952  1.00  0.00    -0.041 A 
HETATM   11  C   UNL     1      43.026 -17.403   5.206  1.00  0.00     0.008 A 
HETATM   12  C   UNL     1      44.064 -18.328   5.320  1.00  0.00     0.001 A 
HETATM   13  C   UNL     1      44.573 -18.942   4.181  1.00  0.00     0.000 A 
HETATM   14  C   UNL     1      44.049 -18.623   2.931  1.00  0.00     0.001 A 
HETATM   15  C   UNL     1      43.010 -17.694   2.814  1.00  0.00     0.008 A 
ENDBRANCH   9  10
BRANCH   9  16
HETATM   16  C   UNL     1      41.130 -15.355   2.567  1.00  0.00    -0.041 A 
HETATM   17  C   UNL     1      40.041 -15.730   1.761  1.00  0.00     0.008 A 
HETATM   18  C   UNL     1      39.786 -15.074   0.556  1.00  0.00     0.001 A 
HETATM   19  C   UNL     1      40.611 -14.032   0.143  1.00  0.00     0.000 A 
HETATM   20  C   UNL     1      41.692 -13.646   0.931  1.00  0.00     0.001 A 
HETATM   21  C   UNL     1      41.951 -14.299   2.138  1.00  0.00     0.008 A 
ENDBRANCH   9  16
ENDBRANCH   6   9
ENDBRANCH   3   5
ENDBRANCH   1   3
BRANCH   1  22
HETATM   22  C   UNL     1      40.939 -11.517   4.237  1.00  0.00     0.034 A 
HETATM   23  C   UNL     1      41.539 -10.606   3.374  1.00  0.00     0.031 A 
HETATM   24  C   UNL     1      40.901 -10.219   2.181  1.00  0.00     0.026 A 
HETATM   25  C   UNL     1      39.657 -10.742   1.811  1.00  0.00     0.010 A 
HETATM   26  C   UNL     1      39.059 -11.646   2.695  1.00  0.00     0.026 A 
HETATM   27  C   UNL     1      39.679 -12.019   3.891  1.00  0.00     0.031 A 
BRANCH  25  28
HETATM   28  N   UNL     1      38.981 -10.409   0.633  1.00  0.00    -0.280 NA
HETATM   29  C   UNL     1      37.832 -11.298   0.353  1.00  0.00     0.115 C 
HETATM   30  C   UNL     1      36.914 -10.657  -0.705  1.00  0.00     0.141 C 
HETATM   31  N   UNL     1      37.633 -10.185  -1.899  1.00  0.00    -0.345 N 
HETATM   32  C   UNL     1      37.063 -10.061  -3.172  1.00  0.00     0.260 C 
HETATM   33  C   UNL     1      38.888  -9.463  -1.639  1.00  0.00     0.141 C 
HETATM   34  O   UNL     1      37.724  -9.628  -4.116  1.00  0.00    -0.267 OA
HETATM   35  C   UNL     1      39.776 -10.142  -0.581  1.00  0.00     0.115 C 
BRANCH  32  36
HETATM   36  C   UNL     1      35.671 -10.449  -3.336  1.00  0.00     0.072 A 
HETATM   37  S   UNL     1      34.442  -9.352  -2.867  1.00  0.00    -0.097 SA
HETATM   38  C   UNL     1      33.205 -10.449  -3.305  1.00  0.00     0.050 A 
HETATM   39  C   UNL     1      33.712 -11.639  -3.775  1.00  0.00     0.009 A 
HETATM   40  C   UNL     1      35.138 -11.647  -3.780  1.00  0.00     0.025 A 
ENDBRANCH  32  36
ENDBRANCH  25  28
ENDBRANCH   1  22
TORSDOF 8
ENDMDL
MODEL 7
REMARK VINA RESULT:      -8.3      2.695      9.879
REMARK  8 active torsions:
REMARK  status: ('A' for Active; 'I' for Inactive)
REMARK    1  A    between atoms: C_4  and  C_5 
REMARK    2  A    between atoms: C_5  and  C_6 
REMARK    3  A    between atoms: C_5  and  C_31 
REMARK       I    between atoms: C_6  and  N_7 
REMARK    4  A    between atoms: N_7  and  C_8 
REMARK    5  A    between atoms: C_8  and  N_9 
REMARK    6  A    between atoms: N_9  and  C_10 
REMARK    7  A    between atoms: C_13  and  N_14 
REMARK       I    between atoms: N_17  and  C_18 
REMARK    8  A    between atoms: C_18  and  C_19 
ROOT
HETATM    1  N   UNL     1      40.508  -8.231   5.452  1.00  0.00    -0.333 N 
HETATM    2  H   UNL     1      40.233  -7.964   4.505  1.00  0.00     0.168 HD
ENDROOT
BRANCH   1   3
HETATM    3  C   UNL     1      40.302  -7.223   6.363  1.00  0.00     0.178 C 
HETATM    4  S   UNL     1      39.061  -6.115   6.482  1.00  0.00    -0.040 SA
BRANCH   3   5
HETATM    5  N   UNL     1      41.325  -7.078   7.293  1.00  0.00    -0.303 N 
HETATM    6  C   UNL     1      41.465  -7.674   8.544  1.00  0.00     0.236 C 
HETATM    7  O   UNL     1      40.524  -8.224   9.122  1.00  0.00    -0.272 OA
HETATM    8  H   UNL     1      42.118  -6.563   6.933  1.00  0.00     0.171 HD
BRANCH   6   9
HETATM    9  C   UNL     1      42.873  -7.613   9.154  1.00  0.00     0.144 C 
BRANCH   9  10
HETATM   10  C   UNL     1      43.843  -8.709   8.714  1.00  0.00    -0.041 A 
HETATM   11  C   UNL     1      45.197  -8.363   8.529  1.00  0.00     0.008 A 
HETATM   12  C   UNL     1      46.141  -9.313   8.138  1.00  0.00     0.001 A 
HETATM   13  C   UNL     1      45.749 -10.629   7.918  1.00  0.00     0.000 A 
HETATM   14  C   UNL     1      44.414 -10.990   8.081  1.00  0.00     0.001 A 
HETATM   15  C   UNL     1      43.466 -10.038   8.471  1.00  0.00     0.008 A 
ENDBRANCH   9  10
BRANCH   9  16
HETATM   16  C   UNL     1      42.776  -7.397  10.667  1.00  0.00    -0.041 A 
HETATM   17  C   UNL     1      43.251  -8.404  11.526  1.00  0.00     0.008 A 
HETATM   18  C   UNL     1      43.239  -8.226  12.909  1.00  0.00     0.001 A 
HETATM   19  C   UNL     1      42.759  -7.039  13.455  1.00  0.00     0.000 A 
HETATM   20  C   UNL     1      42.290  -6.029  12.618  1.00  0.00     0.001 A 
HETATM   21  C   UNL     1      42.299  -6.202  11.233  1.00  0.00     0.008 A 
ENDBRANCH   9  16
ENDBRANCH   6   9
ENDBRANCH   3   5
ENDBRANCH   1   3
BRANCH   1  22
HETATM   22  C   UNL     1      40.946  -9.568   5.551  1.00  0.00     0.034 A 
HETATM   23  C   UNL     1      40.296 -10.603   6.216  1.00  0.00     0.031 A 
HETATM   24  C   UNL     1      40.831 -11.905   6.216  1.00  0.00     0.026 A 
HETATM   25  C   UNL     1      42.016 -12.210   5.539  1.00  0.00     0.010 A 
HETATM   26  C   UNL     1      42.667 -11.157   4.887  1.00  0.00     0.026 A 
HETATM   27  C   UNL     1      42.150  -9.859   4.900  1.00  0.00     0.031 A 
BRANCH  25  28
HETATM   28  N   UNL     1      42.589 -13.485   5.488  1.00  0.00    -0.280 NA
HETATM   29  C   UNL     1      41.970 -14.359   4.466  1.00  0.00     0.115 C 
HETATM   30  C   UNL     1      42.877 -15.572   4.189  1.00  0.00     0.141 C 
HETATM   31  N   UNL     1      43.318 -16.267   5.408  1.00  0.00    -0.345 N 
HETATM   32  C   UNL     1      43.676 -17.621   5.466  1.00  0.00     0.260 C 
HETATM   33  C   UNL     1      43.756 -15.398   6.511  1.00  0.00     0.141 C 
HETATM   34  O   UNL     1      44.065 -18.122   6.521  1.00  0.00    -0.267 OA
HETATM   35  C   UNL     1      42.817 -14.203   6.757  1.00  0.00     0.115 C 
BRANCH  32  36
HETATM   36  C   UNL     1      43.581 -18.403   4.243  1.00  0.00     0.072 A 
HETATM   37  S   UNL     1      44.065 -20.045   4.270  1.00  0.00    -0.097 SA
HETATM   38  C   UNL     1      43.713 -20.243   2.607  1.00  0.00     0.050 A 
HETATM   39  C   UNL     1      43.260 -19.077   2.032  1.00  0.00     0.009 A 
HETATM   40  C   UNL     1      43.198 -18.008   2.974  1.00  0.00     0.025 A 
ENDBRANCH  32  36
ENDBRANCH  25  28
ENDBRANCH   1  22
TORSDOF 8
ENDMDL
MODEL 8
REMARK VINA RESULT:      -8.3      4.721      9.104
REMARK  8 active torsions:
REMARK  status: ('A' for Active; 'I' for Inactive)
REMARK    1  A    between atoms: C_4  and  C_5 
REMARK    2  A    between atoms: C_5  and  C_6 
REMARK    3  A    between atoms: C_5  and  C_31 
REMARK       I    between atoms: C_6  and  N_7 
REMARK    4  A    between atoms: N_7  and  C_8 
REMARK    5  A    between atoms: C_8  and  N_9 
REMARK    6  A    between atoms: N_9  and  C_10 
REMARK    7  A    between atoms: C_13  and  N_14 
REMARK       I    between atoms: N_17  and  C_18 
REMARK    8  A    between atoms: C_18  and  C_19 
ROOT
HETATM    1  N   UNL     1      41.843 -11.582   5.531  1.00  0.00    -0.333 N 
HETATM    2  H   UNL     1      41.474 -11.083   6.342  1.00  0.00     0.168 HD
ENDROOT
BRANCH   1   3
HETATM    3  C   UNL     1      42.956 -12.329   5.834  1.00  0.00     0.178 C 
HETATM    4  S   UNL     1      44.066 -12.155   7.068  1.00  0.00    -0.040 SA
BRANCH   3   5
HETATM    5  N   UNL     1      43.220 -13.353   4.932  1.00  0.00    -0.303 N 
HETATM    6  C   UNL     1      42.507 -14.527   4.704  1.00  0.00     0.236 C 
HETATM    7  O   UNL     1      41.662 -14.950   5.497  1.00  0.00    -0.272 OA
HETATM    8  H   UNL     1      43.963 -13.128   4.284  1.00  0.00     0.171 HD
BRANCH   6   9
HETATM    9  C   UNL     1      42.832 -15.256   3.393  1.00  0.00     0.144 C 
BRANCH   9  10
HETATM   10  C   UNL     1      41.807 -15.106   2.269  1.00  0.00    -0.041 A 
HETATM   11  C   UNL     1      41.955 -14.028   1.373  1.00  0.00     0.008 A 
HETATM   12  C   UNL     1      41.062 -13.835   0.318  1.00  0.00     0.001 A 
HETATM   13  C   UNL     1      40.001 -14.715   0.139  1.00  0.00     0.000 A 
HETATM   14  C   UNL     1      39.827 -15.779   1.020  1.00  0.00     0.001 A 
HETATM   15  C   UNL     1      40.719 -15.973   2.080  1.00  0.00     0.008 A 
ENDBRANCH   9  10
BRANCH   9  16
HETATM   16  C   UNL     1      43.268 -16.694   3.690  1.00  0.00    -0.041 A 
HETATM   17  C   UNL     1      43.451 -17.582   2.614  1.00  0.00     0.008 A 
HETATM   18  C   UNL     1      43.905 -18.882   2.833  1.00  0.00     0.001 A 
HETATM   19  C   UNL     1      44.188 -19.314   4.125  1.00  0.00     0.000 A 
HETATM   20  C   UNL     1      44.017 -18.446   5.201  1.00  0.00     0.001 A 
HETATM   21  C   UNL     1      43.563 -17.143   4.988  1.00  0.00     0.008 A 
ENDBRANCH   9  16
ENDBRANCH   6   9
ENDBRANCH   3   5
ENDBRANCH   1   3
BRANCH   1  22
HETATM   22  C   UNL     1      41.065 -11.412   4.368  1.00  0.00     0.034 A 
HETATM   23  C   UNL     1      39.878 -12.071   4.064  1.00  0.00     0.031 A 
HETATM   24  C   UNL     1      39.182 -11.787   2.874  1.00  0.00     0.026 A 
HETATM   25  C   UNL     1      39.643 -10.828   1.966  1.00  0.00     0.010 A 
HETATM   26  C   UNL     1      40.845 -10.183   2.277  1.00  0.00     0.026 A 
HETATM   27  C   UNL     1      41.550 -10.475   3.448  1.00  0.00     0.031 A 
BRANCH  25  28
HETATM   28  N   UNL     1      38.989 -10.490   0.777  1.00  0.00    -0.280 NA
HETATM   29  C   UNL     1      37.899 -11.429   0.427  1.00  0.00     0.115 C 
HETATM   30  C   UNL     1      36.983 -10.801  -0.640  1.00  0.00     0.141 C 
HETATM   31  N   UNL     1      37.715 -10.250  -1.792  1.00  0.00    -0.345 N 
HETATM   32  C   UNL     1      37.181 -10.111  -3.079  1.00  0.00     0.260 C 
HETATM   33  C   UNL     1      38.919  -9.472  -1.464  1.00  0.00     0.141 C 
HETATM   34  O   UNL     1      37.849  -9.611  -3.984  1.00  0.00    -0.267 OA
HETATM   35  C   UNL     1      39.808 -10.139  -0.399  1.00  0.00     0.115 C 
BRANCH  32  36
HETATM   36  C   UNL     1      35.819 -10.567  -3.304  1.00  0.00     0.072 A 
HETATM   37  S   UNL     1      34.520  -9.515  -2.931  1.00  0.00    -0.097 SA
HETATM   38  C   UNL     1      33.357 -10.679  -3.402  1.00  0.00     0.050 A 
HETATM   39  C   UNL     1      33.940 -11.857  -3.812  1.00  0.00     0.009 A 
HETATM   40  C   UNL     1      35.364 -11.799  -3.741  1.00  0.00     0.025 A 
ENDBRANCH  32  36
ENDBRANCH  25  28
ENDBRANCH   1  22
TORSDOF 8
ENDMDL
MODEL 9
REMARK VINA RESULT:      -8.1      4.192     12.838
REMARK  8 active torsions:
REMARK  status: ('A' for Active; 'I' for Inactive)
REMARK    1  A    between atoms: C_4  and  C_5 
REMARK    2  A    between atoms: C_5  and  C_6 
REMARK    3  A    between atoms: C_5  and  C_31 
REMARK       I    between atoms: C_6  and  N_7 
REMARK    4  A    between atoms: N_7  and  C_8 
REMARK    5  A    between atoms: C_8  and  N_9 
REMARK    6  A    between atoms: N_9  and  C_10 
REMARK    7  A    between atoms: C_13  and  N_14 
REMARK       I    between atoms: N_17  and  C_18 
REMARK    8  A    between atoms: C_18  and  C_19 
ROOT
HETATM    1  N   UNL     1      39.293  -4.222  12.380  1.00  0.00    -0.333 N 
HETATM    2  H   UNL     1      38.479  -3.822  11.909  1.00  0.00     0.168 HD
ENDROOT
BRANCH   1   3
HETATM    3  C   UNL     1      39.458  -3.729  13.652  1.00  0.00     0.178 C 
HETATM    4  S   UNL     1      39.396  -2.159  14.215  1.00  0.00    -0.040 SA
BRANCH   3   5
HETATM    5  N   UNL     1      39.783  -4.692  14.599  1.00  0.00    -0.303 N 
HETATM    6  C   UNL     1      39.015  -5.752  15.073  1.00  0.00     0.236 C 
HETATM    7  O   UNL     1      37.795  -5.812  14.898  1.00  0.00    -0.272 OA
HETATM    8  H   UNL     1      40.758  -4.668  14.870  1.00  0.00     0.171 HD
BRANCH   6   9
HETATM    9  C   UNL     1      39.786  -6.850  15.820  1.00  0.00     0.144 C 
BRANCH   9  10
HETATM   10  C   UNL     1      40.088  -6.574  17.293  1.00  0.00    -0.041 A 
HETATM   11  C   UNL     1      40.227  -7.676  18.161  1.00  0.00     0.008 A 
HETATM   12  C   UNL     1      40.513  -7.500  19.515  1.00  0.00     0.001 A 
HETATM   13  C   UNL     1      40.661  -6.217  20.030  1.00  0.00     0.000 A 
HETATM   14  C   UNL     1      40.515  -5.113  19.194  1.00  0.00     0.001 A 
HETATM   15  C   UNL     1      40.226  -5.287  17.836  1.00  0.00     0.008 A 
ENDBRANCH   9  10
BRANCH   9  16
HETATM   16  C   UNL     1      40.984  -7.308  14.983  1.00  0.00    -0.041 A 
HETATM   17  C   UNL     1      40.797  -8.332  14.037  1.00  0.00     0.008 A 
HETATM   18  C   UNL     1      41.844  -8.740  13.211  1.00  0.00     0.001 A 
HETATM   19  C   UNL     1      43.090  -8.128  13.313  1.00  0.00     0.000 A 
HETATM   20  C   UNL     1      43.291  -7.109  14.240  1.00  0.00     0.001 A 
HETATM   21  C   UNL     1      42.246  -6.697  15.070  1.00  0.00     0.008 A 
ENDBRANCH   9  16
ENDBRANCH   6   9
ENDBRANCH   3   5
ENDBRANCH   1   3
BRANCH   1  22
HETATM   22  C   UNL     1      39.956  -5.204  11.615  1.00  0.00     0.034 A 
HETATM   23  C   UNL     1      39.389  -6.354  11.078  1.00  0.00     0.031 A 
HETATM   24  C   UNL     1      40.160  -7.244  10.307  1.00  0.00     0.026 A 
HETATM   25  C   UNL     1      41.511  -7.000  10.039  1.00  0.00     0.010 A 
HETATM   26  C   UNL     1      42.073  -5.847  10.598  1.00  0.00     0.026 A 
HETATM   27  C   UNL     1      41.316  -4.970  11.380  1.00  0.00     0.031 A 
BRANCH  25  28
HETATM   28  N   UNL     1      42.325  -7.836   9.269  1.00  0.00    -0.280 NA
HETATM   29  C   UNL     1      41.681  -9.125   8.933  1.00  0.00     0.115 C 
HETATM   30  C   UNL     1      42.441  -9.814   7.785  1.00  0.00     0.141 C 
HETATM   31  N   UNL     1      43.894  -9.890   8.004  1.00  0.00    -0.345 N 
HETATM   32  C   UNL     1      44.732 -10.863   7.445  1.00  0.00     0.260 C 
HETATM   33  C   UNL     1      44.522  -8.666   8.526  1.00  0.00     0.141 C 
HETATM   34  O   UNL     1      45.945 -10.840   7.652  1.00  0.00    -0.267 OA
HETATM   35  C   UNL     1      43.732  -8.016   9.676  1.00  0.00     0.115 C 
BRANCH  32  36
HETATM   36  C   UNL     1      44.124 -11.886   6.609  1.00  0.00     0.072 A 
HETATM   37  S   UNL     1      43.817 -11.536   4.961  1.00  0.00    -0.097 SA
HETATM   38  C   UNL     1      43.135 -13.082   4.693  1.00  0.00     0.050 A 
HETATM   39  C   UNL     1      43.115 -13.845   5.839  1.00  0.00     0.009 A 
HETATM   40  C   UNL     1      43.673 -13.148   6.951  1.00  0.00     0.025 A 
ENDBRANCH  32  36
ENDBRANCH  25  28
ENDBRANCH   1  22
TORSDOF 8
ENDMDL
MODEL 10
REMARK VINA RESULT:      -8.1      6.299     10.395
REMARK  8 active torsions:
REMARK  status: ('A' for Active; 'I' for Inactive)
REMARK    1  A    between atoms: C_4  and  C_5 
REMARK    2  A    between atoms: C_5  and  C_6 
REMARK    3  A    between atoms: C_5  and  C_31 
REMARK       I    between atoms: C_6  and  N_7 
REMARK    4  A    between atoms: N_7  and  C_8 
REMARK    5  A    between atoms: C_8  and  N_9 
REMARK    6  A    between atoms: N_9  and  C_10 
REMARK    7  A    between atoms: C_13  and  N_14 
REMARK       I    between atoms: N_17  and  C_18 
REMARK    8  A    between atoms: C_18  and  C_19 
ROOT
HETATM    1  N   UNL     1      40.099  -5.227   9.565  1.00  0.00    -0.333 N 
HETATM    2  H   UNL     1      39.478  -4.436   9.385  1.00  0.00     0.168 HD
ENDROOT
BRANCH   1   3
HETATM    3  C   UNL     1      40.426  -5.909   8.417  1.00  0.00     0.178 C 
HETATM    4  S   UNL     1      40.193  -5.499   6.817  1.00  0.00    -0.040 SA
BRANCH   3   5
HETATM    5  N   UNL     1      40.988  -7.160   8.639  1.00  0.00    -0.303 N 
HETATM    6  C   UNL     1      42.328  -7.537   8.621  1.00  0.00     0.236 C 
HETATM    7  O   UNL     1      43.206  -6.829   8.119  1.00  0.00    -0.272 OA
HETATM    8  H   UNL     1      40.319  -7.840   8.979  1.00  0.00     0.171 HD
BRANCH   6   9
HETATM    9  C   UNL     1      42.647  -8.888   9.277  1.00  0.00     0.144 C 
BRANCH   9  10
HETATM   10  C   UNL     1      42.588  -8.923  10.804  1.00  0.00    -0.041 A 
HETATM   11  C   UNL     1      41.665  -9.798  11.413  1.00  0.00     0.008 A 
HETATM   12  C   UNL     1      41.563  -9.890  12.802  1.00  0.00     0.001 A 
HETATM   13  C   UNL     1      42.378  -9.106  13.610  1.00  0.00     0.000 A 
HETATM   14  C   UNL     1      43.287  -8.225  13.029  1.00  0.00     0.001 A 
HETATM   15  C   UNL     1      43.390  -8.129  11.638  1.00  0.00     0.008 A 
ENDBRANCH   9  10
BRANCH   9  16
HETATM   16  C   UNL     1      43.918  -9.480   8.660  1.00  0.00    -0.041 A 
HETATM   17  C   UNL     1      43.821 -10.682   7.935  1.00  0.00     0.008 A 
HETATM   18  C   UNL     1      44.940 -11.227   7.306  1.00  0.00     0.001 A 
HETATM   19  C   UNL     1      46.169 -10.578   7.385  1.00  0.00     0.000 A 
HETATM   20  C   UNL     1      46.281  -9.385   8.094  1.00  0.00     0.001 A 
HETATM   21  C   UNL     1      45.164  -8.835   8.727  1.00  0.00     0.008 A 
ENDBRANCH   9  16
ENDBRANCH   6   9
ENDBRANCH   3   5
ENDBRANCH   1   3
BRANCH   1  22
HETATM   22  C   UNL     1      40.487  -5.338  10.916  1.00  0.00     0.034 A 
HETATM   23  C   UNL     1      41.599  -4.749  11.507  1.00  0.00     0.031 A 
HETATM   24  C   UNL     1      41.859  -4.919  12.880  1.00  0.00     0.026 A 
HETATM   25  C   UNL     1      41.007  -5.666  13.700  1.00  0.00     0.010 A 
HETATM   26  C   UNL     1      39.899  -6.265  13.090  1.00  0.00     0.026 A 
HETATM   27  C   UNL     1      39.648  -6.115  11.723  1.00  0.00     0.031 A 
BRANCH  25  28
HETATM   28  N   UNL     1      41.202  -5.858  15.071  1.00  0.00    -0.280 NA
HETATM   29  C   UNL     1      40.526  -7.068  15.590  1.00  0.00     0.115 C 
HETATM   30  C   UNL     1      41.090  -7.436  16.975  1.00  0.00     0.141 C 
HETATM   31  N   UNL     1      41.131  -6.303  17.913  1.00  0.00    -0.345 N 
HETATM   32  C   UNL     1      41.084  -6.425  19.308  1.00  0.00     0.260 C 
HETATM   33  C   UNL     1      41.622  -5.035  17.354  1.00  0.00     0.141 C 
HETATM   34  O   UNL     1      41.155  -5.428  20.027  1.00  0.00    -0.267 OA
HETATM   35  C   UNL     1      41.028  -4.704  15.974  1.00  0.00     0.115 C 
BRANCH  32  36
HETATM   36  C   UNL     1      40.960  -7.760  19.871  1.00  0.00     0.072 A 
HETATM   37  S   UNL     1      42.380  -8.604  20.325  1.00  0.00    -0.097 SA
HETATM   38  C   UNL     1      41.483  -9.973  20.825  1.00  0.00     0.050 A 
HETATM   39  C   UNL     1      40.131  -9.806  20.628  1.00  0.00     0.009 A 
HETATM   40  C   UNL     1      39.828  -8.533  20.062  1.00  0.00     0.025 A 
ENDBRANCH  32  36
ENDBRANCH  25  28
ENDBRANCH   1  22
TORSDOF 8
ENDMDL
