MODEL 1
REMARK VINA RESULT:      -9.9      0.000      0.000
REMARK  7 active torsions:
REMARK  status: ('A' for Active; 'I' for Inactive)
REMARK    1  A    between atoms: C_3  and  C_4 
REMARK    2  A    between atoms: C_4  and  S_5 
REMARK    3  A    between atoms: S_5  and  C_6 
REMARK    4  A    between atoms: C_6  and  C_7 
REMARK    5  A    between atoms: C_16  and  C_17 
REMARK       I    between atoms: C_17  and  N_18 
REMARK    6  A    between atoms: N_18  and  C_19 
REMARK    7  A    between atoms: C_19  and  C_20 
ROOT
HETATM    1  C   UNL     1      43.506 -11.065   8.042  1.00  0.00     0.162 C 
HETATM    2  N   UNL     1      42.343 -11.104   7.122  1.00  0.00    -0.277 NA
HETATM    3  C   UNL     1      42.332 -12.226   6.270  1.00  0.00     0.036 A 
HETATM    4  C   UNL     1      43.511 -12.904   5.913  1.00  0.00     0.057 A 
HETATM    5  N   UNL     1      44.739 -12.466   6.424  1.00  0.00    -0.324 N 
HETATM    6  C   UNL     1      44.831 -11.471   7.366  1.00  0.00     0.240 C 
HETATM    7  O   UNL     1      45.930 -11.036   7.705  1.00  0.00    -0.271 OA
HETATM    8  C   UNL     1      41.133 -12.589   5.653  1.00  0.00     0.027 A 
HETATM    9  C   UNL     1      41.093 -13.668   4.766  1.00  0.00     0.019 A 
HETATM   10  C   UNL     1      42.261 -14.383   4.470  1.00  0.00     0.034 A 
HETATM   11  C   UNL     1      43.483 -13.977   5.020  1.00  0.00     0.048 A 
HETATM   12  H   UNL     1      42.285 -10.252   6.561  1.00  0.00     0.128 HD
HETATM   13  H   UNL     1      45.611 -12.829   6.062  1.00  0.00     0.169 HD
ENDROOT
BRANCH  10  14
HETATM   14  C   UNL     1      42.156 -15.557   3.559  1.00  0.00     0.252 C 
HETATM   15  N   UNL     1      43.340 -16.185   3.239  1.00  0.00    -0.353 N 
HETATM   16  H   UNL     1      44.157 -15.985   3.798  1.00  0.00     0.163 HD
HETATM   17  O   UNL     1      41.058 -15.944   3.176  1.00  0.00    -0.268 OA
BRANCH  15  18
HETATM   18  C   UNL     1      43.339 -17.463   2.560  1.00  0.00     0.163 C 
BRANCH  18  19
HETATM   19  C   UNL     1      43.567 -18.602   3.520  1.00  0.00    -0.019 A 
HETATM   20  C   UNL     1      43.705 -19.937   3.104  1.00  0.00     0.042 A 
HETATM   21 CL   UNL     1      43.600 -20.384   1.437  1.00  0.00    -0.084 Cl
HETATM   22  C   UNL     1      43.920 -20.957   4.036  1.00  0.00     0.024 A 
HETATM   23  C   UNL     1      44.003 -20.659   5.395  1.00  0.00     0.002 A 
HETATM   24  C   UNL     1      43.867 -19.342   5.825  1.00  0.00     0.001 A 
HETATM   25  C   UNL     1      43.648 -18.323   4.897  1.00  0.00     0.010 A 
ENDBRANCH  18  19
ENDBRANCH  15  18
ENDBRANCH  10  14
BRANCH   1  26
HETATM   26  C   UNL     1      43.661  -9.684   8.705  1.00  0.00     0.103 C 
BRANCH  26  27
HETATM   27  S   UNL     1      44.147  -9.701  10.475  1.00  0.00    -0.162 SA
BRANCH  27  28
HETATM   28  C   UNL     1      42.510  -9.916  11.242  1.00  0.00     0.112 C 
BRANCH  28  29
HETATM   29  C   UNL     1      42.362  -9.100  12.506  1.00  0.00    -0.043 A 
HETATM   30  C   UNL     1      41.288  -9.286  13.404  1.00  0.00    -0.055 A 
HETATM   31  C   UNL     1      40.219 -10.321  13.171  1.00  0.00     0.049 C 
HETATM   32  C   UNL     1      41.236  -8.518  14.579  1.00  0.00     0.007 A 
HETATM   33  C   UNL     1      42.210  -7.560  14.854  1.00  0.00     0.001 A 
HETATM   34  C   UNL     1      43.253  -7.354  13.957  1.00  0.00     0.001 A 
HETATM   35  C   UNL     1      43.328  -8.117  12.792  1.00  0.00     0.008 A 
ENDBRANCH  28  29
ENDBRANCH  27  28
ENDBRANCH  26  27
ENDBRANCH   1  26
TORSDOF 7
ENDMDL
MODEL 2
REMARK VINA RESULT:      -9.7      5.646      9.379
REMARK  7 active torsions:
REMARK  status: ('A' for Active; 'I' for Inactive)
REMARK    1  A    between atoms: C_3  and  C_4 
REMARK    2  A    between atoms: C_4  and  S_5 
REMARK    3  A    between atoms: S_5  and  C_6 
REMARK    4  A    between atoms: C_6  and  C_7 
REMARK    5  A    between atoms: C_16  and  C_17 
REMARK       I    between atoms: C_17  and  N_18 
REMARK    6  A    between atoms: N_18  and  C_19 
REMARK    7  A    between atoms: C_19  and  C_20 
ROOT
HETATM    1  C   UNL     1      42.184 -14.562   6.772  1.00  0.00     0.162 C 
HETATM    2  N   UNL     1      43.050 -14.132   5.646  1.00  0.00    -0.277 NA
HETATM    3  C   UNL     1      42.353 -13.472   4.615  1.00  0.00     0.036 A 
HETATM    4  C   UNL     1      40.984 -13.690   4.381  1.00  0.00     0.057 A 
HETATM    5  N   UNL     1      40.278 -14.580   5.201  1.00  0.00    -0.324 N 
HETATM    6  C   UNL     1      40.840 -15.161   6.311  1.00  0.00     0.240 C 
HETATM    7  O   UNL     1      40.228 -16.023   6.939  1.00  0.00    -0.271 OA
HETATM    8  C   UNL     1      43.073 -12.686   3.714  1.00  0.00     0.027 A 
HETATM    9  C   UNL     1      42.423 -12.052   2.652  1.00  0.00     0.019 A 
HETATM   10  C   UNL     1      41.044 -12.219   2.467  1.00  0.00     0.034 A 
HETATM   11  C   UNL     1      40.326 -13.070   3.317  1.00  0.00     0.048 A 
HETATM   12  H   UNL     1      43.568 -14.920   5.255  1.00  0.00     0.128 HD
HETATM   13  H   UNL     1      39.342 -14.877   4.959  1.00  0.00     0.169 HD
ENDROOT
BRANCH  10  14
HETATM   14  C   UNL     1      40.389 -11.482   1.351  1.00  0.00     0.252 C 
HETATM   15  N   UNL     1      40.933 -11.667   0.099  1.00  0.00    -0.353 N 
HETATM   16  H   UNL     1      41.565 -12.443  -0.040  1.00  0.00     0.163 HD
HETATM   17  O   UNL     1      39.395 -10.798   1.564  1.00  0.00    -0.268 OA
BRANCH  15  18
HETATM   18  C   UNL     1      40.246 -11.194  -1.083  1.00  0.00     0.163 C 
BRANCH  18  19
HETATM   19  C   UNL     1      39.458 -12.295  -1.746  1.00  0.00    -0.019 A 
HETATM   20  C   UNL     1      38.064 -12.241  -1.917  1.00  0.00     0.042 A 
HETATM   21 CL   UNL     1      37.131 -10.898  -1.355  1.00  0.00    -0.084 Cl
HETATM   22  C   UNL     1      37.380 -13.288  -2.542  1.00  0.00     0.024 A 
HETATM   23  C   UNL     1      38.078 -14.403  -3.007  1.00  0.00     0.002 A 
HETATM   24  C   UNL     1      39.458 -14.473  -2.843  1.00  0.00     0.001 A 
HETATM   25  C   UNL     1      40.142 -13.431  -2.216  1.00  0.00     0.010 A 
ENDBRANCH  18  19
ENDBRANCH  15  18
ENDBRANCH  10  14
BRANCH   1  26
HETATM   26  C   UNL     1      42.908 -15.556   7.698  1.00  0.00     0.103 C 
BRANCH  26  27
HETATM   27  S   UNL     1      44.307 -16.475   6.944  1.00  0.00    -0.162 SA
BRANCH  27  28
HETATM   28  C   UNL     1      43.446 -18.006   6.463  1.00  0.00     0.112 C 
BRANCH  28  29
HETATM   29  C   UNL     1      43.452 -18.215   4.966  1.00  0.00    -0.043 A 
HETATM   30  C   UNL     1      43.874 -19.427   4.375  1.00  0.00    -0.055 A 
HETATM   31  C   UNL     1      44.335 -20.602   5.197  1.00  0.00     0.049 C 
HETATM   32  C   UNL     1      43.816 -19.565   2.978  1.00  0.00     0.007 A 
HETATM   33  C   UNL     1      43.378 -18.516   2.171  1.00  0.00     0.001 A 
HETATM   34  C   UNL     1      42.990 -17.312   2.748  1.00  0.00     0.001 A 
HETATM   35  C   UNL     1      43.028 -17.162   4.134  1.00  0.00     0.008 A 
ENDBRANCH  28  29
ENDBRANCH  27  28
ENDBRANCH  26  27
ENDBRANCH   1  26
TORSDOF 7
ENDMDL
MODEL 3
REMARK VINA RESULT:      -9.6      6.311     10.446
REMARK  7 active torsions:
REMARK  status: ('A' for Active; 'I' for Inactive)
REMARK    1  A    between atoms: C_3  and  C_4 
REMARK    2  A    between atoms: C_4  and  S_5 
REMARK    3  A    between atoms: S_5  and  C_6 
REMARK    4  A    between atoms: C_6  and  C_7 
REMARK    5  A    between atoms: C_16  and  C_17 
REMARK       I    between atoms: C_17  and  N_18 
REMARK    6  A    between atoms: N_18  and  C_19 
REMARK    7  A    between atoms: C_19  and  C_20 
ROOT
HETATM    1  C   UNL     1      41.619 -15.197   4.496  1.00  0.00     0.162 C 
HETATM    2  N   UNL     1      40.606 -15.731   3.553  1.00  0.00    -0.277 NA
HETATM    3  C   UNL     1      40.553 -15.041   2.326  1.00  0.00     0.036 A 
HETATM    4  C   UNL     1      40.961 -13.701   2.205  1.00  0.00     0.057 A 
HETATM    5  N   UNL     1      41.448 -13.025   3.332  1.00  0.00    -0.324 N 
HETATM    6  C   UNL     1      41.664 -13.657   4.532  1.00  0.00     0.240 C 
HETATM    7  O   UNL     1      41.981 -13.008   5.527  1.00  0.00    -0.271 OA
HETATM    8  C   UNL     1      39.949 -15.662   1.230  1.00  0.00     0.027 A 
HETATM    9  C   UNL     1      39.839 -14.990   0.010  1.00  0.00     0.019 A 
HETATM   10  C   UNL     1      40.312 -13.678  -0.120  1.00  0.00     0.034 A 
HETATM   11  C   UNL     1      40.845 -13.017   0.993  1.00  0.00     0.048 A 
HETATM   12  H   UNL     1      39.676 -15.744   3.974  1.00  0.00     0.128 HD
HETATM   13  H   UNL     1      41.595 -12.025   3.313  1.00  0.00     0.169 HD
ENDROOT
BRANCH  10  14
HETATM   14  C   UNL     1      40.217 -13.025  -1.456  1.00  0.00     0.252 C 
HETATM   15  N   UNL     1      39.821 -11.705  -1.459  1.00  0.00    -0.353 N 
HETATM   16  H   UNL     1      39.847 -11.193  -0.588  1.00  0.00     0.163 HD
HETATM   17  O   UNL     1      40.529 -13.642  -2.467  1.00  0.00    -0.268 OA
BRANCH  15  18
HETATM   18  C   UNL     1      39.918 -10.907  -2.662  1.00  0.00     0.163 C 
BRANCH  18  19
HETATM   19  C   UNL     1      40.918  -9.789  -2.508  1.00  0.00    -0.019 A 
HETATM   20  C   UNL     1      41.154  -8.831  -3.508  1.00  0.00     0.042 A 
HETATM   21 CL   UNL     1      40.318  -8.873  -5.022  1.00  0.00    -0.084 Cl
HETATM   22  C   UNL     1      42.090  -7.811  -3.314  1.00  0.00     0.024 A 
HETATM   23  C   UNL     1      42.802  -7.732  -2.117  1.00  0.00     0.002 A 
HETATM   24  C   UNL     1      42.582  -8.674  -1.117  1.00  0.00     0.001 A 
HETATM   25  C   UNL     1      41.651  -9.695  -1.311  1.00  0.00     0.010 A 
ENDBRANCH  18  19
ENDBRANCH  15  18
ENDBRANCH  10  14
BRANCH   1  26
HETATM   26  C   UNL     1      41.417 -15.747   5.919  1.00  0.00     0.103 C 
BRANCH  26  27
HETATM   27  S   UNL     1      42.758 -16.831   6.552  1.00  0.00    -0.162 SA
BRANCH  27  28
HETATM   28  C   UNL     1      43.810 -16.916   5.068  1.00  0.00     0.112 C 
BRANCH  28  29
HETATM   29  C   UNL     1      43.797 -18.292   4.441  1.00  0.00    -0.043 A 
HETATM   30  C   UNL     1      43.604 -18.488   3.055  1.00  0.00    -0.055 A 
HETATM   31  C   UNL     1      43.410 -17.338   2.102  1.00  0.00     0.049 C 
HETATM   32  C   UNL     1      43.644 -19.793   2.535  1.00  0.00     0.007 A 
HETATM   33  C   UNL     1      43.840 -20.892   3.370  1.00  0.00     0.001 A 
HETATM   34  C   UNL     1      44.000 -20.704   4.739  1.00  0.00     0.001 A 
HETATM   35  C   UNL     1      43.978 -19.415   5.270  1.00  0.00     0.008 A 
ENDBRANCH  28  29
ENDBRANCH  27  28
ENDBRANCH  26  27
ENDBRANCH   1  26
TORSDOF 7
ENDMDL
MODEL 4
REMARK VINA RESULT:      -9.6      3.681     10.944
REMARK  7 active torsions:
REMARK  status: ('A' for Active; 'I' for Inactive)
REMARK    1  A    between atoms: C_3  and  C_4 
REMARK    2  A    between atoms: C_4  and  S_5 
REMARK    3  A    between atoms: S_5  and  C_6 
REMARK    4  A    between atoms: C_6  and  C_7 
REMARK    5  A    between atoms: C_16  and  C_17 
REMARK       I    between atoms: C_17  and  N_18 
REMARK    6  A    between atoms: N_18  and  C_19 
REMARK    7  A    between atoms: C_19  and  C_20 
ROOT
HETATM    1  C   UNL     1      42.969 -12.571   4.282  1.00  0.00     0.162 C 
HETATM    2  N   UNL     1      44.223 -11.941   4.765  1.00  0.00    -0.277 NA
HETATM    3  C   UNL     1      44.172 -11.539   6.114  1.00  0.00     0.036 A 
HETATM    4  C   UNL     1      42.959 -11.230   6.755  1.00  0.00     0.057 A 
HETATM    5  N   UNL     1      41.757 -11.335   6.044  1.00  0.00    -0.324 N 
HETATM    6  C   UNL     1      41.697 -11.850   4.772  1.00  0.00     0.240 C 
HETATM    7  O   UNL     1      40.644 -11.820   4.137  1.00  0.00    -0.271 OA
HETATM    8  C   UNL     1      45.370 -11.306   6.791  1.00  0.00     0.027 A 
HETATM    9  C   UNL     1      45.358 -10.862   8.116  1.00  0.00     0.019 A 
HETATM   10  C   UNL     1      44.142 -10.624   8.770  1.00  0.00     0.034 A 
HETATM   11  C   UNL     1      42.937 -10.776   8.076  1.00  0.00     0.048 A 
HETATM   12  H   UNL     1      44.485 -11.145   4.183  1.00  0.00     0.128 HD
HETATM   13  H   UNL     1      40.895 -10.969   6.425  1.00  0.00     0.169 HD
ENDROOT
BRANCH  10  14
HETATM   14  C   UNL     1      44.183 -10.201  10.199  1.00  0.00     0.252 C 
HETATM   15  N   UNL     1      43.108 -10.578  10.974  1.00  0.00    -0.353 N 
HETATM   16  H   UNL     1      42.490 -11.296  10.622  1.00  0.00     0.163 HD
HETATM   17  O   UNL     1      45.155  -9.596  10.635  1.00  0.00    -0.268 OA
BRANCH  15  18
HETATM   18  C   UNL     1      43.147 -10.430  12.413  1.00  0.00     0.163 C 
BRANCH  18  19
HETATM   19  C   UNL     1      42.454  -9.168  12.860  1.00  0.00    -0.019 A 
HETATM   20  C   UNL     1      41.082  -9.113  13.157  1.00  0.00     0.042 A 
HETATM   21 CL   UNL     1      40.064 -10.503  13.010  1.00  0.00    -0.084 Cl
HETATM   22  C   UNL     1      40.488  -7.917  13.572  1.00  0.00     0.024 A 
HETATM   23  C   UNL     1      41.257  -6.760  13.700  1.00  0.00     0.002 A 
HETATM   24  C   UNL     1      42.617  -6.797  13.408  1.00  0.00     0.001 A 
HETATM   25  C   UNL     1      43.210  -7.989  12.989  1.00  0.00     0.010 A 
ENDBRANCH  18  19
ENDBRANCH  15  18
ENDBRANCH  10  14
BRANCH   1  26
HETATM   26  C   UNL     1      42.945 -12.687   2.747  1.00  0.00     0.103 C 
BRANCH  26  27
HETATM   27  S   UNL     1      43.038 -14.392   2.075  1.00  0.00    -0.162 SA
BRANCH  27  28
HETATM   28  C   UNL     1      42.768 -15.341   3.605  1.00  0.00     0.112 C 
BRANCH  28  29
HETATM   29  C   UNL     1      43.196 -16.784   3.462  1.00  0.00    -0.043 A 
HETATM   30  C   UNL     1      43.973 -17.441   4.442  1.00  0.00    -0.055 A 
HETATM   31  C   UNL     1      44.420 -16.754   5.705  1.00  0.00     0.049 C 
HETATM   32  C   UNL     1      44.301 -18.796   4.261  1.00  0.00     0.007 A 
HETATM   33  C   UNL     1      43.896 -19.486   3.120  1.00  0.00     0.001 A 
HETATM   34  C   UNL     1      43.156 -18.833   2.140  1.00  0.00     0.001 A 
HETATM   35  C   UNL     1      42.810 -17.493   2.309  1.00  0.00     0.008 A 
ENDBRANCH  28  29
ENDBRANCH  27  28
ENDBRANCH  26  27
ENDBRANCH   1  26
TORSDOF 7
ENDMDL
MODEL 5
REMARK VINA RESULT:      -9.5      4.119     11.570
REMARK  7 active torsions:
REMARK  status: ('A' for Active; 'I' for Inactive)
REMARK    1  A    between atoms: C_3  and  C_4 
REMARK    2  A    between atoms: C_4  and  S_5 
REMARK    3  A    between atoms: S_5  and  C_6 
REMARK    4  A    between atoms: C_6  and  C_7 
REMARK    5  A    between atoms: C_16  and  C_17 
REMARK       I    between atoms: C_17  and  N_18 
REMARK    6  A    between atoms: N_18  and  C_19 
REMARK    7  A    between atoms: C_19  and  C_20 
ROOT
HETATM    1  C   UNL     1      42.223 -13.608   5.724  1.00  0.00     0.162 C 
HETATM    2  N   UNL     1      43.573 -13.145   6.128  1.00  0.00    -0.277 NA
HETATM    3  C   UNL     1      43.575 -11.889   6.765  1.00  0.00     0.036 A 
HETATM    4  C   UNL     1      42.563 -10.938   6.543  1.00  0.00     0.057 A 
HETATM    5  N   UNL     1      41.509 -11.244   5.672  1.00  0.00    -0.324 N 
HETATM    6  C   UNL     1      41.352 -12.490   5.116  1.00  0.00     0.240 C 
HETATM    7  O   UNL     1      40.484 -12.688   4.269  1.00  0.00    -0.271 OA
HETATM    8  C   UNL     1      44.684 -11.524   7.530  1.00  0.00     0.027 A 
HETATM    9  C   UNL     1      44.741 -10.268   8.139  1.00  0.00     0.019 A 
HETATM   10  C   UNL     1      43.694  -9.352   7.969  1.00  0.00     0.034 A 
HETATM   11  C   UNL     1      42.615  -9.676   7.139  1.00  0.00     0.048 A 
HETATM   12  H   UNL     1      44.211 -13.122   5.332  1.00  0.00     0.128 HD
HETATM   13  H   UNL     1      40.861 -10.529   5.370  1.00  0.00     0.169 HD
ENDROOT
BRANCH  10  14
HETATM   14  C   UNL     1      43.779  -8.046   8.681  1.00  0.00     0.252 C 
HETATM   15  N   UNL     1      42.720  -7.735   9.507  1.00  0.00    -0.353 N 
HETATM   16  H   UNL     1      42.083  -8.474   9.770  1.00  0.00     0.163 HD
HETATM   17  O   UNL     1      44.771  -7.338   8.555  1.00  0.00    -0.268 OA
BRANCH  15  18
HETATM   18  C   UNL     1      42.799  -6.616  10.421  1.00  0.00     0.163 C 
BRANCH  18  19
HETATM   19  C   UNL     1      42.634  -7.056  11.853  1.00  0.00    -0.019 A 
HETATM   20  C   UNL     1      42.449  -6.153  12.913  1.00  0.00     0.042 A 
HETATM   21 CL   UNL     1      42.416  -4.443  12.656  1.00  0.00    -0.084 Cl
HETATM   22  C   UNL     1      42.296  -6.613  14.225  1.00  0.00     0.024 A 
HETATM   23  C   UNL     1      42.324  -7.980  14.496  1.00  0.00     0.002 A 
HETATM   24  C   UNL     1      42.509  -8.888  13.457  1.00  0.00     0.001 A 
HETATM   25  C   UNL     1      42.665  -8.431  12.148  1.00  0.00     0.010 A 
ENDBRANCH  18  19
ENDBRANCH  15  18
ENDBRANCH  10  14
BRANCH   1  26
HETATM   26  C   UNL     1      42.297 -14.799   4.752  1.00  0.00     0.103 C 
BRANCH  26  27
HETATM   27  S   UNL     1      42.320 -16.462   5.529  1.00  0.00    -0.162 SA
BRANCH  27  28
HETATM   28  C   UNL     1      43.946 -17.047   4.955  1.00  0.00     0.112 C 
BRANCH  28  29
HETATM   29  C   UNL     1      43.847 -18.359   4.211  1.00  0.00    -0.043 A 
HETATM   30  C   UNL     1      43.499 -18.427   2.843  1.00  0.00    -0.055 A 
HETATM   31  C   UNL     1      43.213 -17.194   2.027  1.00  0.00     0.049 C 
HETATM   32  C   UNL     1      43.465 -19.678   2.205  1.00  0.00     0.007 A 
HETATM   33  C   UNL     1      43.741 -20.850   2.909  1.00  0.00     0.001 A 
HETATM   34  C   UNL     1      44.056 -20.789   4.262  1.00  0.00     0.001 A 
HETATM   35  C   UNL     1      44.107 -19.554   4.908  1.00  0.00     0.008 A 
ENDBRANCH  28  29
ENDBRANCH  27  28
ENDBRANCH  26  27
ENDBRANCH   1  26
TORSDOF 7
ENDMDL
MODEL 6
REMARK VINA RESULT:      -9.4      2.256      3.196
REMARK  7 active torsions:
REMARK  status: ('A' for Active; 'I' for Inactive)
REMARK    1  A    between atoms: C_3  and  C_4 
REMARK    2  A    between atoms: C_4  and  S_5 
REMARK    3  A    between atoms: S_5  and  C_6 
REMARK    4  A    between atoms: C_6  and  C_7 
REMARK    5  A    between atoms: C_16  and  C_17 
REMARK       I    between atoms: C_17  and  N_18 
REMARK    6  A    between atoms: N_18  and  C_19 
REMARK    7  A    between atoms: C_19  and  C_20 
ROOT
HETATM    1  C   UNL     1      40.509 -10.364   6.554  1.00  0.00     0.162 C 
HETATM    2  N   UNL     1      41.600 -11.330   6.833  1.00  0.00    -0.277 NA
HETATM    3  C   UNL     1      41.659 -12.398   5.917  1.00  0.00     0.036 A 
HETATM    4  C   UNL     1      40.530 -12.830   5.199  1.00  0.00     0.057 A 
HETATM    5  N   UNL     1      39.305 -12.176   5.384  1.00  0.00    -0.324 N 
HETATM    6  C   UNL     1      39.185 -11.042   6.149  1.00  0.00     0.240 C 
HETATM    7  O   UNL     1      38.076 -10.563   6.381  1.00  0.00    -0.271 OA
HETATM    8  C   UNL     1      42.839 -13.139   5.823  1.00  0.00     0.027 A 
HETATM    9  C   UNL     1      42.920 -14.233   4.959  1.00  0.00     0.019 A 
HETATM   10  C   UNL     1      41.809 -14.614   4.194  1.00  0.00     0.034 A 
HETATM   11  C   UNL     1      40.597 -13.929   4.340  1.00  0.00     0.048 A 
HETATM   12  H   UNL     1      41.533 -11.701   7.782  1.00  0.00     0.128 HD
HETATM   13  H   UNL     1      38.449 -12.562   5.008  1.00  0.00     0.169 HD
ENDROOT
BRANCH  10  14
HETATM   14  C   UNL     1      41.962 -15.756   3.250  1.00  0.00     0.252 C 
HETATM   15  N   UNL     1      43.231 -16.282   3.134  1.00  0.00    -0.353 N 
HETATM   16  H   UNL     1      43.916 -16.044   3.838  1.00  0.00     0.163 HD
HETATM   17  O   UNL     1      40.985 -16.206   2.664  1.00  0.00    -0.268 OA
BRANCH  15  18
HETATM   18  C   UNL     1      43.453 -17.529   2.434  1.00  0.00     0.163 C 
BRANCH  18  19
HETATM   19  C   UNL     1      43.642 -18.677   3.392  1.00  0.00    -0.019 A 
HETATM   20  C   UNL     1      43.688 -20.019   2.977  1.00  0.00     0.042 A 
HETATM   21 CL   UNL     1      43.508 -20.463   1.315  1.00  0.00    -0.084 Cl
HETATM   22  C   UNL     1      43.870 -21.048   3.906  1.00  0.00     0.024 A 
HETATM   23  C   UNL     1      44.010 -20.752   5.261  1.00  0.00     0.002 A 
HETATM   24  C   UNL     1      43.965 -19.429   5.689  1.00  0.00     0.001 A 
HETATM   25  C   UNL     1      43.780 -18.401   4.764  1.00  0.00     0.010 A 
ENDBRANCH  18  19
ENDBRANCH  15  18
ENDBRANCH  10  14
BRANCH   1  26
HETATM   26  C   UNL     1      40.269  -9.418   7.744  1.00  0.00     0.103 C 
BRANCH  26  27
HETATM   27  S   UNL     1      40.962  -7.727   7.570  1.00  0.00    -0.162 SA
BRANCH  27  28
HETATM   28  C   UNL     1      42.721  -8.082   7.881  1.00  0.00     0.112 C 
BRANCH  28  29
HETATM   29  C   UNL     1      43.009  -8.275   9.353  1.00  0.00    -0.043 A 
HETATM   30  C   UNL     1      43.815  -9.332   9.831  1.00  0.00    -0.055 A 
HETATM   31  C   UNL     1      44.455 -10.334   8.907  1.00  0.00     0.049 C 
HETATM   32  C   UNL     1      44.074  -9.427  11.209  1.00  0.00     0.007 A 
HETATM   33  C   UNL     1      43.524  -8.514  12.107  1.00  0.00     0.001 A 
HETATM   34  C   UNL     1      42.706  -7.490  11.642  1.00  0.00     0.001 A 
HETATM   35  C   UNL     1      42.450  -7.372  10.276  1.00  0.00     0.008 A 
ENDBRANCH  28  29
ENDBRANCH  27  28
ENDBRANCH  26  27
ENDBRANCH   1  26
TORSDOF 7
ENDMDL
MODEL 7
REMARK VINA RESULT:      -9.0      3.968     10.852
REMARK  7 active torsions:
REMARK  status: ('A' for Active; 'I' for Inactive)
REMARK    1  A    between atoms: C_3  and  C_4 
REMARK    2  A    between atoms: C_4  and  S_5 
REMARK    3  A    between atoms: S_5  and  C_6 
REMARK    4  A    between atoms: C_6  and  C_7 
REMARK    5  A    between atoms: C_16  and  C_17 
REMARK       I    between atoms: C_17  and  N_18 
REMARK    6  A    between atoms: N_18  and  C_19 
REMARK    7  A    between atoms: C_19  and  C_20 
ROOT
HETATM    1  C   UNL     1      41.419 -13.801   2.984  1.00  0.00     0.162 C 
HETATM    2  N   UNL     1      42.609 -13.924   3.861  1.00  0.00    -0.277 NA
HETATM    3  C   UNL     1      42.739 -12.873   4.790  1.00  0.00     0.036 A 
HETATM    4  C   UNL     1      42.186 -11.600   4.560  1.00  0.00     0.057 A 
HETATM    5  N   UNL     1      41.471 -11.364   3.379  1.00  0.00    -0.324 N 
HETATM    6  C   UNL     1      41.177 -12.363   2.484  1.00  0.00     0.240 C 
HETATM    7  O   UNL     1      40.649 -12.097   1.406  1.00  0.00    -0.271 OA
HETATM    8  C   UNL     1      43.559 -13.059   5.905  1.00  0.00     0.027 A 
HETATM    9  C   UNL     1      43.748 -12.023   6.824  1.00  0.00     0.019 A 
HETATM   10  C   UNL     1      43.136 -10.779   6.622  1.00  0.00     0.034 A 
HETATM   11  C   UNL     1      42.379 -10.556   5.466  1.00  0.00     0.048 A 
HETATM   12  H   UNL     1      43.467 -14.001   3.314  1.00  0.00     0.128 HD
HETATM   13  H   UNL     1      41.204 -10.425   3.114  1.00  0.00     0.169 HD
ENDROOT
BRANCH  10  14
HETATM   14  C   UNL     1      43.327  -9.724   7.657  1.00  0.00     0.252 C 
HETATM   15  N   UNL     1      44.132 -10.060   8.724  1.00  0.00    -0.353 N 
HETATM   16  H   UNL     1      44.723 -10.875   8.642  1.00  0.00     0.163 HD
HETATM   17  O   UNL     1      42.823  -8.618   7.509  1.00  0.00    -0.268 OA
BRANCH  15  18
HETATM   18  C   UNL     1      44.576  -9.050   9.661  1.00  0.00     0.163 C 
BRANCH  18  19
HETATM   19  C   UNL     1      43.634  -8.925  10.831  1.00  0.00    -0.019 A 
HETATM   20  C   UNL     1      42.898  -7.759  11.098  1.00  0.00     0.042 A 
HETATM   21 CL   UNL     1      43.033  -6.351  10.104  1.00  0.00    -0.084 Cl
HETATM   22  C   UNL     1      42.034  -7.696  12.196  1.00  0.00     0.024 A 
HETATM   23  C   UNL     1      41.891  -8.797  13.040  1.00  0.00     0.002 A 
HETATM   24  C   UNL     1      42.615  -9.959  12.790  1.00  0.00     0.001 A 
HETATM   25  C   UNL     1      43.481 -10.023  11.698  1.00  0.00     0.010 A 
ENDBRANCH  18  19
ENDBRANCH  15  18
ENDBRANCH  10  14
BRANCH   1  26
HETATM   26  C   UNL     1      41.494 -14.765   1.786  1.00  0.00     0.103 C 
BRANCH  26  27
HETATM   27  S   UNL     1      41.428 -16.553   2.196  1.00  0.00    -0.162 SA
BRANCH  27  28
HETATM   28  C   UNL     1      43.208 -16.939   2.173  1.00  0.00     0.112 C 
BRANCH  28  29
HETATM   29  C   UNL     1      43.516 -18.241   2.877  1.00  0.00    -0.043 A 
HETATM   30  C   UNL     1      43.957 -18.287   4.218  1.00  0.00    -0.055 A 
HETATM   31  C   UNL     1      44.140 -17.042   5.046  1.00  0.00     0.049 C 
HETATM   32  C   UNL     1      44.186 -19.535   4.822  1.00  0.00     0.007 A 
HETATM   33  C   UNL     1      44.012 -20.720   4.108  1.00  0.00     0.001 A 
HETATM   34  C   UNL     1      43.607 -20.676   2.779  1.00  0.00     0.001 A 
HETATM   35  C   UNL     1      43.361 -19.447   2.168  1.00  0.00     0.008 A 
ENDBRANCH  28  29
ENDBRANCH  27  28
ENDBRANCH  26  27
ENDBRANCH   1  26
TORSDOF 7
ENDMDL
MODEL 8
REMARK VINA RESULT:      -9.0      1.918      2.476
REMARK  7 active torsions:
REMARK  status: ('A' for Active; 'I' for Inactive)
REMARK    1  A    between atoms: C_3  and  C_4 
REMARK    2  A    between atoms: C_4  and  S_5 
REMARK    3  A    between atoms: S_5  and  C_6 
REMARK    4  A    between atoms: C_6  and  C_7 
REMARK    5  A    between atoms: C_16  and  C_17 
REMARK       I    between atoms: C_17  and  N_18 
REMARK    6  A    between atoms: N_18  and  C_19 
REMARK    7  A    between atoms: C_19  and  C_20 
ROOT
HETATM    1  C   UNL     1      42.556  -9.686   7.558  1.00  0.00     0.162 C 
HETATM    2  N   UNL     1      41.772 -10.399   6.520  1.00  0.00    -0.277 NA
HETATM    3  C   UNL     1      42.046 -11.779   6.450  1.00  0.00     0.036 A 
HETATM    4  C   UNL     1      43.274 -12.318   6.871  1.00  0.00     0.057 A 
HETATM    5  N   UNL     1      44.259 -11.467   7.389  1.00  0.00    -0.324 N 
HETATM    6  C   UNL     1      44.031 -10.133   7.621  1.00  0.00     0.240 C 
HETATM    7  O   UNL     1      44.952  -9.395   7.967  1.00  0.00    -0.271 OA
HETATM    8  C   UNL     1      41.125 -12.616   5.817  1.00  0.00     0.027 A 
HETATM    9  C   UNL     1      41.384 -13.983   5.689  1.00  0.00     0.019 A 
HETATM   10  C   UNL     1      42.582 -14.523   6.174  1.00  0.00     0.034 A 
HETATM   11  C   UNL     1      43.547 -13.681   6.738  1.00  0.00     0.048 A 
HETATM   12  H   UNL     1      41.908  -9.979   5.599  1.00  0.00     0.128 HD
HETATM   13  H   UNL     1      45.201 -11.799   7.546  1.00  0.00     0.169 HD
ENDROOT
BRANCH  10  14
HETATM   14  C   UNL     1      42.787 -15.995   6.060  1.00  0.00     0.252 C 
HETATM   15  N   UNL     1      43.964 -16.399   5.467  1.00  0.00    -0.353 N 
HETATM   16  H   UNL     1      44.706 -15.722   5.362  1.00  0.00     0.163 HD
HETATM   17  O   UNL     1      41.959 -16.770   6.522  1.00  0.00    -0.268 OA
BRANCH  15  18
HETATM   18  C   UNL     1      44.376 -17.785   5.512  1.00  0.00     0.163 C 
BRANCH  18  19
HETATM   19  C   UNL     1      43.961 -18.529   4.268  1.00  0.00    -0.019 A 
HETATM   20  C   UNL     1      44.003 -19.930   4.165  1.00  0.00     0.042 A 
HETATM   21 CL   UNL     1      44.561 -20.920   5.468  1.00  0.00    -0.084 Cl
HETATM   22  C   UNL     1      43.603 -20.572   2.989  1.00  0.00     0.024 A 
HETATM   23  C   UNL     1      43.154 -19.824   1.901  1.00  0.00     0.002 A 
HETATM   24  C   UNL     1      43.108 -18.436   1.985  1.00  0.00     0.001 A 
HETATM   25  C   UNL     1      43.510 -17.793   3.157  1.00  0.00     0.010 A 
ENDBRANCH  18  19
ENDBRANCH  15  18
ENDBRANCH  10  14
BRANCH   1  26
HETATM   26  C   UNL     1      42.481  -8.159   7.379  1.00  0.00     0.103 C 
BRANCH  26  27
HETATM   27  S   UNL     1      41.629  -7.241   8.721  1.00  0.00    -0.162 SA
BRANCH  27  28
HETATM   28  C   UNL     1      43.073  -6.705   9.693  1.00  0.00     0.112 C 
BRANCH  28  29
HETATM   29  C   UNL     1      42.832  -6.824  11.180  1.00  0.00    -0.043 A 
HETATM   30  C   UNL     1      43.226  -7.961  11.920  1.00  0.00    -0.055 A 
HETATM   31  C   UNL     1      43.926  -9.131  11.281  1.00  0.00     0.049 C 
HETATM   32  C   UNL     1      43.007  -7.986  13.308  1.00  0.00     0.007 A 
HETATM   33  C   UNL     1      42.382  -6.920  13.955  1.00  0.00     0.001 A 
HETATM   34  C   UNL     1      41.966  -5.812  13.224  1.00  0.00     0.001 A 
HETATM   35  C   UNL     1      42.189  -5.765  11.848  1.00  0.00     0.008 A 
ENDBRANCH  28  29
ENDBRANCH  27  28
ENDBRANCH  26  27
ENDBRANCH   1  26
TORSDOF 7
ENDMDL
MODEL 9
REMARK VINA RESULT:      -8.9      1.665      2.281
REMARK  7 active torsions:
REMARK  status: ('A' for Active; 'I' for Inactive)
REMARK    1  A    between atoms: C_3  and  C_4 
REMARK    2  A    between atoms: C_4  and  S_5 
REMARK    3  A    between atoms: S_5  and  C_6 
REMARK    4  A    between atoms: C_6  and  C_7 
REMARK    5  A    between atoms: C_16  and  C_17 
REMARK       I    between atoms: C_17  and  N_18 
REMARK    6  A    between atoms: N_18  and  C_19 
REMARK    7  A    between atoms: C_19  and  C_20 
ROOT
HETATM    1  C   UNL     1      42.468 -10.041   6.679  1.00  0.00     0.162 C 
HETATM    2  N   UNL     1      42.857 -11.376   7.196  1.00  0.00    -0.277 NA
HETATM    3  C   UNL     1      42.697 -12.415   6.259  1.00  0.00     0.036 A 
HETATM    4  C   UNL     1      41.770 -12.332   5.203  1.00  0.00     0.057 A 
HETATM    5  N   UNL     1      40.987 -11.179   5.064  1.00  0.00    -0.324 N 
HETATM    6  C   UNL     1      41.173 -10.065   5.844  1.00  0.00     0.240 C 
HETATM    7  O   UNL     1      40.392  -9.117   5.770  1.00  0.00    -0.271 OA
HETATM    8  C   UNL     1      43.375 -13.618   6.465  1.00  0.00     0.027 A 
HETATM    9  C   UNL     1      43.205 -14.686   5.581  1.00  0.00     0.019 A 
HETATM   10  C   UNL     1      42.332 -14.570   4.491  1.00  0.00     0.034 A 
HETATM   11  C   UNL     1      41.585 -13.399   4.321  1.00  0.00     0.048 A 
HETATM   12  H   UNL     1      42.347 -11.607   8.049  1.00  0.00     0.128 HD
HETATM   13  H   UNL     1      40.208 -11.157   4.420  1.00  0.00     0.169 HD
ENDROOT
BRANCH  10  14
HETATM   14  C   UNL     1      42.224 -15.719   3.550  1.00  0.00     0.252 C 
HETATM   15  N   UNL     1      43.409 -16.328   3.197  1.00  0.00    -0.353 N 
HETATM   16  H   UNL     1      44.232 -16.137   3.752  1.00  0.00     0.163 HD
HETATM   17  O   UNL     1      41.125 -16.104   3.170  1.00  0.00    -0.268 OA
BRANCH  15  18
HETATM   18  C   UNL     1      43.410 -17.587   2.484  1.00  0.00     0.163 C 
BRANCH  18  19
HETATM   19  C   UNL     1      43.618 -18.754   3.415  1.00  0.00    -0.019 A 
HETATM   20  C   UNL     1      43.679 -20.085   2.970  1.00  0.00     0.042 A 
HETATM   21 CL   UNL     1      43.497 -20.495   1.300  1.00  0.00    -0.084 Cl
HETATM   22  C   UNL     1      43.879 -21.132   3.875  1.00  0.00     0.024 A 
HETATM   23  C   UNL     1      44.023 -20.864   5.236  1.00  0.00     0.002 A 
HETATM   24  C   UNL     1      43.963 -19.551   5.693  1.00  0.00     0.001 A 
HETATM   25  C   UNL     1      43.760 -18.505   4.792  1.00  0.00     0.010 A 
ENDBRANCH  18  19
ENDBRANCH  15  18
ENDBRANCH  10  14
BRANCH   1  26
HETATM   26  C   UNL     1      42.340  -9.008   7.813  1.00  0.00     0.103 C 
BRANCH  26  27
HETATM   27  S   UNL     1      43.718  -8.980   9.025  1.00  0.00    -0.162 SA
BRANCH  27  28
HETATM   28  C   UNL     1      43.251  -7.506   9.988  1.00  0.00     0.112 C 
BRANCH  28  29
HETATM   29  C   UNL     1      42.900  -7.849  11.418  1.00  0.00    -0.043 A 
HETATM   30  C   UNL     1      42.417  -6.883  12.329  1.00  0.00    -0.055 A 
HETATM   31  C   UNL     1      42.207  -5.444  11.936  1.00  0.00     0.049 C 
HETATM   32  C   UNL     1      42.073  -7.281  13.632  1.00  0.00     0.007 A 
HETATM   33  C   UNL     1      42.229  -8.605  14.042  1.00  0.00     0.001 A 
HETATM   34  C   UNL     1      42.731  -9.551  13.156  1.00  0.00     0.001 A 
HETATM   35  C   UNL     1      43.065  -9.177  11.854  1.00  0.00     0.008 A 
ENDBRANCH  28  29
ENDBRANCH  27  28
ENDBRANCH  26  27
ENDBRANCH   1  26
TORSDOF 7
ENDMDL
MODEL 10
REMARK VINA RESULT:      -8.9      7.308      9.694
REMARK  7 active torsions:
REMARK  status: ('A' for Active; 'I' for Inactive)
REMARK    1  A    between atoms: C_3  and  C_4 
REMARK    2  A    between atoms: C_4  and  S_5 
REMARK    3  A    between atoms: S_5  and  C_6 
REMARK    4  A    between atoms: C_6  and  C_7 
REMARK    5  A    between atoms: C_16  and  C_17 
REMARK       I    between atoms: C_17  and  N_18 
REMARK    6  A    between atoms: N_18  and  C_19 
REMARK    7  A    between atoms: C_19  and  C_20 
ROOT
HETATM    1  C   UNL     1      39.497 -12.161  -1.525  1.00  0.00     0.162 C 
HETATM    2  N   UNL     1      38.874 -12.229  -0.180  1.00  0.00    -0.277 NA
HETATM    3  C   UNL     1      39.544 -13.090   0.712  1.00  0.00     0.036 A 
HETATM    4  C   UNL     1      40.324 -14.170   0.263  1.00  0.00     0.057 A 
HETATM    5  N   UNL     1      40.456 -14.399  -1.112  1.00  0.00    -0.324 N 
HETATM    6  C   UNL     1      39.955 -13.535  -2.054  1.00  0.00     0.240 C 
HETATM    7  O   UNL     1      39.989 -13.827  -3.248  1.00  0.00    -0.271 OA
HETATM    8  C   UNL     1      39.313 -12.950   2.082  1.00  0.00     0.027 A 
HETATM    9  C   UNL     1      39.925 -13.815   2.993  1.00  0.00     0.019 A 
HETATM   10  C   UNL     1      40.757 -14.846   2.540  1.00  0.00     0.034 A 
HETATM   11  C   UNL     1      40.931 -15.046   1.166  1.00  0.00     0.048 A 
HETATM   12  H   UNL     1      37.892 -12.501  -0.239  1.00  0.00     0.128 HD
HETATM   13  H   UNL     1      40.872 -15.254  -1.458  1.00  0.00     0.169 HD
ENDROOT
BRANCH  10  14
HETATM   14  C   UNL     1      41.426 -15.709   3.554  1.00  0.00     0.252 C 
HETATM   15  N   UNL     1      42.741 -16.033   3.304  1.00  0.00    -0.353 N 
HETATM   16  H   UNL     1      43.243 -15.501   2.606  1.00  0.00     0.163 HD
HETATM   17  O   UNL     1      40.824 -16.050   4.566  1.00  0.00    -0.268 OA
BRANCH  15  18
HETATM   18  C   UNL     1      43.555 -16.662   4.321  1.00  0.00     0.163 C 
BRANCH  18  19
HETATM   19  C   UNL     1      43.680 -18.146   4.094  1.00  0.00    -0.019 A 
HETATM   20  C   UNL     1      43.730 -19.079   5.144  1.00  0.00     0.042 A 
HETATM   21 CL   UNL     1      43.672 -18.587   6.800  1.00  0.00    -0.084 Cl
HETATM   22  C   UNL     1      43.842 -20.448   4.879  1.00  0.00     0.024 A 
HETATM   23  C   UNL     1      43.904 -20.904   3.562  1.00  0.00     0.002 A 
HETATM   24  C   UNL     1      43.857 -19.993   2.511  1.00  0.00     0.001 A 
HETATM   25  C   UNL     1      43.749 -18.627   2.774  1.00  0.00     0.010 A 
ENDBRANCH  18  19
ENDBRANCH  15  18
ENDBRANCH  10  14
BRANCH   1  26
HETATM   26  C   UNL     1      38.565 -11.490  -2.550  1.00  0.00     0.103 C 
BRANCH  26  27
HETATM   27  S   UNL     1      39.273 -10.056  -3.450  1.00  0.00    -0.162 SA
BRANCH  27  28
HETATM   28  C   UNL     1      39.484  -8.895  -2.063  1.00  0.00     0.112 C 
BRANCH  28  29
HETATM   29  C   UNL     1      40.829  -8.206  -2.098  1.00  0.00    -0.043 A 
HETATM   30  C   UNL     1      41.875  -8.548  -1.213  1.00  0.00    -0.055 A 
HETATM   31  C   UNL     1      41.728  -9.631  -0.177  1.00  0.00     0.049 C 
HETATM   32  C   UNL     1      43.113  -7.893  -1.329  1.00  0.00     0.007 A 
HETATM   33  C   UNL     1      43.311  -6.896  -2.283  1.00  0.00     0.001 A 
HETATM   34  C   UNL     1      42.273  -6.538  -3.137  1.00  0.00     0.001 A 
HETATM   35  C   UNL     1      41.042  -7.187  -3.045  1.00  0.00     0.008 A 
ENDBRANCH  28  29
ENDBRANCH  27  28
ENDBRANCH  26  27
ENDBRANCH   1  26
TORSDOF 7
ENDMDL
