MODEL 1
REMARK VINA RESULT:      -8.0      0.000      0.000
REMARK  5 active torsions:
REMARK  status: ('A' for Active; 'I' for Inactive)
REMARK    1  A    between atoms: C_8  and  N_9 
REMARK       I    between atoms: N_9  and  C_10 
REMARK    2  A    between atoms: C_10  and  C_11 
REMARK    3  A    between atoms: C_11  and  N_12 
REMARK    4  A    between atoms: N_12  and  C_13 
REMARK    5  A    between atoms: C_13  and  C_14 
ROOT
HETATM    1  C   UNL     1      42.007 -15.213   6.538  1.00  0.00     0.372 C 
ENDROOT
BRANCH   1   2
HETATM    2  C   UNL     1      40.820 -14.484   5.887  1.00  0.00     0.250 C 
HETATM    3  N   UNL     1      41.000 -14.301   4.534  1.00  0.00    -0.322 N 
HETATM    4  H   UNL     1      41.875 -14.677   4.173  1.00  0.00     0.169 HD
HETATM    5  O   UNL     1      39.846 -14.162   6.557  1.00  0.00    -0.271 OA
BRANCH   3   6
HETATM    6  C   UNL     1      40.173 -13.651   3.638  1.00  0.00     0.085 A 
HETATM    7  C   UNL     1      39.743 -14.267   2.478  1.00  0.00     0.052 A 
HETATM    8  C   UNL     1      39.989 -15.614   1.910  1.00  0.00     0.072 C 
HETATM    9  N   UNL     1      38.963 -13.350   1.833  1.00  0.00    -0.280 N 
HETATM   10  H   UNL     1      38.478 -13.450   0.949  1.00  0.00     0.189 HD
HETATM   11  N   UNL     1      38.853 -12.186   2.479  1.00  0.00    -0.177 NA
HETATM   12  C   UNL     1      39.585 -12.353   3.592  1.00  0.00     0.079 A 
HETATM   13  C   UNL     1      39.669 -11.220   4.547  1.00  0.00     0.075 C 
ENDBRANCH   3   6
ENDBRANCH   1   2
BRANCH   1  14
HETATM   14  N   UNL     1      42.155 -16.571   5.964  1.00  0.00     0.100 N 
HETATM   15  H   UNL     1      41.492 -16.656   5.190  1.00  0.00     0.317 HD
BRANCH  14  16
HETATM   16  C   UNL     1      43.503 -16.863   5.435  1.00  0.00     0.251 C 
HETATM   17  C   UNL     1      44.599 -16.366   6.394  1.00  0.00     0.048 C 
BRANCH  16  18
HETATM   18  C   UNL     1      43.658 -18.298   4.939  1.00  0.00    -0.002 A 
HETATM   19  C   UNL     1      43.619 -18.617   3.560  1.00  0.00     0.064 A 
HETATM   20 CL   UNL     1      43.390 -17.365   2.374  1.00  0.00    -0.082 Cl
HETATM   21  C   UNL     1      43.764 -19.952   3.138  1.00  0.00     0.056 A 
HETATM   22 CL   UNL     1      43.742 -20.413   1.469  1.00  0.00    -0.083 Cl
HETATM   23  C   UNL     1      43.938 -20.975   4.072  1.00  0.00     0.026 A 
HETATM   24  C   UNL     1      43.963 -20.678   5.430  1.00  0.00     0.002 A 
HETATM   25  C   UNL     1      43.822 -19.357   5.858  1.00  0.00     0.011 A 
ENDBRANCH  16  18
ENDBRANCH  14  16
ENDBRANCH   1  14
TORSDOF 5
ENDMDL
MODEL 2
REMARK VINA RESULT:      -7.6      1.925      2.826
REMARK  5 active torsions:
REMARK  status: ('A' for Active; 'I' for Inactive)
REMARK    1  A    between atoms: C_8  and  N_9 
REMARK       I    between atoms: N_9  and  C_10 
REMARK    2  A    between atoms: C_10  and  C_11 
REMARK    3  A    between atoms: C_11  and  N_12 
REMARK    4  A    between atoms: N_12  and  C_13 
REMARK    5  A    between atoms: C_13  and  C_14 
ROOT
HETATM    1  C   UNL     1      41.174 -16.043   5.312  1.00  0.00     0.372 C 
ENDROOT
BRANCH   1   2
HETATM    2  C   UNL     1      40.864 -14.642   5.866  1.00  0.00     0.250 C 
HETATM    3  N   UNL     1      41.788 -13.705   5.458  1.00  0.00    -0.322 N 
HETATM    4  H   UNL     1      42.520 -14.074   4.854  1.00  0.00     0.169 HD
HETATM    5  O   UNL     1      39.871 -14.454   6.559  1.00  0.00    -0.271 OA
BRANCH   3   6
HETATM    6  C   UNL     1      41.857 -12.367   5.793  1.00  0.00     0.085 A 
HETATM    7  C   UNL     1      42.976 -11.835   6.407  1.00  0.00     0.052 A 
HETATM    8  C   UNL     1      44.262 -12.435   6.835  1.00  0.00     0.072 C 
HETATM    9  N   UNL     1      42.704 -10.512   6.600  1.00  0.00    -0.280 N 
HETATM   10  H   UNL     1      43.294  -9.806   7.026  1.00  0.00     0.189 HD
HETATM   11  N   UNL     1      41.498 -10.139   6.164  1.00  0.00    -0.177 NA
HETATM   12  C   UNL     1      40.965 -11.263   5.660  1.00  0.00     0.079 A 
HETATM   13  C   UNL     1      39.601 -11.187   5.081  1.00  0.00     0.075 C 
ENDBRANCH   3   6
ENDBRANCH   1   2
BRANCH   1  14
HETATM   14  N   UNL     1      42.195 -16.714   6.149  1.00  0.00     0.100 N 
HETATM   15  H   UNL     1      41.822 -17.625   6.426  1.00  0.00     0.317 HD
BRANCH  14  16
HETATM   16  C   UNL     1      43.484 -16.944   5.466  1.00  0.00     0.251 C 
HETATM   17  C   UNL     1      44.661 -16.404   6.297  1.00  0.00     0.048 C 
BRANCH  16  18
HETATM   18  C   UNL     1      43.642 -18.369   4.941  1.00  0.00    -0.002 A 
HETATM   19  C   UNL     1      43.620 -18.659   3.555  1.00  0.00     0.064 A 
HETATM   20 CL   UNL     1      43.408 -17.381   2.394  1.00  0.00    -0.082 Cl
HETATM   21  C   UNL     1      43.768 -19.985   3.107  1.00  0.00     0.056 A 
HETATM   22 CL   UNL     1      43.765 -20.411   1.429  1.00  0.00    -0.083 Cl
HETATM   23  C   UNL     1      43.928 -21.028   4.022  1.00  0.00     0.026 A 
HETATM   24  C   UNL     1      43.937 -20.759   5.386  1.00  0.00     0.002 A 
HETATM   25  C   UNL     1      43.793 -19.447   5.840  1.00  0.00     0.011 A 
ENDBRANCH  16  18
ENDBRANCH  14  16
ENDBRANCH   1  14
TORSDOF 5
ENDMDL
MODEL 3
REMARK VINA RESULT:      -7.5      1.152      2.079
REMARK  5 active torsions:
REMARK  status: ('A' for Active; 'I' for Inactive)
REMARK    1  A    between atoms: C_8  and  N_9 
REMARK       I    between atoms: N_9  and  C_10 
REMARK    2  A    between atoms: C_10  and  C_11 
REMARK    3  A    between atoms: C_11  and  N_12 
REMARK    4  A    between atoms: N_12  and  C_13 
REMARK    5  A    between atoms: C_13  and  C_14 
ROOT
HETATM    1  C   UNL     1      42.050 -14.950   5.762  1.00  0.00     0.372 C 
ENDROOT
BRANCH   1   2
HETATM    2  C   UNL     1      41.949 -14.224   4.410  1.00  0.00     0.250 C 
HETATM    3  N   UNL     1      40.642 -14.042   4.014  1.00  0.00    -0.322 N 
HETATM    4  H   UNL     1      39.952 -14.403   4.669  1.00  0.00     0.169 HD
HETATM    5  O   UNL     1      42.961 -13.853   3.827  1.00  0.00    -0.271 OA
BRANCH   3   6
HETATM    6  C   UNL     1      40.171 -13.476   2.845  1.00  0.00     0.085 A 
HETATM    7  C   UNL     1      39.753 -12.159   2.801  1.00  0.00     0.052 A 
HETATM    8  C   UNL     1      39.689 -11.095   3.830  1.00  0.00     0.072 C 
HETATM    9  N   UNL     1      39.348 -11.938   1.516  1.00  0.00    -0.280 N 
HETATM   10  H   UNL     1      38.977 -11.084   1.113  1.00  0.00     0.189 HD
HETATM   11  N   UNL     1      39.465 -13.005   0.721  1.00  0.00    -0.177 NA
HETATM   12  C   UNL     1      39.974 -13.958   1.518  1.00  0.00     0.079 A 
HETATM   13  C   UNL     1      40.232 -15.295   0.927  1.00  0.00     0.075 C 
ENDBRANCH   3   6
ENDBRANCH   1   2
BRANCH   1  14
HETATM   14  N   UNL     1      42.218 -16.407   5.553  1.00  0.00     0.100 N 
HETATM   15  H   UNL     1      41.643 -16.675   4.751  1.00  0.00     0.317 HD
BRANCH  14  16
HETATM   16  C   UNL     1      43.606 -16.824   5.271  1.00  0.00     0.251 C 
HETATM   17  C   UNL     1      44.555 -16.413   6.410  1.00  0.00     0.048 C 
BRANCH  16  18
HETATM   18  C   UNL     1      43.717 -18.274   4.806  1.00  0.00    -0.002 A 
HETATM   19  C   UNL     1      43.636 -18.625   3.436  1.00  0.00     0.064 A 
HETATM   20 CL   UNL     1      43.403 -17.396   2.227  1.00  0.00    -0.082 Cl
HETATM   21  C   UNL     1      43.742 -19.972   3.043  1.00  0.00     0.056 A 
HETATM   22 CL   UNL     1      43.666 -20.472   1.387  1.00  0.00    -0.083 Cl
HETATM   23  C   UNL     1      43.918 -20.976   3.997  1.00  0.00     0.026 A 
HETATM   24  C   UNL     1      43.984 -20.647   5.347  1.00  0.00     0.002 A 
HETATM   25  C   UNL     1      43.882 -19.314   5.746  1.00  0.00     0.011 A 
ENDBRANCH  16  18
ENDBRANCH  14  16
ENDBRANCH   1  14
TORSDOF 5
ENDMDL
MODEL 4
REMARK VINA RESULT:      -7.3      2.705      4.834
REMARK  5 active torsions:
REMARK  status: ('A' for Active; 'I' for Inactive)
REMARK    1  A    between atoms: C_8  and  N_9 
REMARK       I    between atoms: N_9  and  C_10 
REMARK    2  A    between atoms: C_10  and  C_11 
REMARK    3  A    between atoms: C_11  and  N_12 
REMARK    4  A    between atoms: N_12  and  C_13 
REMARK    5  A    between atoms: C_13  and  C_14 
ROOT
HETATM    1  C   UNL     1      39.797 -13.226   3.603  1.00  0.00     0.372 C 
ENDROOT
BRANCH   1   2
HETATM    2  C   UNL     1      40.324 -12.869   5.003  1.00  0.00     0.250 C 
HETATM    3  N   UNL     1      41.663 -12.546   4.987  1.00  0.00    -0.322 N 
HETATM    4  H   UNL     1      42.093 -12.584   4.065  1.00  0.00     0.169 HD
HETATM    5  O   UNL     1      39.570 -12.865   5.969  1.00  0.00    -0.271 OA
BRANCH   3   6
HETATM    6  C   UNL     1      42.480 -12.221   6.054  1.00  0.00     0.085 A 
HETATM    7  C   UNL     1      42.470 -10.955   6.608  1.00  0.00     0.052 A 
HETATM    8  C   UNL     1      41.699  -9.729   6.291  1.00  0.00     0.072 C 
HETATM    9  N   UNL     1      43.390 -10.980   7.617  1.00  0.00    -0.280 N 
HETATM   10  H   UNL     1      43.654 -10.229   8.244  1.00  0.00     0.189 HD
HETATM   11  N   UNL     1      43.999 -12.160   7.762  1.00  0.00    -0.177 NA
HETATM   12  C   UNL     1      43.451 -12.936   6.813  1.00  0.00     0.079 A 
HETATM   13  C   UNL     1      43.919 -14.341   6.707  1.00  0.00     0.075 C 
ENDBRANCH   3   6
ENDBRANCH   1   2
BRANCH   1  14
HETATM   14  N   UNL     1      40.789 -14.046   2.872  1.00  0.00     0.100 N 
HETATM   15  H   UNL     1      41.693 -13.928   3.336  1.00  0.00     0.317 HD
BRANCH  14  16
HETATM   16  C   UNL     1      40.482 -15.490   2.845  1.00  0.00     0.251 C 
HETATM   17  C   UNL     1      39.801 -15.892   1.525  1.00  0.00     0.048 C 
BRANCH  16  18
HETATM   18  C   UNL     1      41.657 -16.364   3.278  1.00  0.00    -0.002 A 
HETATM   19  C   UNL     1      41.882 -16.689   4.638  1.00  0.00     0.064 A 
HETATM   20 CL   UNL     1      40.812 -16.091   5.873  1.00  0.00    -0.082 Cl
HETATM   21  C   UNL     1      42.976 -17.497   5.001  1.00  0.00     0.056 A 
HETATM   22 CL   UNL     1      43.304 -17.945   6.641  1.00  0.00    -0.083 Cl
HETATM   23  C   UNL     1      43.854 -17.978   4.028  1.00  0.00     0.026 A 
HETATM   24  C   UNL     1      43.653 -17.655   2.691  1.00  0.00     0.002 A 
HETATM   25  C   UNL     1      42.570 -16.856   2.321  1.00  0.00     0.011 A 
ENDBRANCH  16  18
ENDBRANCH  14  16
ENDBRANCH   1  14
TORSDOF 5
ENDMDL
MODEL 5
REMARK VINA RESULT:      -7.3      3.387      4.609
REMARK  5 active torsions:
REMARK  status: ('A' for Active; 'I' for Inactive)
REMARK    1  A    between atoms: C_8  and  N_9 
REMARK       I    between atoms: N_9  and  C_10 
REMARK    2  A    between atoms: C_10  and  C_11 
REMARK    3  A    between atoms: C_11  and  N_12 
REMARK    4  A    between atoms: N_12  and  C_13 
REMARK    5  A    between atoms: C_13  and  C_14 
ROOT
HETATM    1  C   UNL     1      41.462 -14.199   2.080  1.00  0.00     0.372 C 
ENDROOT
BRANCH   1   2
HETATM    2  C   UNL     1      40.469 -13.690   1.021  1.00  0.00     0.250 C 
HETATM    3  N   UNL     1      40.888 -13.968  -0.261  1.00  0.00    -0.322 N 
HETATM    4  H   UNL     1      41.775 -14.466  -0.314  1.00  0.00     0.169 HD
HETATM    5  O   UNL     1      39.428 -13.138   1.360  1.00  0.00    -0.271 OA
BRANCH   3   6
HETATM    6  C   UNL     1      40.282 -13.625  -1.455  1.00  0.00     0.085 A 
HETATM    7  C   UNL     1      40.476 -12.383  -2.030  1.00  0.00     0.052 A 
HETATM    8  C   UNL     1      41.274 -11.203  -1.618  1.00  0.00     0.072 C 
HETATM    9  N   UNL     1      39.734 -12.380  -3.175  1.00  0.00    -0.280 N 
HETATM   10  H   UNL     1      39.632 -11.634  -3.855  1.00  0.00     0.189 HD
HETATM   11  N   UNL     1      39.070 -13.518  -3.391  1.00  0.00    -0.177 NA
HETATM   12  C   UNL     1      39.398 -14.297  -2.348  1.00  0.00     0.079 A 
HETATM   13  C   UNL     1      38.816 -15.661  -2.287  1.00  0.00     0.075 C 
ENDBRANCH   3   6
ENDBRANCH   1   2
BRANCH   1  14
HETATM   14  N   UNL     1      41.251 -15.642   2.333  1.00  0.00     0.100 N 
HETATM   15  H   UNL     1      40.584 -15.987   1.637  1.00  0.00     0.317 HD
BRANCH  14  16
HETATM   16  C   UNL     1      42.474 -16.463   2.229  1.00  0.00     0.251 C 
HETATM   17  C   UNL     1      43.571 -15.731   1.436  1.00  0.00     0.048 C 
BRANCH  16  18
HETATM   18  C   UNL     1      42.911 -17.067   3.561  1.00  0.00    -0.002 A 
HETATM   19  C   UNL     1      43.434 -18.380   3.648  1.00  0.00     0.064 A 
HETATM   20 CL   UNL     1      43.596 -19.357   2.217  1.00  0.00    -0.082 Cl
HETATM   21  C   UNL     1      43.825 -18.904   4.893  1.00  0.00     0.056 A 
HETATM   22 CL   UNL     1      44.486 -20.495   5.072  1.00  0.00    -0.083 Cl
HETATM   23  C   UNL     1      43.694 -18.143   6.056  1.00  0.00     0.026 A 
HETATM   24  C   UNL     1      43.168 -16.857   5.987  1.00  0.00     0.002 A 
HETATM   25  C   UNL     1      42.779 -16.327   4.756  1.00  0.00     0.011 A 
ENDBRANCH  16  18
ENDBRANCH  14  16
ENDBRANCH   1  14
TORSDOF 5
ENDMDL
MODEL 6
REMARK VINA RESULT:      -7.2      3.745      4.932
REMARK  5 active torsions:
REMARK  status: ('A' for Active; 'I' for Inactive)
REMARK    1  A    between atoms: C_8  and  N_9 
REMARK       I    between atoms: N_9  and  C_10 
REMARK    2  A    between atoms: C_10  and  C_11 
REMARK    3  A    between atoms: C_11  and  N_12 
REMARK    4  A    between atoms: N_12  and  C_13 
REMARK    5  A    between atoms: C_13  and  C_14 
ROOT
HETATM    1  C   UNL     1      42.100 -13.237   1.478  1.00  0.00     0.372 C 
ENDROOT
BRANCH   1   2
HETATM    2  C   UNL     1      41.005 -12.514   0.676  1.00  0.00     0.250 C 
HETATM    3  N   UNL     1      40.940 -12.953  -0.628  1.00  0.00    -0.322 N 
HETATM    4  H   UNL     1      41.610 -13.684  -0.859  1.00  0.00     0.169 HD
HETATM    5  O   UNL     1      40.291 -11.676   1.215  1.00  0.00    -0.271 OA
BRANCH   3   6
HETATM    6  C   UNL     1      40.118 -12.503  -1.644  1.00  0.00     0.085 A 
HETATM    7  C   UNL     1      39.261 -13.360  -2.309  1.00  0.00     0.052 A 
HETATM    8  C   UNL     1      38.987 -14.810  -2.167  1.00  0.00     0.072 C 
HETATM    9  N   UNL     1      38.619 -12.598  -3.243  1.00  0.00    -0.280 N 
HETATM   10  H   UNL     1      37.918 -12.889  -3.915  1.00  0.00     0.189 HD
HETATM   11  N   UNL     1      38.991 -11.316  -3.241  1.00  0.00    -0.177 NA
HETATM   12  C   UNL     1      39.908 -11.237  -2.263  1.00  0.00     0.079 A 
HETATM   13  C   UNL     1      40.528  -9.915  -1.997  1.00  0.00     0.075 C 
ENDBRANCH   3   6
ENDBRANCH   1   2
BRANCH   1  14
HETATM   14  N   UNL     1      42.103 -14.683   1.158  1.00  0.00     0.100 N 
HETATM   15  H   UNL     1      43.078 -14.985   1.086  1.00  0.00     0.317 HD
BRANCH  14  16
HETATM   16  C   UNL     1      41.443 -15.531   2.171  1.00  0.00     0.251 C 
HETATM   17  C   UNL     1      40.159 -16.170   1.614  1.00  0.00     0.048 C 
BRANCH  16  18
HETATM   18  C   UNL     1      42.404 -16.483   2.879  1.00  0.00    -0.002 A 
HETATM   19  C   UNL     1      43.031 -16.136   4.101  1.00  0.00     0.064 A 
HETATM   20 CL   UNL     1      42.720 -14.592   4.840  1.00  0.00    -0.082 Cl
HETATM   21  C   UNL     1      43.912 -17.038   4.725  1.00  0.00     0.056 A 
HETATM   22 CL   UNL     1      44.701 -16.687   6.225  1.00  0.00    -0.083 Cl
HETATM   23  C   UNL     1      44.185 -18.278   4.145  1.00  0.00     0.026 A 
HETATM   24  C   UNL     1      43.588 -18.626   2.938  1.00  0.00     0.002 A 
HETATM   25  C   UNL     1      42.711 -17.738   2.312  1.00  0.00     0.011 A 
ENDBRANCH  16  18
ENDBRANCH  14  16
ENDBRANCH   1  14
TORSDOF 5
ENDMDL
MODEL 7
REMARK VINA RESULT:      -7.2      3.680      5.278
REMARK  5 active torsions:
REMARK  status: ('A' for Active; 'I' for Inactive)
REMARK    1  A    between atoms: C_8  and  N_9 
REMARK       I    between atoms: N_9  and  C_10 
REMARK    2  A    between atoms: C_10  and  C_11 
REMARK    3  A    between atoms: C_11  and  N_12 
REMARK    4  A    between atoms: N_12  and  C_13 
REMARK    5  A    between atoms: C_13  and  C_14 
ROOT
HETATM    1  C   UNL     1      41.485 -13.085   1.279  1.00  0.00     0.372 C 
ENDROOT
BRANCH   1   2
HETATM    2  C   UNL     1      40.777 -12.648  -0.014  1.00  0.00     0.250 C 
HETATM    3  N   UNL     1      39.503 -13.161  -0.109  1.00  0.00    -0.322 N 
HETATM    4  H   UNL     1      39.223 -13.737   0.683  1.00  0.00     0.169 HD
HETATM    5  O   UNL     1      41.339 -11.900  -0.807  1.00  0.00    -0.271 OA
BRANCH   3   6
HETATM    6  C   UNL     1      38.596 -13.020  -1.142  1.00  0.00     0.085 A 
HETATM    7  C   UNL     1      37.784 -11.906  -1.241  1.00  0.00     0.052 A 
HETATM    8  C   UNL     1      37.647 -10.691  -0.403  1.00  0.00     0.072 C 
HETATM    9  N   UNL     1      37.017 -12.098  -2.354  1.00  0.00    -0.280 N 
HETATM   10  H   UNL     1      36.305 -11.488  -2.739  1.00  0.00     0.189 HD
HETATM   11  N   UNL     1      37.263 -13.249  -2.987  1.00  0.00    -0.177 NA
HETATM   12  C   UNL     1      38.233 -13.827  -2.260  1.00  0.00     0.079 A 
HETATM   13  C   UNL     1      38.744 -15.146  -2.707  1.00  0.00     0.075 C 
ENDBRANCH   3   6
ENDBRANCH   1   2
BRANCH   1  14
HETATM   14  N   UNL     1      41.915 -14.499   1.178  1.00  0.00     0.100 N 
HETATM   15  H   UNL     1      42.926 -14.529   1.331  1.00  0.00     0.317 HD
BRANCH  14  16
HETATM   16  C   UNL     1      41.284 -15.397   2.166  1.00  0.00     0.251 C 
HETATM   17  C   UNL     1      40.015 -16.053   1.595  1.00  0.00     0.048 C 
BRANCH  16  18
HETATM   18  C   UNL     1      42.274 -16.345   2.838  1.00  0.00    -0.002 A 
HETATM   19  C   UNL     1      42.946 -15.995   4.034  1.00  0.00     0.064 A 
HETATM   20 CL   UNL     1      42.658 -14.451   4.784  1.00  0.00    -0.082 Cl
HETATM   21  C   UNL     1      43.854 -16.894   4.625  1.00  0.00     0.056 A 
HETATM   22 CL   UNL     1      44.699 -16.538   6.094  1.00  0.00    -0.083 Cl
HETATM   23  C   UNL     1      44.109 -18.133   4.036  1.00  0.00     0.026 A 
HETATM   24  C   UNL     1      43.467 -18.484   2.853  1.00  0.00     0.002 A 
HETATM   25  C   UNL     1      42.564 -17.600   2.261  1.00  0.00     0.011 A 
ENDBRANCH  16  18
ENDBRANCH  14  16
ENDBRANCH   1  14
TORSDOF 5
ENDMDL
MODEL 8
REMARK VINA RESULT:      -7.1      2.996      4.762
REMARK  5 active torsions:
REMARK  status: ('A' for Active; 'I' for Inactive)
REMARK    1  A    between atoms: C_8  and  N_9 
REMARK       I    between atoms: N_9  and  C_10 
REMARK    2  A    between atoms: C_10  and  C_11 
REMARK    3  A    between atoms: C_11  and  N_12 
REMARK    4  A    between atoms: N_12  and  C_13 
REMARK    5  A    between atoms: C_13  and  C_14 
ROOT
HETATM    1  C   UNL     1      41.684 -13.496   2.411  1.00  0.00     0.372 C 
ENDROOT
BRANCH   1   2
HETATM    2  C   UNL     1      42.544 -12.659   3.371  1.00  0.00     0.250 C 
HETATM    3  N   UNL     1      42.104 -12.744   4.673  1.00  0.00    -0.322 N 
HETATM    4  H   UNL     1      41.293 -13.346   4.803  1.00  0.00     0.169 HD
HETATM    5  O   UNL     1      43.515 -12.037   2.954  1.00  0.00    -0.271 OA
BRANCH   3   6
HETATM    6  C   UNL     1      42.598 -12.097   5.790  1.00  0.00     0.085 A 
HETATM    7  C   UNL     1      43.388 -12.757   6.714  1.00  0.00     0.052 A 
HETATM    8  C   UNL     1      43.885 -14.151   6.791  1.00  0.00     0.072 C 
HETATM    9  N   UNL     1      43.685 -11.837   7.678  1.00  0.00    -0.280 N 
HETATM   10  H   UNL     1      44.244 -11.963   8.514  1.00  0.00     0.189 HD
HETATM   11  N   UNL     1      43.150 -10.633   7.458  1.00  0.00    -0.177 NA
HETATM   12  C   UNL     1      42.483 -10.772   6.301  1.00  0.00     0.079 A 
HETATM   13  C   UNL     1      41.764  -9.589   5.766  1.00  0.00     0.075 C 
ENDBRANCH   3   6
ENDBRANCH   1   2
BRANCH   1  14
HETATM   14  N   UNL     1      40.557 -14.121   3.141  1.00  0.00     0.100 N 
HETATM   15  H   UNL     1      39.697 -13.648   2.850  1.00  0.00     0.317 HD
BRANCH  14  16
HETATM   16  C   UNL     1      40.388 -15.564   2.877  1.00  0.00     0.251 C 
HETATM   17  C   UNL     1      39.924 -15.818   1.433  1.00  0.00     0.048 C 
BRANCH  16  18
HETATM   18  C   UNL     1      41.570 -16.405   3.351  1.00  0.00    -0.002 A 
HETATM   19  C   UNL     1      41.834 -16.610   4.728  1.00  0.00     0.064 A 
HETATM   20 CL   UNL     1      40.805 -15.897   5.935  1.00  0.00    -0.082 Cl
HETATM   21  C   UNL     1      42.934 -17.391   5.128  1.00  0.00     0.056 A 
HETATM   22 CL   UNL     1      43.309 -17.695   6.791  1.00  0.00    -0.083 Cl
HETATM   23  C   UNL     1      43.781 -17.964   4.177  1.00  0.00     0.026 A 
HETATM   24  C   UNL     1      43.542 -17.758   2.823  1.00  0.00     0.002 A 
HETATM   25  C   UNL     1      42.452 -16.987   2.416  1.00  0.00     0.011 A 
ENDBRANCH  16  18
ENDBRANCH  14  16
ENDBRANCH   1  14
TORSDOF 5
ENDMDL
MODEL 9
REMARK VINA RESULT:      -7.1     14.418     16.033
REMARK  5 active torsions:
REMARK  status: ('A' for Active; 'I' for Inactive)
REMARK    1  A    between atoms: C_8  and  N_9 
REMARK       I    between atoms: N_9  and  C_10 
REMARK    2  A    between atoms: C_10  and  C_11 
REMARK    3  A    between atoms: C_11  and  N_12 
REMARK    4  A    between atoms: N_12  and  C_13 
REMARK    5  A    between atoms: C_13  and  C_14 
ROOT
HETATM    1  C   UNL     1      45.147 -29.324   2.241  1.00  0.00     0.372 C 
ENDROOT
BRANCH   1   2
HETATM    2  C   UNL     1      46.565 -28.900   1.824  1.00  0.00     0.250 C 
HETATM    3  N   UNL     1      47.291 -29.949   1.305  1.00  0.00    -0.322 N 
HETATM    4  H   UNL     1      46.784 -30.832   1.269  1.00  0.00     0.169 HD
HETATM    5  O   UNL     1      46.925 -27.734   1.943  1.00  0.00    -0.271 OA
BRANCH   3   6
HETATM    6  C   UNL     1      48.603 -29.955   0.873  1.00  0.00     0.085 A 
HETATM    7  C   UNL     1      49.650 -30.149   1.755  1.00  0.00     0.052 A 
HETATM    8  C   UNL     1      49.695 -30.382   3.218  1.00  0.00     0.072 C 
HETATM    9  N   UNL     1      50.789 -30.084   1.005  1.00  0.00    -0.280 N 
HETATM   10  H   UNL     1      51.750 -30.180   1.314  1.00  0.00     0.189 HD
HETATM   11  N   UNL     1      50.568 -29.860  -0.293  1.00  0.00    -0.177 NA
HETATM   12  C   UNL     1      49.232 -29.782  -0.395  1.00  0.00     0.079 A 
HETATM   13  C   UNL     1      48.649 -29.537  -1.737  1.00  0.00     0.075 C 
ENDBRANCH   3   6
ENDBRANCH   1   2
BRANCH   1  14
HETATM   14  N   UNL     1      44.674 -30.443   1.394  1.00  0.00     0.100 N 
HETATM   15  H   UNL     1      44.278 -31.155   2.012  1.00  0.00     0.317 HD
BRANCH  14  16
HETATM   16  C   UNL     1      43.634 -30.067   0.416  1.00  0.00     0.251 C 
HETATM   17  C   UNL     1      42.620 -29.086   1.028  1.00  0.00     0.048 C 
BRANCH  16  18
HETATM   18  C   UNL     1      44.202 -29.671  -0.945  1.00  0.00    -0.002 A 
HETATM   19  C   UNL     1      44.327 -30.607  -2.001  1.00  0.00     0.064 A 
HETATM   20 CL   UNL     1      43.831 -32.259  -1.774  1.00  0.00    -0.082 Cl
HETATM   21  C   UNL     1      44.855 -30.206  -3.242  1.00  0.00     0.056 A 
HETATM   22 CL   UNL     1      45.023 -31.291  -4.581  1.00  0.00    -0.083 Cl
HETATM   23  C   UNL     1      45.270 -28.888  -3.444  1.00  0.00     0.026 A 
HETATM   24  C   UNL     1      45.167 -27.963  -2.411  1.00  0.00     0.002 A 
HETATM   25  C   UNL     1      44.642 -28.350  -1.177  1.00  0.00     0.011 A 
ENDBRANCH  16  18
ENDBRANCH  14  16
ENDBRANCH   1  14
TORSDOF 5
ENDMDL
MODEL 10
REMARK VINA RESULT:      -7.1      3.258      4.383
REMARK  5 active torsions:
REMARK  status: ('A' for Active; 'I' for Inactive)
REMARK    1  A    between atoms: C_8  and  N_9 
REMARK       I    between atoms: N_9  and  C_10 
REMARK    2  A    between atoms: C_10  and  C_11 
REMARK    3  A    between atoms: C_11  and  N_12 
REMARK    4  A    between atoms: N_12  and  C_13 
REMARK    5  A    between atoms: C_13  and  C_14 
ROOT
HETATM    1  C   UNL     1      42.546 -13.896   2.836  1.00  0.00     0.372 C 
ENDROOT
BRANCH   1   2
HETATM    2  C   UNL     1      43.023 -12.664   3.622  1.00  0.00     0.250 C 
HETATM    3  N   UNL     1      42.602 -12.688   4.934  1.00  0.00    -0.322 N 
HETATM    4  H   UNL     1      42.053 -13.509   5.182  1.00  0.00     0.169 HD
HETATM    5  O   UNL     1      43.723 -11.814   3.082  1.00  0.00    -0.271 OA
BRANCH   3   6
HETATM    6  C   UNL     1      42.798 -11.736   5.916  1.00  0.00     0.085 A 
HETATM    7  C   UNL     1      41.738 -11.038   6.464  1.00  0.00     0.052 A 
HETATM    8  C   UNL     1      40.277 -11.082   6.218  1.00  0.00     0.072 C 
HETATM    9  N   UNL     1      42.285 -10.186   7.380  1.00  0.00    -0.280 N 
HETATM   10  H   UNL     1      41.810  -9.518   7.977  1.00  0.00     0.189 HD
HETATM   11  N   UNL     1      43.615 -10.270   7.470  1.00  0.00    -0.177 NA
HETATM   12  C   UNL     1      43.948 -11.220   6.581  1.00  0.00     0.079 A 
HETATM   13  C   UNL     1      45.385 -11.562   6.435  1.00  0.00     0.075 C 
ENDBRANCH   3   6
ENDBRANCH   1   2
BRANCH   1  14
HETATM   14  N   UNL     1      43.346 -15.086   3.208  1.00  0.00     0.100 N 
HETATM   15  H   UNL     1      44.117 -14.770   3.803  1.00  0.00     0.317 HD
BRANCH  14  16
HETATM   16  C   UNL     1      42.594 -16.114   3.955  1.00  0.00     0.251 C 
HETATM   17  C   UNL     1      41.081 -15.839   3.915  1.00  0.00     0.048 C 
BRANCH  16  18
HETATM   18  C   UNL     1      43.018 -17.540   3.612  1.00  0.00    -0.002 A 
HETATM   19  C   UNL     1      43.582 -18.403   4.582  1.00  0.00     0.064 A 
HETATM   20 CL   UNL     1      43.812 -17.856   6.218  1.00  0.00    -0.082 Cl
HETATM   21  C   UNL     1      43.962 -19.712   4.229  1.00  0.00     0.056 A 
HETATM   22 CL   UNL     1      44.644 -20.826   5.366  1.00  0.00    -0.083 Cl
HETATM   23  C   UNL     1      43.797 -20.169   2.921  1.00  0.00     0.026 A 
HETATM   24  C   UNL     1      43.259 -19.326   1.954  1.00  0.00     0.002 A 
HETATM   25  C   UNL     1      42.877 -18.028   2.295  1.00  0.00     0.011 A 
ENDBRANCH  16  18
ENDBRANCH  14  16
ENDBRANCH   1  14
TORSDOF 5
ENDMDL
