MODEL 1
REMARK VINA RESULT:      -7.7      0.000      0.000
REMARK  3 active torsions:
REMARK  status: ('A' for Active; 'I' for Inactive)
REMARK    1  A    between atoms: C_9  and  C_10 
REMARK       I    between atoms: C_10  and  N_11 
REMARK    2  A    between atoms: N_11  and  C_12 
REMARK    3  A    between atoms: C_12  and  C_13 
ROOT
HETATM    1  C   UNL     1      40.867 -13.695   3.979  1.00  0.00     0.258 C 
HETATM    2  N   UNL     1      41.770 -12.973   4.723  1.00  0.00    -0.342 N 
HETATM    3  O   UNL     1      39.732 -13.309   3.732  1.00  0.00    -0.267 OA
HETATM    4  H   UNL     1      42.722 -13.339   4.727  1.00  0.00     0.164 HD
ENDROOT
BRANCH   1   5
HETATM    5  C   UNL     1      41.360 -14.976   3.498  1.00  0.00     0.105 A 
HETATM    6  C   UNL     1      42.323 -15.785   4.075  1.00  0.00     0.169 A 
HETATM    7  N   UNL     1      43.065 -15.633   5.220  1.00  0.00    -0.233 NA
HETATM    8  N   UNL     1      42.476 -16.887   3.227  1.00  0.00    -0.219 N 
HETATM    9  C   UNL     1      43.936 -16.567   5.473  1.00  0.00     0.035 A 
HETATM   10  C   UNL     1      44.795 -16.440   6.706  1.00  0.00     0.070 C 
HETATM   11  C   UNL     1      44.169 -17.778   4.624  1.00  0.00     0.053 A 
HETATM   12  C   UNL     1      43.413 -17.890   3.518  1.00  0.00     0.036 A 
HETATM   13  C   UNL     1      43.528 -19.042   2.568  1.00  0.00     0.070 C 
HETATM   14  N   UNL     1      41.639 -16.818   2.165  1.00  0.00    -0.170 NA
HETATM   15  C   UNL     1      40.977 -15.666   2.318  1.00  0.00     0.071 A 
HETATM   16  C   UNL     1      39.968 -15.254   1.309  1.00  0.00     0.073 C 
ENDBRANCH   1   5
BRANCH   2  17
HETATM   17  C   UNL     1      41.591 -11.575   5.139  1.00  0.00     0.079 C 
HETATM   18  C   UNL     1      41.459 -10.691   3.883  1.00  0.00     0.046 C 
HETATM   19  C   UNL     1      40.347 -11.361   6.027  1.00  0.00     0.046 C 
BRANCH  17  20
HETATM   20  C   UNL     1      42.833 -11.168   5.932  1.00  0.00     0.128 A 
HETATM   21  S   UNL     1      44.426 -11.570   5.394  1.00  0.00    -0.031 SA
HETATM   22  C   UNL     1      45.025 -10.839   6.825  1.00  0.00     0.187 A 
HETATM   23  N   UNL     1      46.340 -10.830   7.116  1.00  0.00    -0.377 N 
HETATM   24  N   UNL     1      44.090 -10.328   7.591  1.00  0.00    -0.124 NA
HETATM   25  H   UNL     1      46.923 -11.538   6.683  1.00  0.00     0.158 HD
HETATM   26  H   UNL     1      46.571 -10.643   8.085  1.00  0.00     0.158 HD
HETATM   27  N   UNL     1      42.823 -10.515   7.078  1.00  0.00    -0.142 NA
ENDBRANCH  17  20
ENDBRANCH   2  17
TORSDOF 3
ENDMDL
MODEL 2
REMARK VINA RESULT:      -7.7      3.450      5.582
REMARK  3 active torsions:
REMARK  status: ('A' for Active; 'I' for Inactive)
REMARK    1  A    between atoms: C_9  and  C_10 
REMARK       I    between atoms: C_10  and  N_11 
REMARK    2  A    between atoms: N_11  and  C_12 
REMARK    3  A    between atoms: C_12  and  C_13 
ROOT
HETATM    1  C   UNL     1      42.869 -15.375   3.086  1.00  0.00     0.258 C 
HETATM    2  N   UNL     1      41.638 -14.825   3.355  1.00  0.00    -0.342 N 
HETATM    3  O   UNL     1      43.607 -14.979   2.192  1.00  0.00    -0.267 OA
HETATM    4  H   UNL     1      41.197 -15.149   4.216  1.00  0.00     0.164 HD
ENDROOT
BRANCH   1   5
HETATM    5  C   UNL     1      43.244 -16.484   3.949  1.00  0.00     0.105 A 
HETATM    6  C   UNL     1      43.419 -17.811   3.596  1.00  0.00     0.169 A 
HETATM    7  N   UNL     1      43.302 -18.449   2.387  1.00  0.00    -0.233 NA
HETATM    8  N   UNL     1      43.741 -18.496   4.773  1.00  0.00    -0.219 N 
HETATM    9  C   UNL     1      43.492 -19.737   2.392  1.00  0.00     0.035 A 
HETATM   10  C   UNL     1      43.353 -20.492   1.094  1.00  0.00     0.070 C 
HETATM   11  C   UNL     1      43.838 -20.550   3.600  1.00  0.00     0.053 A 
HETATM   12  C   UNL     1      43.952 -19.882   4.761  1.00  0.00     0.036 A 
HETATM   13  C   UNL     1      44.291 -20.555   6.056  1.00  0.00     0.070 C 
HETATM   14  N   UNL     1      43.800 -17.658   5.836  1.00  0.00    -0.170 NA
HETATM   15  C   UNL     1      43.490 -16.453   5.347  1.00  0.00     0.071 A 
HETATM   16  C   UNL     1      43.444 -15.277   6.253  1.00  0.00     0.073 C 
ENDBRANCH   1   5
BRANCH   2  17
HETATM   17  C   UNL     1      41.129 -13.576   2.773  1.00  0.00     0.079 C 
HETATM   18  C   UNL     1      39.929 -13.086   3.608  1.00  0.00     0.046 C 
HETATM   19  C   UNL     1      42.188 -12.454   2.723  1.00  0.00     0.046 C 
BRANCH  17  20
HETATM   20  C   UNL     1      40.676 -13.885   1.346  1.00  0.00     0.128 A 
HETATM   21  S   UNL     1      40.923 -12.765   0.052  1.00  0.00    -0.031 SA
HETATM   22  C   UNL     1      40.101 -13.866  -0.973  1.00  0.00     0.187 A 
HETATM   23  N   UNL     1      39.863 -13.582  -2.269  1.00  0.00    -0.377 N 
HETATM   24  N   UNL     1      39.720 -14.968  -0.372  1.00  0.00    -0.124 NA
HETATM   25  H   UNL     1      39.855 -12.606  -2.542  1.00  0.00     0.158 HD
HETATM   26  H   UNL     1      39.142 -14.139  -2.712  1.00  0.00     0.158 HD
HETATM   27  N   UNL     1      40.052 -14.984   0.967  1.00  0.00    -0.142 NA
ENDBRANCH  17  20
ENDBRANCH   2  17
TORSDOF 3
ENDMDL
MODEL 3
REMARK VINA RESULT:      -7.6      2.177      3.953
REMARK  3 active torsions:
REMARK  status: ('A' for Active; 'I' for Inactive)
REMARK    1  A    between atoms: C_9  and  C_10 
REMARK       I    between atoms: C_10  and  N_11 
REMARK    2  A    between atoms: N_11  and  C_12 
REMARK    3  A    between atoms: C_12  and  C_13 
ROOT
HETATM    1  C   UNL     1      43.287 -14.181   6.389  1.00  0.00     0.258 C 
HETATM    2  N   UNL     1      44.406 -13.384   6.344  1.00  0.00    -0.342 N 
HETATM    3  O   UNL     1      42.181 -13.775   6.726  1.00  0.00    -0.267 OA
HETATM    4  H   UNL     1      45.224 -13.809   5.906  1.00  0.00     0.164 HD
ENDROOT
BRANCH   1   5
HETATM    5  C   UNL     1      43.507 -15.567   6.006  1.00  0.00     0.105 A 
HETATM    6  C   UNL     1      43.473 -16.109   4.733  1.00  0.00     0.169 A 
HETATM    7  N   UNL     1      43.236 -15.535   3.510  1.00  0.00    -0.233 NA
HETATM    8  N   UNL     1      43.711 -17.480   4.881  1.00  0.00    -0.219 N 
HETATM    9  C   UNL     1      43.230 -16.338   2.485  1.00  0.00     0.035 A 
HETATM   10  C   UNL     1      42.953 -15.762   1.119  1.00  0.00     0.070 C 
HETATM   11  C   UNL     1      43.473 -17.813   2.548  1.00  0.00     0.053 A 
HETATM   12  C   UNL     1      43.711 -18.331   3.766  1.00  0.00     0.036 A 
HETATM   13  C   UNL     1      43.970 -19.789   3.992  1.00  0.00     0.070 C 
HETATM   14  N   UNL     1      43.918 -17.813   6.177  1.00  0.00    -0.170 NA
HETATM   15  C   UNL     1      43.783 -16.669   6.856  1.00  0.00     0.071 A 
HETATM   16  C   UNL     1      43.932 -16.665   8.333  1.00  0.00     0.073 C 
ENDBRANCH   1   5
BRANCH   2  17
HETATM   17  C   UNL     1      44.405 -11.921   6.478  1.00  0.00     0.079 C 
HETATM   18  C   UNL     1      43.857 -11.545   7.868  1.00  0.00     0.046 C 
HETATM   19  C   UNL     1      45.807 -11.296   6.313  1.00  0.00     0.046 C 
BRANCH  17  20
HETATM   20  C   UNL     1      43.489 -11.361   5.390  1.00  0.00     0.128 A 
HETATM   21  S   UNL     1      43.743 -11.716   3.717  1.00  0.00    -0.031 SA
HETATM   22  C   UNL     1      42.417 -10.687   3.363  1.00  0.00     0.187 A 
HETATM   23  N   UNL     1      42.038 -10.436   2.095  1.00  0.00    -0.377 N 
HETATM   24  N   UNL     1      41.848 -10.171   4.426  1.00  0.00    -0.124 NA
HETATM   25  H   UNL     1      42.727 -10.566   1.363  1.00  0.00     0.158 HD
HETATM   26  H   UNL     1      41.452  -9.618   1.969  1.00  0.00     0.158 HD
HETATM   27  N   UNL     1      42.463 -10.558   5.599  1.00  0.00    -0.142 NA
ENDBRANCH  17  20
ENDBRANCH   2  17
TORSDOF 3
ENDMDL
MODEL 4
REMARK VINA RESULT:      -7.4      4.054      6.950
REMARK  3 active torsions:
REMARK  status: ('A' for Active; 'I' for Inactive)
REMARK    1  A    between atoms: C_9  and  C_10 
REMARK       I    between atoms: C_10  and  N_11 
REMARK    2  A    between atoms: N_11  and  C_12 
REMARK    3  A    between atoms: C_12  and  C_13 
ROOT
HETATM    1  C   UNL     1      41.517 -11.271   1.215  1.00  0.00     0.258 C 
HETATM    2  N   UNL     1      40.790 -12.014   0.314  1.00  0.00    -0.342 N 
HETATM    3  O   UNL     1      41.985 -10.168   0.960  1.00  0.00    -0.267 OA
HETATM    4  H   UNL     1      40.336 -12.841   0.701  1.00  0.00     0.164 HD
ENDROOT
BRANCH   1   5
HETATM    5  C   UNL     1      41.701 -11.896   2.515  1.00  0.00     0.105 A 
HETATM    6  C   UNL     1      42.154 -13.176   2.783  1.00  0.00     0.169 A 
HETATM    7  N   UNL     1      42.550 -14.189   1.948  1.00  0.00    -0.233 NA
HETATM    8  N   UNL     1      42.125 -13.323   4.174  1.00  0.00    -0.219 N 
HETATM    9  C   UNL     1      42.887 -15.311   2.518  1.00  0.00     0.035 A 
HETATM   10  C   UNL     1      43.310 -16.466   1.646  1.00  0.00     0.070 C 
HETATM   11  C   UNL     1      42.885 -15.559   3.994  1.00  0.00     0.053 A 
HETATM   12  C   UNL     1      42.500 -14.534   4.774  1.00  0.00     0.036 A 
HETATM   13  C   UNL     1      42.443 -14.627   6.268  1.00  0.00     0.070 C 
HETATM   14  N   UNL     1      41.701 -12.192   4.786  1.00  0.00    -0.170 NA
HETATM   15  C   UNL     1      41.434 -11.338   3.792  1.00  0.00     0.071 A 
HETATM   16  C   UNL     1      40.924  -9.978   4.104  1.00  0.00     0.073 C 
ENDBRANCH   1   5
BRANCH   2  17
HETATM   17  C   UNL     1      40.292 -11.520  -0.977  1.00  0.00     0.079 C 
HETATM   18  C   UNL     1      39.212 -10.451  -0.722  1.00  0.00     0.046 C 
HETATM   19  C   UNL     1      41.399 -10.906  -1.859  1.00  0.00     0.046 C 
BRANCH  17  20
HETATM   20  C   UNL     1      39.680 -12.709  -1.718  1.00  0.00     0.128 A 
HETATM   21  S   UNL     1      39.439 -14.237  -0.944  1.00  0.00    -0.031 SA
HETATM   22  C   UNL     1      38.860 -14.833  -2.443  1.00  0.00     0.187 A 
HETATM   23  N   UNL     1      38.492 -16.120  -2.596  1.00  0.00    -0.377 N 
HETATM   24  N   UNL     1      38.837 -13.935  -3.399  1.00  0.00    -0.124 NA
HETATM   25  H   UNL     1      38.876 -16.799  -1.949  1.00  0.00     0.158 HD
HETATM   26  H   UNL     1      38.440 -16.448  -3.554  1.00  0.00     0.158 HD
HETATM   27  N   UNL     1      39.309 -12.706  -2.984  1.00  0.00    -0.142 NA
ENDBRANCH  17  20
ENDBRANCH   2  17
TORSDOF 3
ENDMDL
MODEL 5
REMARK VINA RESULT:      -7.4      2.732      6.640
REMARK  3 active torsions:
REMARK  status: ('A' for Active; 'I' for Inactive)
REMARK    1  A    between atoms: C_9  and  C_10 
REMARK       I    between atoms: C_10  and  N_11 
REMARK    2  A    between atoms: N_11  and  C_12 
REMARK    3  A    between atoms: C_12  and  C_13 
ROOT
HETATM    1  C   UNL     1      42.419 -14.301   5.181  1.00  0.00     0.258 C 
HETATM    2  N   UNL     1      43.077 -15.422   4.731  1.00  0.00    -0.342 N 
HETATM    3  O   UNL     1      41.964 -14.193   6.314  1.00  0.00    -0.267 OA
HETATM    4  H   UNL     1      43.533 -15.322   3.824  1.00  0.00     0.164 HD
ENDROOT
BRANCH   1   5
HETATM    5  C   UNL     1      42.295 -13.232   4.204  1.00  0.00     0.105 A 
HETATM    6  C   UNL     1      41.696 -13.289   2.957  1.00  0.00     0.169 A 
HETATM    7  N   UNL     1      41.067 -14.316   2.302  1.00  0.00    -0.233 NA
HETATM    8  N   UNL     1      41.860 -12.024   2.380  1.00  0.00    -0.219 N 
HETATM    9  C   UNL     1      40.638 -14.059   1.099  1.00  0.00     0.035 A 
HETATM   10  C   UNL     1      39.959 -15.160   0.324  1.00  0.00     0.070 C 
HETATM   11  C   UNL     1      40.771 -12.740   0.403  1.00  0.00     0.053 A 
HETATM   12  C   UNL     1      41.385 -11.760   1.088  1.00  0.00     0.036 A 
HETATM   13  C   UNL     1      41.595 -10.387   0.527  1.00  0.00     0.070 C 
HETATM   14  N   UNL     1      42.508 -11.177   3.214  1.00  0.00    -0.170 NA
HETATM   15  C   UNL     1      42.782 -11.902   4.304  1.00  0.00     0.071 A 
HETATM   16  C   UNL     1      43.513 -11.283   5.439  1.00  0.00     0.073 C 
ENDBRANCH   1   5
BRANCH   2  17
HETATM   17  C   UNL     1      43.512 -16.541   5.578  1.00  0.00     0.079 C 
HETATM   18  C   UNL     1      44.864 -16.182   6.225  1.00  0.00     0.046 C 
HETATM   19  C   UNL     1      42.504 -16.883   6.696  1.00  0.00     0.046 C 
BRANCH  17  20
HETATM   20  C   UNL     1      43.675 -17.764   4.677  1.00  0.00     0.128 A 
HETATM   21  S   UNL     1      43.242 -17.724   3.003  1.00  0.00    -0.031 SA
HETATM   22  C   UNL     1      43.668 -19.383   2.919  1.00  0.00     0.187 A 
HETATM   23  N   UNL     1      43.521 -20.092   1.783  1.00  0.00    -0.377 N 
HETATM   24  N   UNL     1      44.116 -19.874   4.050  1.00  0.00    -0.124 NA
HETATM   25  H   UNL     1      42.851 -19.754   1.101  1.00  0.00     0.158 HD
HETATM   26  H   UNL     1      43.521 -21.100   1.895  1.00  0.00     0.158 HD
HETATM   27  N   UNL     1      44.123 -18.942   5.067  1.00  0.00    -0.142 NA
ENDBRANCH  17  20
ENDBRANCH   2  17
TORSDOF 3
ENDMDL
MODEL 6
REMARK VINA RESULT:      -7.3      1.446      3.045
REMARK  3 active torsions:
REMARK  status: ('A' for Active; 'I' for Inactive)
REMARK    1  A    between atoms: C_9  and  C_10 
REMARK       I    between atoms: C_10  and  N_11 
REMARK    2  A    between atoms: N_11  and  C_12 
REMARK    3  A    between atoms: C_12  and  C_13 
ROOT
HETATM    1  C   UNL     1      42.874 -14.115   5.749  1.00  0.00     0.258 C 
HETATM    2  N   UNL     1      42.940 -13.006   4.940  1.00  0.00    -0.342 N 
HETATM    3  O   UNL     1      42.613 -14.066   6.945  1.00  0.00    -0.267 OA
HETATM    4  H   UNL     1      43.017 -13.201   3.941  1.00  0.00     0.164 HD
ENDROOT
BRANCH   1   5
HETATM    5  C   UNL     1      43.144 -15.378   5.078  1.00  0.00     0.105 A 
HETATM    6  C   UNL     1      42.569 -15.858   3.915  1.00  0.00     0.169 A 
HETATM    7  N   UNL     1      41.622 -15.317   3.082  1.00  0.00    -0.233 NA
HETATM    8  N   UNL     1      43.124 -17.123   3.691  1.00  0.00    -0.219 N 
HETATM    9  C   UNL     1      41.252 -16.051   2.072  1.00  0.00     0.035 A 
HETATM   10  C   UNL     1      40.198 -15.514   1.137  1.00  0.00     0.070 C 
HETATM   11  C   UNL     1      41.789 -17.412   1.757  1.00  0.00     0.053 A 
HETATM   12  C   UNL     1      42.722 -17.898   2.594  1.00  0.00     0.036 A 
HETATM   13  C   UNL     1      43.354 -19.244   2.413  1.00  0.00     0.070 C 
HETATM   14  N   UNL     1      44.034 -17.442   4.642  1.00  0.00    -0.170 NA
HETATM   15  C   UNL     1      44.038 -16.403   5.483  1.00  0.00     0.071 A 
HETATM   16  C   UNL     1      44.925 -16.419   6.674  1.00  0.00     0.073 C 
ENDBRANCH   1   5
BRANCH   2  17
HETATM   17  C   UNL     1      42.506 -11.656   5.324  1.00  0.00     0.079 C 
HETATM   18  C   UNL     1      42.324 -10.806   4.051  1.00  0.00     0.046 C 
HETATM   19  C   UNL     1      41.183 -11.647   6.119  1.00  0.00     0.046 C 
BRANCH  17  20
HETATM   20  C   UNL     1      43.605 -11.052   6.198  1.00  0.00     0.128 A 
HETATM   21  S   UNL     1      45.280 -11.345   5.885  1.00  0.00    -0.031 SA
HETATM   22  C   UNL     1      45.639 -10.420   7.284  1.00  0.00     0.187 A 
HETATM   23  N   UNL     1      46.904 -10.252   7.713  1.00  0.00    -0.377 N 
HETATM   24  N   UNL     1      44.579  -9.931   7.882  1.00  0.00    -0.124 NA
HETATM   25  H   UNL     1      47.593 -10.938   7.428  1.00  0.00     0.158 HD
HETATM   26  H   UNL     1      47.001  -9.948   8.676  1.00  0.00     0.158 HD
HETATM   27  N   UNL     1      43.402 -10.292   7.258  1.00  0.00    -0.142 NA
ENDBRANCH  17  20
ENDBRANCH   2  17
TORSDOF 3
ENDMDL
MODEL 7
REMARK VINA RESULT:      -7.2      3.187      6.006
REMARK  3 active torsions:
REMARK  status: ('A' for Active; 'I' for Inactive)
REMARK    1  A    between atoms: C_9  and  C_10 
REMARK       I    between atoms: C_10  and  N_11 
REMARK    2  A    between atoms: N_11  and  C_12 
REMARK    3  A    between atoms: C_12  and  C_13 
ROOT
HETATM    1  C   UNL     1      42.280 -12.217   2.921  1.00  0.00     0.258 C 
HETATM    2  N   UNL     1      41.209 -12.685   2.196  1.00  0.00    -0.342 N 
HETATM    3  O   UNL     1      42.857 -11.166   2.672  1.00  0.00    -0.267 OA
HETATM    4  H   UNL     1      40.732 -13.492   2.599  1.00  0.00     0.164 HD
ENDROOT
BRANCH   1   5
HETATM    5  C   UNL     1      42.692 -13.072   4.023  1.00  0.00     0.105 A 
HETATM    6  C   UNL     1      42.962 -14.429   3.986  1.00  0.00     0.169 A 
HETATM    7  N   UNL     1      42.929 -15.332   2.953  1.00  0.00    -0.233 NA
HETATM    8  N   UNL     1      43.284 -14.805   5.295  1.00  0.00    -0.219 N 
HETATM    9  C   UNL     1      43.199 -16.569   3.257  1.00  0.00     0.035 A 
HETATM   10  C   UNL     1      43.155 -17.607   2.164  1.00  0.00     0.070 C 
HETATM   11  C   UNL     1      43.551 -17.060   4.626  1.00  0.00     0.053 A 
HETATM   12  C   UNL     1      43.582 -16.139   5.605  1.00  0.00     0.036 A 
HETATM   13  C   UNL     1      43.916 -16.475   7.026  1.00  0.00     0.070 C 
HETATM   14  N   UNL     1      43.253 -13.746   6.139  1.00  0.00    -0.170 NA
HETATM   15  C   UNL     1      42.885 -12.708   5.380  1.00  0.00     0.071 A 
HETATM   16  C   UNL     1      42.733 -11.363   5.992  1.00  0.00     0.073 C 
ENDBRANCH   1   5
BRANCH   2  17
HETATM   17  C   UNL     1      40.477 -11.915   1.181  1.00  0.00     0.079 C 
HETATM   18  C   UNL     1      39.303 -11.182   1.858  1.00  0.00     0.046 C 
HETATM   19  C   UNL     1      41.359 -10.874   0.458  1.00  0.00     0.046 C 
BRANCH  17  20
HETATM   20  C   UNL     1      39.945 -12.906   0.147  1.00  0.00     0.128 A 
HETATM   21  S   UNL     1      38.914 -12.403  -1.148  1.00  0.00    -0.031 SA
HETATM   22  C   UNL     1      38.820 -14.047  -1.627  1.00  0.00     0.187 A 
HETATM   23  N   UNL     1      38.056 -14.436  -2.666  1.00  0.00    -0.377 N 
HETATM   24  N   UNL     1      39.531 -14.858  -0.880  1.00  0.00    -0.124 NA
HETATM   25  H   UNL     1      37.287 -13.834  -2.936  1.00  0.00     0.158 HD
HETATM   26  H   UNL     1      37.836 -15.425  -2.698  1.00  0.00     0.158 HD
HETATM   27  N   UNL     1      40.183 -14.204   0.144  1.00  0.00    -0.142 NA
ENDBRANCH  17  20
ENDBRANCH   2  17
TORSDOF 3
ENDMDL
MODEL 8
REMARK VINA RESULT:      -7.2      2.479      6.312
REMARK  3 active torsions:
REMARK  status: ('A' for Active; 'I' for Inactive)
REMARK    1  A    between atoms: C_9  and  C_10 
REMARK       I    between atoms: C_10  and  N_11 
REMARK    2  A    between atoms: N_11  and  C_12 
REMARK    3  A    between atoms: C_12  and  C_13 
ROOT
HETATM    1  C   UNL     1      42.012 -13.508   3.026  1.00  0.00     0.258 C 
HETATM    2  N   UNL     1      42.415 -14.723   3.528  1.00  0.00    -0.342 N 
HETATM    3  O   UNL     1      41.961 -13.255   1.828  1.00  0.00    -0.267 OA
HETATM    4  H   UNL     1      42.269 -14.848   4.530  1.00  0.00     0.164 HD
ENDROOT
BRANCH   1   5
HETATM    5  C   UNL     1      41.646 -12.523   4.031  1.00  0.00     0.105 A 
HETATM    6  C   UNL     1      42.472 -11.907   4.954  1.00  0.00     0.169 A 
HETATM    7  N   UNL     1      43.819 -12.029   5.187  1.00  0.00    -0.233 NA
HETATM    8  N   UNL     1      41.655 -11.069   5.721  1.00  0.00    -0.219 N 
HETATM    9  C   UNL     1      44.301 -11.332   6.176  1.00  0.00     0.035 A 
HETATM   10  C   UNL     1      45.771 -11.446   6.491  1.00  0.00     0.070 C 
HETATM   11  C   UNL     1      43.503 -10.414   7.049  1.00  0.00     0.053 A 
HETATM   12  C   UNL     1      42.190 -10.317   6.777  1.00  0.00     0.036 A 
HETATM   13  C   UNL     1      41.261  -9.442   7.561  1.00  0.00     0.070 C 
HETATM   14  N   UNL     1      40.367 -11.113   5.305  1.00  0.00    -0.170 NA
HETATM   15  C   UNL     1      40.356 -11.994   4.300  1.00  0.00     0.071 A 
HETATM   16  C   UNL     1      39.081 -12.307   3.605  1.00  0.00     0.073 C 
ENDBRANCH   1   5
BRANCH   2  17
HETATM   17  C   UNL     1      42.631 -15.936   2.728  1.00  0.00     0.079 C 
HETATM   18  C   UNL     1      41.277 -16.414   2.168  1.00  0.00     0.046 C 
HETATM   19  C   UNL     1      43.605 -15.720   1.550  1.00  0.00     0.046 C 
BRANCH  17  20
HETATM   20  C   UNL     1      43.215 -17.001   3.655  1.00  0.00     0.128 A 
HETATM   21  S   UNL     1      43.694 -18.555   3.067  1.00  0.00    -0.031 SA
HETATM   22  C   UNL     1      44.082 -18.977   4.683  1.00  0.00     0.187 A 
HETATM   23  N   UNL     1      44.524 -20.208   5.004  1.00  0.00    -0.377 N 
HETATM   24  N   UNL     1      43.886 -18.009   5.546  1.00  0.00    -0.124 NA
HETATM   25  H   UNL     1      44.299 -20.969   4.373  1.00  0.00     0.158 HD
HETATM   26  H   UNL     1      44.454 -20.454   5.985  1.00  0.00     0.158 HD
HETATM   27  N   UNL     1      43.387 -16.865   4.957  1.00  0.00    -0.142 NA
ENDBRANCH  17  20
ENDBRANCH   2  17
TORSDOF 3
ENDMDL
MODEL 9
REMARK VINA RESULT:      -7.2      3.006      5.023
REMARK  3 active torsions:
REMARK  status: ('A' for Active; 'I' for Inactive)
REMARK    1  A    between atoms: C_9  and  C_10 
REMARK       I    between atoms: C_10  and  N_11 
REMARK    2  A    between atoms: N_11  and  C_12 
REMARK    3  A    between atoms: C_12  and  C_13 
ROOT
HETATM    1  C   UNL     1      40.501 -13.009   3.072  1.00  0.00     0.258 C 
HETATM    2  N   UNL     1      41.693 -12.652   3.657  1.00  0.00    -0.342 N 
HETATM    3  O   UNL     1      39.463 -13.176   3.701  1.00  0.00    -0.267 OA
HETATM    4  H   UNL     1      42.438 -12.402   3.006  1.00  0.00     0.164 HD
ENDROOT
BRANCH   1   5
HETATM    5  C   UNL     1      40.556 -13.183   1.629  1.00  0.00     0.105 A 
HETATM    6  C   UNL     1      40.852 -12.228   0.672  1.00  0.00     0.169 A 
HETATM    7  N   UNL     1      41.171 -10.899   0.788  1.00  0.00    -0.233 NA
HETATM    8  N   UNL     1      40.745 -12.865  -0.569  1.00  0.00    -0.219 N 
HETATM    9  C   UNL     1      41.356 -10.249  -0.326  1.00  0.00     0.035 A 
HETATM   10  C   UNL     1      41.686  -8.779  -0.258  1.00  0.00     0.070 C 
HETATM   11  C   UNL     1      41.260 -10.846  -1.695  1.00  0.00     0.053 A 
HETATM   12  C   UNL     1      40.956 -12.154  -1.760  1.00  0.00     0.036 A 
HETATM   13  C   UNL     1      40.823 -12.894  -3.055  1.00  0.00     0.070 C 
HETATM   14  N   UNL     1      40.422 -14.173  -0.432  1.00  0.00    -0.170 NA
HETATM   15  C   UNL     1      40.296 -14.363   0.886  1.00  0.00     0.071 A 
HETATM   16  C   UNL     1      39.927 -15.704   1.406  1.00  0.00     0.073 C 
ENDBRANCH   1   5
BRANCH   2  17
HETATM   17  C   UNL     1      41.850 -12.216   5.051  1.00  0.00     0.079 C 
HETATM   18  C   UNL     1      40.959 -10.983   5.294  1.00  0.00     0.046 C 
HETATM   19  C   UNL     1      41.473 -13.309   6.074  1.00  0.00     0.046 C 
BRANCH  17  20
HETATM   20  C   UNL     1      43.319 -11.844   5.254  1.00  0.00     0.128 A 
HETATM   21  S   UNL     1      44.047 -11.841   6.822  1.00  0.00    -0.031 SA
HETATM   22  C   UNL     1      45.489 -11.281   6.082  1.00  0.00     0.187 A 
HETATM   23  N   UNL     1      46.587 -10.988   6.806  1.00  0.00    -0.377 N 
HETATM   24  N   UNL     1      45.400 -11.150   4.780  1.00  0.00    -0.124 NA
HETATM   25  H   UNL     1      46.458 -10.767   7.787  1.00  0.00     0.158 HD
HETATM   26  H   UNL     1      47.274 -10.407   6.340  1.00  0.00     0.158 HD
HETATM   27  N   UNL     1      44.149 -11.476   4.297  1.00  0.00    -0.142 NA
ENDBRANCH  17  20
ENDBRANCH   2  17
TORSDOF 3
ENDMDL
MODEL 10
REMARK VINA RESULT:      -7.0      3.451      5.628
REMARK  3 active torsions:
REMARK  status: ('A' for Active; 'I' for Inactive)
REMARK    1  A    between atoms: C_9  and  C_10 
REMARK       I    between atoms: C_10  and  N_11 
REMARK    2  A    between atoms: N_11  and  C_12 
REMARK    3  A    between atoms: C_12  and  C_13 
ROOT
HETATM    1  C   UNL     1      40.569 -14.683   2.012  1.00  0.00     0.258 C 
HETATM    2  N   UNL     1      40.822 -13.536   1.298  1.00  0.00    -0.342 N 
HETATM    3  O   UNL     1      39.602 -15.408   1.808  1.00  0.00    -0.267 OA
HETATM    4  H   UNL     1      41.733 -13.111   1.468  1.00  0.00     0.164 HD
ENDROOT
BRANCH   1   5
HETATM    5  C   UNL     1      41.543 -14.984   3.049  1.00  0.00     0.105 A 
HETATM    6  C   UNL     1      42.305 -16.131   3.188  1.00  0.00     0.169 A 
HETATM    7  N   UNL     1      42.373 -17.271   2.428  1.00  0.00    -0.233 NA
HETATM    8  N   UNL     1      43.063 -15.965   4.353  1.00  0.00    -0.219 N 
HETATM    9  C   UNL     1      43.174 -18.205   2.855  1.00  0.00     0.035 A 
HETATM   10  C   UNL     1      43.270 -19.488   2.069  1.00  0.00     0.070 C 
HETATM   11  C   UNL     1      44.018 -18.115   4.088  1.00  0.00     0.053 A 
HETATM   12  C   UNL     1      43.927 -16.976   4.796  1.00  0.00     0.036 A 
HETATM   13  C   UNL     1      44.707 -16.736   6.052  1.00  0.00     0.070 C 
HETATM   14  N   UNL     1      42.829 -14.763   4.932  1.00  0.00    -0.170 NA
HETATM   15  C   UNL     1      41.908 -14.178   4.159  1.00  0.00     0.071 A 
HETATM   16  C   UNL     1      41.397 -12.828   4.510  1.00  0.00     0.073 C 
ENDBRANCH   1   5
BRANCH   2  17
HETATM   17  C   UNL     1      40.114 -13.132   0.075  1.00  0.00     0.079 C 
HETATM   18  C   UNL     1      41.071 -12.307  -0.808  1.00  0.00     0.046 C 
HETATM   19  C   UNL     1      39.592 -14.330  -0.747  1.00  0.00     0.046 C 
BRANCH  17  20
HETATM   20  C   UNL     1      38.924 -12.271   0.495  1.00  0.00     0.128 A 
HETATM   21  S   UNL     1      37.883 -11.529  -0.669  1.00  0.00    -0.031 SA
HETATM   22  C   UNL     1      37.033 -10.816   0.639  1.00  0.00     0.187 A 
HETATM   23  N   UNL     1      36.002  -9.973   0.435  1.00  0.00    -0.377 N 
HETATM   24  N   UNL     1      37.498 -11.151   1.819  1.00  0.00    -0.124 NA
HETATM   25  H   UNL     1      35.952  -9.498  -0.459  1.00  0.00     0.158 HD
HETATM   26  H   UNL     1      35.753  -9.390   1.226  1.00  0.00     0.158 HD
HETATM   27  N   UNL     1      38.589 -11.992   1.741  1.00  0.00    -0.142 NA
ENDBRANCH  17  20
ENDBRANCH   2  17
TORSDOF 3
ENDMDL
