MODEL 1
REMARK VINA RESULT:      -7.3      0.000      0.000
REMARK  6 active torsions:
REMARK  status: ('A' for Active; 'I' for Inactive)
REMARK    1  A    between atoms: C_2  and  C_3 
REMARK    2  A    between atoms: C_3  and  O_4 
REMARK    3  A    between atoms: C_3  and  C_12 
REMARK    4  A    between atoms: O_4  and  C_5 
REMARK    5  A    between atoms: C_12  and  N_13 
REMARK       I    between atoms: N_13  and  C_14 
REMARK       I    between atoms: C_14  and  N_15 
REMARK    6  A    between atoms: N_15  and  C_16 
ROOT
HETATM    1  N   UNL     1      42.027 -13.530   6.347  1.00  0.00    -0.340 N 
HETATM    2  C   UNL     1      42.450 -12.258   6.679  1.00  0.00     0.320 C 
HETATM    3  N   UNL     1      43.550 -12.305   7.508  1.00  0.00    -0.307 N 
HETATM    4  O   UNL     1      41.888 -11.250   6.277  1.00  0.00    -0.247 OA
HETATM    5  H   UNL     1      42.586 -14.316   6.634  1.00  0.00     0.164 HD
HETATM    6  H   UNL     1      43.886 -13.223   7.739  1.00  0.00     0.170 HD
ENDROOT
BRANCH   1   7
HETATM    7  C   UNL     1      41.048 -13.753   5.289  1.00  0.00     0.156 C 
BRANCH   7   8
HETATM    8  C   UNL     1      41.731 -14.210   3.979  1.00  0.00     0.146 C 
BRANCH   8   9
HETATM    9  C   UNL     1      42.039 -13.031   3.045  1.00  0.00     0.029 C 
HETATM   10  C   UNL     1      43.468 -12.523   3.145  1.00  0.00     0.007 C 
ENDBRANCH   8   9
BRANCH   8  11
HETATM   11  O   UNL     1      42.971 -14.834   4.342  1.00  0.00    -0.343 OA
BRANCH  11  12
HETATM   12  C   UNL     1      43.256 -16.114   3.952  1.00  0.00     0.091 A 
HETATM   13  C   UNL     1      43.996 -16.893   4.858  1.00  0.00     0.067 A 
HETATM   14 CL   UNL     1      44.557 -16.241   6.360  1.00  0.00    -0.081 Cl
HETATM   15  C   UNL     1      44.320 -18.221   4.565  1.00  0.00     0.026 A 
HETATM   16  C   UNL     1      43.899 -18.791   3.366  1.00  0.00     0.002 A 
HETATM   17  C   UNL     1      43.160 -18.033   2.464  1.00  0.00     0.003 A 
HETATM   18  C   UNL     1      42.839 -16.700   2.753  1.00  0.00     0.038 A 
ENDBRANCH  11  12
ENDBRANCH   8  11
ENDBRANCH   7   8
ENDBRANCH   1   7
BRANCH   3  19
HETATM   19  C   UNL     1      44.283 -11.211   8.025  1.00  0.00     0.059 A 
HETATM   20  C   UNL     1      45.436 -10.773   7.343  1.00  0.00    -0.032 A 
HETATM   21  C   UNL     1      45.919 -11.417   6.073  1.00  0.00     0.050 C 
HETATM   22  C   UNL     1      46.156  -9.687   7.860  1.00  0.00     0.028 A 
HETATM   23  C   UNL     1      45.718  -9.078   9.024  1.00  0.00     0.117 A 
HETATM   24  N   UNL     1      44.624  -9.470   9.699  1.00  0.00    -0.271 NA
HETATM   25  C   UNL     1      43.931 -10.520   9.186  1.00  0.00     0.146 A 
ENDBRANCH   3  19
TORSDOF 6
ENDMDL
MODEL 2
REMARK VINA RESULT:      -7.2      3.797      7.065
REMARK  6 active torsions:
REMARK  status: ('A' for Active; 'I' for Inactive)
REMARK    1  A    between atoms: C_2  and  C_3 
REMARK    2  A    between atoms: C_3  and  O_4 
REMARK    3  A    between atoms: C_3  and  C_12 
REMARK    4  A    between atoms: O_4  and  C_5 
REMARK    5  A    between atoms: C_12  and  N_13 
REMARK       I    between atoms: N_13  and  C_14 
REMARK       I    between atoms: C_14  and  N_15 
REMARK    6  A    between atoms: N_15  and  C_16 
ROOT
HETATM    1  N   UNL     1      42.677 -15.225   1.563  1.00  0.00    -0.340 N 
HETATM    2  C   UNL     1      42.409 -16.482   2.067  1.00  0.00     0.320 C 
HETATM    3  N   UNL     1      43.575 -17.179   2.299  1.00  0.00    -0.307 N 
HETATM    4  O   UNL     1      41.272 -16.888   2.257  1.00  0.00    -0.247 OA
HETATM    5  H   UNL     1      43.633 -14.916   1.516  1.00  0.00     0.164 HD
HETATM    6  H   UNL     1      44.427 -16.690   2.088  1.00  0.00     0.170 HD
ENDROOT
BRANCH   1   7
HETATM    7  C   UNL     1      41.637 -14.205   1.472  1.00  0.00     0.156 C 
BRANCH   7   8
HETATM    8  C   UNL     1      41.613 -13.313   2.735  1.00  0.00     0.146 C 
BRANCH   8   9
HETATM    9  C   UNL     1      40.666 -12.114   2.578  1.00  0.00     0.029 C 
HETATM   10  C   UNL     1      39.199 -12.460   2.769  1.00  0.00     0.007 C 
ENDBRANCH   8   9
BRANCH   8  11
HETATM   11  O   UNL     1      41.139 -14.124   3.819  1.00  0.00    -0.343 OA
BRANCH  11  12
HETATM   12  C   UNL     1      41.847 -14.226   4.984  1.00  0.00     0.091 A 
HETATM   13  C   UNL     1      41.485 -15.275   5.846  1.00  0.00     0.067 A 
HETATM   14 CL   UNL     1      40.178 -16.344   5.467  1.00  0.00    -0.081 Cl
HETATM   15  C   UNL     1      42.162 -15.480   7.052  1.00  0.00     0.026 A 
HETATM   16  C   UNL     1      43.218 -14.644   7.408  1.00  0.00     0.002 A 
HETATM   17  C   UNL     1      43.590 -13.605   6.560  1.00  0.00     0.003 A 
HETATM   18  C   UNL     1      42.910 -13.395   5.354  1.00  0.00     0.038 A 
ENDBRANCH  11  12
ENDBRANCH   8  11
ENDBRANCH   7   8
ENDBRANCH   1   7
BRANCH   3  19
HETATM   19  C   UNL     1      43.705 -18.477   2.845  1.00  0.00     0.059 A 
HETATM   20  C   UNL     1      44.102 -18.620   4.189  1.00  0.00    -0.032 A 
HETATM   21  C   UNL     1      44.387 -17.442   5.080  1.00  0.00     0.050 C 
HETATM   22  C   UNL     1      44.227 -19.910   4.725  1.00  0.00     0.028 A 
HETATM   23  C   UNL     1      43.960 -21.004   3.920  1.00  0.00     0.117 A 
HETATM   24  N   UNL     1      43.579 -20.904   2.634  1.00  0.00    -0.271 NA
HETATM   25  C   UNL     1      43.457 -19.649   2.128  1.00  0.00     0.146 A 
ENDBRANCH   3  19
TORSDOF 6
ENDMDL
MODEL 3
REMARK VINA RESULT:      -7.1      3.726      6.292
REMARK  6 active torsions:
REMARK  status: ('A' for Active; 'I' for Inactive)
REMARK    1  A    between atoms: C_2  and  C_3 
REMARK    2  A    between atoms: C_3  and  O_4 
REMARK    3  A    between atoms: C_3  and  C_12 
REMARK    4  A    between atoms: O_4  and  C_5 
REMARK    5  A    between atoms: C_12  and  N_13 
REMARK       I    between atoms: N_13  and  C_14 
REMARK       I    between atoms: C_14  and  N_15 
REMARK    6  A    between atoms: N_15  and  C_16 
ROOT
HETATM    1  N   UNL     1      42.912 -13.998   3.935  1.00  0.00    -0.340 N 
HETATM    2  C   UNL     1      41.824 -13.450   3.286  1.00  0.00     0.320 C 
HETATM    3  N   UNL     1      42.021 -13.432   1.922  1.00  0.00    -0.307 N 
HETATM    4  O   UNL     1      40.839 -13.038   3.880  1.00  0.00    -0.247 OA
HETATM    5  H   UNL     1      43.651 -14.403   3.385  1.00  0.00     0.164 HD
HETATM    6  H   UNL     1      42.893 -13.816   1.600  1.00  0.00     0.170 HD
ENDROOT
BRANCH   1   7
HETATM    7  C   UNL     1      42.850 -14.361   5.347  1.00  0.00     0.156 C 
BRANCH   7   8
HETATM    8  C   UNL     1      42.832 -15.896   5.532  1.00  0.00     0.146 C 
BRANCH   8   9
HETATM    9  C   UNL     1      41.470 -16.506   5.166  1.00  0.00     0.029 C 
HETATM   10  C   UNL     1      40.353 -16.139   6.128  1.00  0.00     0.007 C 
ENDBRANCH   8   9
BRANCH   8  11
HETATM   11  O   UNL     1      43.823 -16.443   4.650  1.00  0.00    -0.343 OA
BRANCH  11  12
HETATM   12  C   UNL     1      43.806 -17.767   4.307  1.00  0.00     0.091 A 
HETATM   13  C   UNL     1      43.561 -18.058   2.955  1.00  0.00     0.067 A 
HETATM   14 CL   UNL     1      43.245 -16.805   1.804  1.00  0.00    -0.081 Cl
HETATM   15  C   UNL     1      43.546 -19.379   2.496  1.00  0.00     0.026 A 
HETATM   16  C   UNL     1      43.787 -20.426   3.383  1.00  0.00     0.002 A 
HETATM   17  C   UNL     1      44.038 -20.150   4.724  1.00  0.00     0.003 A 
HETATM   18  C   UNL     1      44.048 -18.828   5.186  1.00  0.00     0.038 A 
ENDBRANCH  11  12
ENDBRANCH   8  11
ENDBRANCH   7   8
ENDBRANCH   1   7
BRANCH   3  19
HETATM   19  C   UNL     1      41.119 -12.983   0.929  1.00  0.00     0.059 A 
HETATM   20  C   UNL     1      40.197 -13.895   0.376  1.00  0.00    -0.032 A 
HETATM   21  C   UNL     1      40.123 -15.334   0.807  1.00  0.00     0.050 C 
HETATM   22  C   UNL     1      39.304 -13.443  -0.605  1.00  0.00     0.028 A 
HETATM   23  C   UNL     1      39.355 -12.118  -1.005  1.00  0.00     0.117 A 
HETATM   24  N   UNL     1      40.221 -11.223  -0.500  1.00  0.00    -0.271 NA
HETATM   25  C   UNL     1      41.078 -11.672   0.454  1.00  0.00     0.146 A 
ENDBRANCH   3  19
TORSDOF 6
ENDMDL
MODEL 4
REMARK VINA RESULT:      -7.0      5.130      7.786
REMARK  6 active torsions:
REMARK  status: ('A' for Active; 'I' for Inactive)
REMARK    1  A    between atoms: C_2  and  C_3 
REMARK    2  A    between atoms: C_3  and  O_4 
REMARK    3  A    between atoms: C_3  and  C_12 
REMARK    4  A    between atoms: O_4  and  C_5 
REMARK    5  A    between atoms: C_12  and  N_13 
REMARK       I    between atoms: N_13  and  C_14 
REMARK       I    between atoms: C_14  and  N_15 
REMARK    6  A    between atoms: N_15  and  C_16 
ROOT
HETATM    1  N   UNL     1      42.043 -15.225   1.103  1.00  0.00    -0.340 N 
HETATM    2  C   UNL     1      40.759 -15.139   0.601  1.00  0.00     0.320 C 
HETATM    3  N   UNL     1      40.685 -14.202  -0.407  1.00  0.00    -0.307 N 
HETATM    4  O   UNL     1      39.837 -15.816   1.031  1.00  0.00    -0.247 OA
HETATM    5  H   UNL     1      42.776 -14.709   0.646  1.00  0.00     0.164 HD
HETATM    6  H   UNL     1      41.545 -13.736  -0.636  1.00  0.00     0.170 HD
ENDROOT
BRANCH   1   7
HETATM    7  C   UNL     1      42.440 -16.310   1.993  1.00  0.00     0.156 C 
BRANCH   7   8
HETATM    8  C   UNL     1      42.409 -15.862   3.473  1.00  0.00     0.146 C 
BRANCH   8   9
HETATM    9  C   UNL     1      41.127 -16.316   4.188  1.00  0.00     0.029 C 
HETATM   10  C   UNL     1      40.945 -15.709   5.569  1.00  0.00     0.007 C 
ENDBRANCH   8   9
BRANCH   8  11
HETATM   11  O   UNL     1      43.530 -16.473   4.127  1.00  0.00    -0.343 OA
BRANCH  11  12
HETATM   12  C   UNL     1      43.685 -17.831   4.137  1.00  0.00     0.091 A 
HETATM   13  C   UNL     1      43.741 -18.444   5.400  1.00  0.00     0.067 A 
HETATM   14 CL   UNL     1      43.669 -17.515   6.858  1.00  0.00    -0.081 Cl
HETATM   15  C   UNL     1      43.874 -19.831   5.520  1.00  0.00     0.026 A 
HETATM   16  C   UNL     1      43.943 -20.625   4.378  1.00  0.00     0.002 A 
HETATM   17  C   UNL     1      43.882 -20.030   3.121  1.00  0.00     0.003 A 
HETATM   18  C   UNL     1      43.754 -18.641   2.999  1.00  0.00     0.038 A 
ENDBRANCH  11  12
ENDBRANCH   8  11
ENDBRANCH   7   8
ENDBRANCH   1   7
BRANCH   3  19
HETATM   19  C   UNL     1      39.551 -13.863  -1.182  1.00  0.00     0.059 A 
HETATM   20  C   UNL     1      38.808 -12.714  -0.845  1.00  0.00    -0.032 A 
HETATM   21  C   UNL     1      39.178 -11.818   0.305  1.00  0.00     0.050 C 
HETATM   22  C   UNL     1      37.688 -12.382  -1.619  1.00  0.00     0.028 A 
HETATM   23  C   UNL     1      37.340 -13.191  -2.687  1.00  0.00     0.117 A 
HETATM   24  N   UNL     1      38.025 -14.294  -3.035  1.00  0.00    -0.271 NA
HETATM   25  C   UNL     1      39.113 -14.603  -2.281  1.00  0.00     0.146 A 
ENDBRANCH   3  19
TORSDOF 6
ENDMDL
MODEL 5
REMARK VINA RESULT:      -7.0      4.208      7.247
REMARK  6 active torsions:
REMARK  status: ('A' for Active; 'I' for Inactive)
REMARK    1  A    between atoms: C_2  and  C_3 
REMARK    2  A    between atoms: C_3  and  O_4 
REMARK    3  A    between atoms: C_3  and  C_12 
REMARK    4  A    between atoms: O_4  and  C_5 
REMARK    5  A    between atoms: C_12  and  N_13 
REMARK       I    between atoms: N_13  and  C_14 
REMARK       I    between atoms: C_14  and  N_15 
REMARK    6  A    between atoms: N_15  and  C_16 
ROOT
HETATM    1  N   UNL     1      41.805 -13.302   2.488  1.00  0.00    -0.340 N 
HETATM    2  C   UNL     1      40.740 -13.349   1.610  1.00  0.00     0.320 C 
HETATM    3  N   UNL     1      41.178 -13.500   0.312  1.00  0.00    -0.307 N 
HETATM    4  O   UNL     1      39.579 -13.256   1.977  1.00  0.00    -0.247 OA
HETATM    5  H   UNL     1      42.731 -13.477   2.136  1.00  0.00     0.164 HD
HETATM    6  H   UNL     1      42.173 -13.563   0.190  1.00  0.00     0.170 HD
ENDROOT
BRANCH   1   7
HETATM    7  C   UNL     1      41.606 -13.402   3.930  1.00  0.00     0.156 C 
BRANCH   7   8
HETATM    8  C   UNL     1      42.037 -14.788   4.462  1.00  0.00     0.146 C 
BRANCH   8   9
HETATM    9  C   UNL     1      40.892 -15.811   4.405  1.00  0.00     0.029 C 
HETATM   10  C   UNL     1      40.428 -16.290   5.770  1.00  0.00     0.007 C 
ENDBRANCH   8   9
BRANCH   8  11
HETATM   11  O   UNL     1      43.101 -15.255   3.621  1.00  0.00    -0.343 OA
BRANCH  11  12
HETATM   12  C   UNL     1      43.320 -16.592   3.438  1.00  0.00     0.091 A 
HETATM   13  C   UNL     1      43.974 -17.267   4.483  1.00  0.00     0.067 A 
HETATM   14 CL   UNL     1      44.516 -16.430   5.898  1.00  0.00    -0.081 Cl
HETATM   15  C   UNL     1      44.224 -18.640   4.406  1.00  0.00     0.026 A 
HETATM   16  C   UNL     1      43.815 -19.359   3.286  1.00  0.00     0.002 A 
HETATM   17  C   UNL     1      43.160 -18.704   2.247  1.00  0.00     0.003 A 
HETATM   18  C   UNL     1      42.913 -17.328   2.320  1.00  0.00     0.038 A 
ENDBRANCH  11  12
ENDBRANCH   8  11
ENDBRANCH   7   8
ENDBRANCH   1   7
BRANCH   3  19
HETATM   19  C   UNL     1      40.385 -13.625  -0.852  1.00  0.00     0.059 A 
HETATM   20  C   UNL     1      40.421 -12.601  -1.821  1.00  0.00    -0.032 A 
HETATM   21  C   UNL     1      41.281 -11.376  -1.674  1.00  0.00     0.050 C 
HETATM   22  C   UNL     1      39.634 -12.732  -2.973  1.00  0.00     0.028 A 
HETATM   23  C   UNL     1      38.843 -13.858  -3.127  1.00  0.00     0.117 A 
HETATM   24  N   UNL     1      38.784 -14.852  -2.224  1.00  0.00    -0.271 NA
HETATM   25  C   UNL     1      39.556 -14.717  -1.113  1.00  0.00     0.146 A 
ENDBRANCH   3  19
TORSDOF 6
ENDMDL
MODEL 6
REMARK VINA RESULT:      -7.0      2.635      7.083
REMARK  6 active torsions:
REMARK  status: ('A' for Active; 'I' for Inactive)
REMARK    1  A    between atoms: C_2  and  C_3 
REMARK    2  A    between atoms: C_3  and  O_4 
REMARK    3  A    between atoms: C_3  and  C_12 
REMARK    4  A    between atoms: O_4  and  C_5 
REMARK    5  A    between atoms: C_12  and  N_13 
REMARK       I    between atoms: N_13  and  C_14 
REMARK       I    between atoms: C_14  and  N_15 
REMARK    6  A    between atoms: N_15  and  C_16 
ROOT
HETATM    1  N   UNL     1      43.584 -15.193   5.869  1.00  0.00    -0.340 N 
HETATM    2  C   UNL     1      43.081 -16.378   5.372  1.00  0.00     0.320 C 
HETATM    3  N   UNL     1      44.070 -17.115   4.756  1.00  0.00    -0.307 N 
HETATM    4  O   UNL     1      41.904 -16.691   5.476  1.00  0.00    -0.247 OA
HETATM    5  H   UNL     1      44.577 -15.035   5.833  1.00  0.00     0.164 HD
HETATM    6  H   UNL     1      44.989 -16.707   4.764  1.00  0.00     0.170 HD
ENDROOT
BRANCH   1   7
HETATM    7  C   UNL     1      42.805 -14.358   6.777  1.00  0.00     0.156 C 
BRANCH   7   8
HETATM    8  C   UNL     1      43.009 -12.856   6.474  1.00  0.00     0.146 C 
BRANCH   8   9
HETATM    9  C   UNL     1      44.364 -12.341   6.983  1.00  0.00     0.029 C 
HETATM   10  C   UNL     1      45.063 -11.395   6.021  1.00  0.00     0.007 C 
ENDBRANCH   8   9
BRANCH   8  11
HETATM   11  O   UNL     1      42.974 -12.701   5.048  1.00  0.00    -0.343 OA
BRANCH  11  12
HETATM   12  C   UNL     1      41.795 -12.775   4.360  1.00  0.00     0.091 A 
HETATM   13  C   UNL     1      41.852 -13.358   3.082  1.00  0.00     0.067 A 
HETATM   14 CL   UNL     1      43.349 -13.902   2.405  1.00  0.00    -0.081 Cl
HETATM   15  C   UNL     1      40.698 -13.502   2.307  1.00  0.00     0.026 A 
HETATM   16  C   UNL     1      39.469 -13.074   2.802  1.00  0.00     0.002 A 
HETATM   17  C   UNL     1      39.398 -12.501   4.069  1.00  0.00     0.003 A 
HETATM   18  C   UNL     1      40.553 -12.351   4.845  1.00  0.00     0.038 A 
ENDBRANCH  11  12
ENDBRANCH   8  11
ENDBRANCH   7   8
ENDBRANCH   1   7
BRANCH   3  19
HETATM   19  C   UNL     1      43.947 -18.393   4.165  1.00  0.00     0.059 A 
HETATM   20  C   UNL     1      43.511 -18.492   2.828  1.00  0.00    -0.032 A 
HETATM   21  C   UNL     1      43.179 -17.286   1.993  1.00  0.00     0.050 C 
HETATM   22  C   UNL     1      43.393 -19.762   2.247  1.00  0.00     0.028 A 
HETATM   23  C   UNL     1      43.704 -20.881   3.000  1.00  0.00     0.117 A 
HETATM   24  N   UNL     1      44.122 -20.823   4.277  1.00  0.00    -0.271 NA
HETATM   25  C   UNL     1      44.237 -19.587   4.828  1.00  0.00     0.146 A 
ENDBRANCH   3  19
TORSDOF 6
ENDMDL
MODEL 7
REMARK VINA RESULT:      -6.9      1.475      1.944
REMARK  6 active torsions:
REMARK  status: ('A' for Active; 'I' for Inactive)
REMARK    1  A    between atoms: C_2  and  C_3 
REMARK    2  A    between atoms: C_3  and  O_4 
REMARK    3  A    between atoms: C_3  and  C_12 
REMARK    4  A    between atoms: O_4  and  C_5 
REMARK    5  A    between atoms: C_12  and  N_13 
REMARK       I    between atoms: N_13  and  C_14 
REMARK       I    between atoms: C_14  and  N_15 
REMARK    6  A    between atoms: N_15  and  C_16 
ROOT
HETATM    1  N   UNL     1      41.701 -12.995   5.859  1.00  0.00    -0.340 N 
HETATM    2  C   UNL     1      42.338 -11.831   6.241  1.00  0.00     0.320 C 
HETATM    3  N   UNL     1      43.255 -12.076   7.241  1.00  0.00    -0.307 N 
HETATM    4  O   UNL     1      42.085 -10.745   5.740  1.00  0.00    -0.247 OA
HETATM    5  H   UNL     1      42.018 -13.869   6.243  1.00  0.00     0.164 HD
HETATM    6  H   UNL     1      43.337 -13.034   7.534  1.00  0.00     0.170 HD
ENDROOT
BRANCH   1   7
HETATM    7  C   UNL     1      40.876 -13.050   4.656  1.00  0.00     0.156 C 
BRANCH   7   8
HETATM    8  C   UNL     1      40.939 -14.447   3.996  1.00  0.00     0.146 C 
BRANCH   8   9
HETATM    9  C   UNL     1      40.185 -14.489   2.658  1.00  0.00     0.029 C 
HETATM   10  C   UNL     1      39.814 -15.891   2.206  1.00  0.00     0.007 C 
ENDBRANCH   8   9
BRANCH   8  11
HETATM   11  O   UNL     1      42.322 -14.736   3.743  1.00  0.00    -0.343 OA
BRANCH  11  12
HETATM   12  C   UNL     1      42.843 -15.971   4.012  1.00  0.00     0.091 A 
HETATM   13  C   UNL     1      43.324 -16.699   2.910  1.00  0.00     0.067 A 
HETATM   14 CL   UNL     1      43.210 -16.079   1.299  1.00  0.00    -0.081 Cl
HETATM   15  C   UNL     1      43.898 -17.963   3.080  1.00  0.00     0.026 A 
HETATM   16  C   UNL     1      44.007 -18.512   4.356  1.00  0.00     0.002 A 
HETATM   17  C   UNL     1      43.540 -17.797   5.456  1.00  0.00     0.003 A 
HETATM   18  C   UNL     1      42.961 -16.534   5.287  1.00  0.00     0.038 A 
ENDBRANCH  11  12
ENDBRANCH   8  11
ENDBRANCH   7   8
ENDBRANCH   1   7
BRANCH   3  19
HETATM   19  C   UNL     1      44.121 -11.144   7.859  1.00  0.00     0.059 A 
HETATM   20  C   UNL     1      45.381 -10.890   7.281  1.00  0.00    -0.032 A 
HETATM   21  C   UNL     1      45.844 -11.565   6.019  1.00  0.00     0.050 C 
HETATM   22  C   UNL     1      46.233  -9.964   7.897  1.00  0.00     0.028 A 
HETATM   23  C   UNL     1      45.817  -9.328   9.054  1.00  0.00     0.117 A 
HETATM   24  N   UNL     1      44.624  -9.548   9.632  1.00  0.00    -0.271 NA
HETATM   25  C   UNL     1      43.803 -10.443   9.023  1.00  0.00     0.146 A 
ENDBRANCH   3  19
TORSDOF 6
ENDMDL
MODEL 8
REMARK VINA RESULT:      -6.8      4.137      7.327
REMARK  6 active torsions:
REMARK  status: ('A' for Active; 'I' for Inactive)
REMARK    1  A    between atoms: C_2  and  C_3 
REMARK    2  A    between atoms: C_3  and  O_4 
REMARK    3  A    between atoms: C_3  and  C_12 
REMARK    4  A    between atoms: O_4  and  C_5 
REMARK    5  A    between atoms: C_12  and  N_13 
REMARK       I    between atoms: N_13  and  C_14 
REMARK       I    between atoms: C_14  and  N_15 
REMARK    6  A    between atoms: N_15  and  C_16 
ROOT
HETATM    1  N   UNL     1      41.764 -13.098   2.510  1.00  0.00    -0.340 N 
HETATM    2  C   UNL     1      40.717 -13.078   1.609  1.00  0.00     0.320 C 
HETATM    3  N   UNL     1      41.159 -13.351   0.333  1.00  0.00    -0.307 N 
HETATM    4  O   UNL     1      39.566 -12.836   1.941  1.00  0.00    -0.247 OA
HETATM    5  H   UNL     1      42.671 -13.393   2.191  1.00  0.00     0.164 HD
HETATM    6  H   UNL     1      42.144 -13.530   0.239  1.00  0.00     0.170 HD
ENDROOT
BRANCH   1   7
HETATM    7  C   UNL     1      41.528 -13.091   3.950  1.00  0.00     0.156 C 
BRANCH   7   8
HETATM    8  C   UNL     1      42.439 -14.110   4.672  1.00  0.00     0.146 C 
BRANCH   8   9
HETATM    9  C   UNL     1      42.570 -13.807   6.172  1.00  0.00     0.029 C 
HETATM   10  C   UNL     1      43.958 -13.350   6.589  1.00  0.00     0.007 C 
ENDBRANCH   8   9
BRANCH   8  11
HETATM   11  O   UNL     1      41.833 -15.402   4.524  1.00  0.00    -0.343 OA
BRANCH  11  12
HETATM   12  C   UNL     1      42.570 -16.485   4.129  1.00  0.00     0.091 A 
HETATM   13  C   UNL     1      42.226 -17.056   2.892  1.00  0.00     0.067 A 
HETATM   14 CL   UNL     1      40.907 -16.448   1.952  1.00  0.00    -0.081 Cl
HETATM   15  C   UNL     1      42.933 -18.151   2.386  1.00  0.00     0.026 A 
HETATM   16  C   UNL     1      43.999 -18.684   3.107  1.00  0.00     0.002 A 
HETATM   17  C   UNL     1      44.353 -18.123   4.330  1.00  0.00     0.003 A 
HETATM   18  C   UNL     1      43.644 -17.029   4.841  1.00  0.00     0.038 A 
ENDBRANCH  11  12
ENDBRANCH   8  11
ENDBRANCH   7   8
ENDBRANCH   1   7
BRANCH   3  19
HETATM   19  C   UNL     1      40.379 -13.455  -0.842  1.00  0.00     0.059 A 
HETATM   20  C   UNL     1      40.418 -12.410  -1.787  1.00  0.00    -0.032 A 
HETATM   21  C   UNL     1      41.269 -11.183  -1.604  1.00  0.00     0.050 C 
HETATM   22  C   UNL     1      39.644 -12.520  -2.951  1.00  0.00     0.028 A 
HETATM   23  C   UNL     1      38.863 -13.647  -3.137  1.00  0.00     0.117 A 
HETATM   24  N   UNL     1      38.801 -14.661  -2.257  1.00  0.00    -0.271 NA
HETATM   25  C   UNL     1      39.560 -14.546  -1.136  1.00  0.00     0.146 A 
ENDBRANCH   3  19
TORSDOF 6
ENDMDL
MODEL 9
REMARK VINA RESULT:      -6.7      4.527      7.300
REMARK  6 active torsions:
REMARK  status: ('A' for Active; 'I' for Inactive)
REMARK    1  A    between atoms: C_2  and  C_3 
REMARK    2  A    between atoms: C_3  and  O_4 
REMARK    3  A    between atoms: C_3  and  C_12 
REMARK    4  A    between atoms: O_4  and  C_5 
REMARK    5  A    between atoms: C_12  and  N_13 
REMARK       I    between atoms: N_13  and  C_14 
REMARK       I    between atoms: C_14  and  N_15 
REMARK    6  A    between atoms: N_15  and  C_16 
ROOT
HETATM    1  N   UNL     1      42.351 -14.369   1.126  1.00  0.00    -0.340 N 
HETATM    2  C   UNL     1      41.070 -14.275   0.621  1.00  0.00     0.320 C 
HETATM    3  N   UNL     1      40.831 -13.015   0.114  1.00  0.00    -0.307 N 
HETATM    4  O   UNL     1      40.280 -15.207   0.649  1.00  0.00    -0.247 OA
HETATM    5  H   UNL     1      42.983 -13.597   0.991  1.00  0.00     0.164 HD
HETATM    6  H   UNL     1      41.597 -12.368   0.171  1.00  0.00     0.170 HD
ENDROOT
BRANCH   1   7
HETATM    7  C   UNL     1      42.934 -15.657   1.487  1.00  0.00     0.156 C 
BRANCH   7   8
HETATM    8  C   UNL     1      43.302 -15.707   2.988  1.00  0.00     0.146 C 
BRANCH   8   9
HETATM    9  C   UNL     1      42.883 -14.428   3.729  1.00  0.00     0.029 C 
HETATM   10  C   UNL     1      42.314 -14.680   5.115  1.00  0.00     0.007 C 
ENDBRANCH   8   9
BRANCH   8  11
HETATM   11  O   UNL     1      42.594 -16.815   3.563  1.00  0.00    -0.343 OA
BRANCH  11  12
HETATM   12  C   UNL     1      43.048 -18.096   3.412  1.00  0.00     0.091 A 
HETATM   13  C   UNL     1      43.730 -18.650   4.509  1.00  0.00     0.067 A 
HETATM   14 CL   UNL     1      44.020 -17.734   5.948  1.00  0.00    -0.081 Cl
HETATM   15  C   UNL     1      44.215 -19.961   4.465  1.00  0.00     0.026 A 
HETATM   16  C   UNL     1      44.015 -20.738   3.327  1.00  0.00     0.002 A 
HETATM   17  C   UNL     1      43.335 -20.203   2.237  1.00  0.00     0.003 A 
HETATM   18  C   UNL     1      42.854 -18.889   2.277  1.00  0.00     0.038 A 
ENDBRANCH  11  12
ENDBRANCH   8  11
ENDBRANCH   7   8
ENDBRANCH   1   7
BRANCH   3  19
HETATM   19  C   UNL     1      39.652 -12.553  -0.516  1.00  0.00     0.059 A 
HETATM   20  C   UNL     1      39.477 -12.783  -1.896  1.00  0.00    -0.032 A 
HETATM   21  C   UNL     1      40.492 -13.514  -2.731  1.00  0.00     0.050 C 
HETATM   22  C   UNL     1      38.305 -12.325  -2.514  1.00  0.00     0.028 A 
HETATM   23  C   UNL     1      37.357 -11.659  -1.756  1.00  0.00     0.117 A 
HETATM   24  N   UNL     1      37.493 -11.422  -0.440  1.00  0.00    -0.271 NA
HETATM   25  C   UNL     1      38.630 -11.876   0.150  1.00  0.00     0.146 A 
ENDBRANCH   3  19
TORSDOF 6
ENDMDL
MODEL 10
REMARK VINA RESULT:      -6.6      4.901      7.561
REMARK  6 active torsions:
REMARK  status: ('A' for Active; 'I' for Inactive)
REMARK    1  A    between atoms: C_2  and  C_3 
REMARK    2  A    between atoms: C_3  and  O_4 
REMARK    3  A    between atoms: C_3  and  C_12 
REMARK    4  A    between atoms: O_4  and  C_5 
REMARK    5  A    between atoms: C_12  and  N_13 
REMARK       I    between atoms: N_13  and  C_14 
REMARK       I    between atoms: C_14  and  N_15 
REMARK    6  A    between atoms: N_15  and  C_16 
ROOT
HETATM    1  N   UNL     1      42.073 -13.601   3.338  1.00  0.00    -0.340 N 
HETATM    2  C   UNL     1      42.780 -14.695   2.879  1.00  0.00     0.320 C 
HETATM    3  N   UNL     1      42.482 -15.820   3.616  1.00  0.00    -0.307 N 
HETATM    4  O   UNL     1      43.565 -14.627   1.944  1.00  0.00    -0.247 OA
HETATM    5  H   UNL     1      41.375 -13.741   4.049  1.00  0.00     0.164 HD
HETATM    6  H   UNL     1      41.808 -15.697   4.351  1.00  0.00     0.170 HD
ENDROOT
BRANCH   1   7
HETATM    7  C   UNL     1      42.017 -12.358   2.577  1.00  0.00     0.156 C 
BRANCH   7   8
HETATM    8  C   UNL     1      40.808 -12.343   1.614  1.00  0.00     0.146 C 
BRANCH   8   9
HETATM    9  C   UNL     1      40.042 -11.013   1.667  1.00  0.00     0.029 C 
HETATM   10  C   UNL     1      40.908  -9.794   1.397  1.00  0.00     0.007 C 
ENDBRANCH   8   9
BRANCH   8  11
HETATM   11  O   UNL     1      41.320 -12.516   0.284  1.00  0.00    -0.343 OA
BRANCH  11  12
HETATM   12  C   UNL     1      40.551 -13.073  -0.700  1.00  0.00     0.091 A 
HETATM   13  C   UNL     1      40.470 -12.360  -1.908  1.00  0.00     0.067 A 
HETATM   14 CL   UNL     1      41.263 -10.835  -2.111  1.00  0.00    -0.081 Cl
HETATM   15  C   UNL     1      39.729 -12.855  -2.985  1.00  0.00     0.026 A 
HETATM   16  C   UNL     1      39.065 -14.074  -2.872  1.00  0.00     0.002 A 
HETATM   17  C   UNL     1      39.143 -14.793  -1.682  1.00  0.00     0.003 A 
HETATM   18  C   UNL     1      39.881 -14.296  -0.600  1.00  0.00     0.038 A 
ENDBRANCH  11  12
ENDBRANCH   8  11
ENDBRANCH   7   8
ENDBRANCH   1   7
BRANCH   3  19
HETATM   19  C   UNL     1      42.978 -17.131   3.421  1.00  0.00     0.059 A 
HETATM   20  C   UNL     1      43.877 -17.672   4.362  1.00  0.00    -0.032 A 
HETATM   21  C   UNL     1      44.328 -16.914   5.581  1.00  0.00     0.050 C 
HETATM   22  C   UNL     1      44.363 -18.972   4.164  1.00  0.00     0.028 A 
HETATM   23  C   UNL     1      43.950 -19.685   3.052  1.00  0.00     0.117 A 
HETATM   24  N   UNL     1      43.095 -19.200   2.135  1.00  0.00    -0.271 NA
HETATM   25  C   UNL     1      42.627 -17.941   2.340  1.00  0.00     0.146 A 
ENDBRANCH   3  19
TORSDOF 6
ENDMDL
