MODEL 1
REMARK VINA RESULT:      -8.7      0.000      0.000
REMARK  3 active torsions:
REMARK  status: ('A' for Active; 'I' for Inactive)
REMARK    1  A    between atoms: O_2  and  C_3 
REMARK    2  A    between atoms: C_5  and  N_15 
REMARK    3  A    between atoms: C_8  and  C_9 
ROOT
HETATM    1  C   UNL     1      38.671 -12.013  -0.100  1.00  0.00     0.177 A 
HETATM    2  N   UNL     1      39.564 -12.525   0.778  1.00  0.00    -0.206 NA
HETATM    3  C   UNL     1      40.174 -13.690   0.512  1.00  0.00     0.135 A 
HETATM    4  C   UNL     1      39.887 -14.383  -0.659  1.00  0.00     0.052 A 
HETATM    5  C   UNL     1      38.972 -13.848  -1.571  1.00  0.00     0.020 A 
HETATM    6  C   UNL     1      38.340 -12.629  -1.308  1.00  0.00     0.030 A 
ENDROOT
BRANCH   3   7
HETATM    7  N   UNL     1      41.101 -14.188   1.453  1.00  0.00    -0.302 N 
HETATM    8  C   UNL     1      42.465 -13.740   1.557  1.00  0.00     0.135 C 
HETATM    9  C   UNL     1      42.926 -14.282   2.899  1.00  0.00     0.040 C 
HETATM   10  C   UNL     1      42.131 -15.584   3.050  1.00  0.00     0.051 C 
HETATM   11  C   UNL     1      42.787 -16.773   2.299  1.00  0.00     0.058 C 
HETATM   12  C   UNL     1      41.925 -16.004   4.519  1.00  0.00     0.058 C 
HETATM   13  C   UNL     1      40.825 -15.229   2.353  1.00  0.00     0.234 C 
HETATM   14  C   UNL     1      43.273 -17.642   3.413  1.00  0.00    -0.051 A 
HETATM   15  C   UNL     1      44.056 -18.782   3.309  1.00  0.00     0.007 A 
HETATM   16  C   UNL     1      42.793 -17.215   4.650  1.00  0.00    -0.051 A 
HETATM   17  C   UNL     1      44.358 -19.493   4.474  1.00  0.00     0.001 A 
HETATM   18  C   UNL     1      43.874 -19.062   5.717  1.00  0.00     0.001 A 
HETATM   19  C   UNL     1      43.083 -17.916   5.811  1.00  0.00     0.007 A 
HETATM   20  O   UNL     1      39.777 -15.827   2.546  1.00  0.00    -0.272 OA
ENDBRANCH   3   7
BRANCH   1  21
HETATM   21  O   UNL     1      38.077 -10.806   0.216  1.00  0.00    -0.339 OA
HETATM   22  C   UNL     1      37.079 -10.917   1.230  1.00  0.00     0.211 C 
ENDBRANCH   1  21
BRANCH   6  23
HETATM   23  C   UNL     1      37.384 -12.069  -2.252  1.00  0.00     0.015 A 
HETATM   24  C   UNL     1      37.180 -10.741  -2.697  1.00  0.00     0.152 A 
HETATM   25  N   UNL     1      36.185 -10.636  -3.583  1.00  0.00    -0.187 NA
HETATM   26  N   UNL     1      35.761 -11.900  -3.728  1.00  0.00    -0.289 N 
HETATM   27  H   UNL     1      35.004 -12.080  -4.380  1.00  0.00     0.188 HD
HETATM   28  C   UNL     1      36.437 -12.794  -2.949  1.00  0.00     0.123 A 
ENDBRANCH   6  23
TORSDOF 3
ENDMDL
MODEL 2
REMARK VINA RESULT:      -8.7      5.520      7.529
REMARK  3 active torsions:
REMARK  status: ('A' for Active; 'I' for Inactive)
REMARK    1  A    between atoms: O_2  and  C_3 
REMARK    2  A    between atoms: C_5  and  N_15 
REMARK    3  A    between atoms: C_8  and  C_9 
ROOT
HETATM    1  C   UNL     1      43.186 -11.009   6.826  1.00  0.00     0.177 A 
HETATM    2  N   UNL     1      43.005 -12.277   6.390  1.00  0.00    -0.206 NA
HETATM    3  C   UNL     1      41.794 -12.676   5.972  1.00  0.00     0.135 A 
HETATM    4  C   UNL     1      40.717 -11.797   5.995  1.00  0.00     0.052 A 
HETATM    5  C   UNL     1      40.907 -10.483   6.437  1.00  0.00     0.020 A 
HETATM    6  C   UNL     1      42.168 -10.055   6.863  1.00  0.00     0.030 A 
ENDROOT
BRANCH   3   7
HETATM    7  N   UNL     1      41.647 -14.006   5.521  1.00  0.00    -0.302 N 
HETATM    8  C   UNL     1      40.808 -14.985   6.159  1.00  0.00     0.135 C 
HETATM    9  C   UNL     1      40.703 -16.100   5.132  1.00  0.00     0.040 C 
HETATM   10  C   UNL     1      42.050 -16.043   4.403  1.00  0.00     0.051 C 
HETATM   11  C   UNL     1      43.171 -16.797   5.166  1.00  0.00     0.058 C 
HETATM   12  C   UNL     1      41.990 -16.603   2.968  1.00  0.00     0.058 C 
HETATM   13  C   UNL     1      42.355 -14.551   4.438  1.00  0.00     0.234 C 
HETATM   14  C   UNL     1      43.428 -17.982   4.292  1.00  0.00    -0.051 A 
HETATM   15  C   UNL     1      44.250 -19.065   4.566  1.00  0.00     0.007 A 
HETATM   16  C   UNL     1      42.771 -17.874   3.068  1.00  0.00    -0.051 A 
HETATM   17  C   UNL     1      44.402 -20.051   3.588  1.00  0.00     0.001 A 
HETATM   18  C   UNL     1      43.741 -19.941   2.356  1.00  0.00     0.001 A 
HETATM   19  C   UNL     1      42.920 -18.845   2.089  1.00  0.00     0.007 A 
HETATM   20  O   UNL     1      43.134 -14.007   3.671  1.00  0.00    -0.272 OA
ENDBRANCH   3   7
BRANCH   1  21
HETATM   21  O   UNL     1      44.454 -10.645   7.237  1.00  0.00    -0.339 OA
HETATM   22  C   UNL     1      45.491 -11.222   6.445  1.00  0.00     0.211 C 
ENDBRANCH   1  21
BRANCH   6  23
HETATM   23  C   UNL     1      42.371  -8.691   7.327  1.00  0.00     0.015 A 
HETATM   24  C   UNL     1      42.060  -7.445   6.731  1.00  0.00     0.152 A 
HETATM   25  N   UNL     1      42.412  -6.403   7.490  1.00  0.00    -0.187 NA
HETATM   26  N   UNL     1      42.930  -6.975   8.586  1.00  0.00    -0.289 N 
HETATM   27  H   UNL     1      43.259  -6.370   9.332  1.00  0.00     0.188 HD
HETATM   28  C   UNL     1      42.939  -8.339   8.537  1.00  0.00     0.123 A 
ENDBRANCH   6  23
TORSDOF 3
ENDMDL
MODEL 3
REMARK VINA RESULT:      -8.7      2.908      3.856
REMARK  3 active torsions:
REMARK  status: ('A' for Active; 'I' for Inactive)
REMARK    1  A    between atoms: O_2  and  C_3 
REMARK    2  A    between atoms: C_5  and  N_15 
REMARK    3  A    between atoms: C_8  and  C_9 
ROOT
HETATM    1  C   UNL     1      41.008 -11.387  -0.887  1.00  0.00     0.177 A 
HETATM    2  N   UNL     1      41.044 -12.629  -0.349  1.00  0.00    -0.206 NA
HETATM    3  C   UNL     1      41.353 -12.789   0.947  1.00  0.00     0.135 A 
HETATM    4  C   UNL     1      41.647 -11.686   1.742  1.00  0.00     0.052 A 
HETATM    5  C   UNL     1      41.600 -10.403   1.186  1.00  0.00     0.020 A 
HETATM    6  C   UNL     1      41.268 -10.225  -0.160  1.00  0.00     0.030 A 
ENDROOT
BRANCH   3   7
HETATM    7  N   UNL     1      41.377 -14.099   1.471  1.00  0.00    -0.302 N 
HETATM    8  C   UNL     1      40.199 -14.850   1.820  1.00  0.00     0.135 C 
HETATM    9  C   UNL     1      40.707 -16.273   1.980  1.00  0.00     0.040 C 
HETATM   10  C   UNL     1      42.142 -16.085   2.487  1.00  0.00     0.051 C 
HETATM   11  C   UNL     1      42.204 -15.849   4.019  1.00  0.00     0.058 C 
HETATM   12  C   UNL     1      43.067 -17.272   2.149  1.00  0.00     0.058 C 
HETATM   13  C   UNL     1      42.553 -14.801   1.779  1.00  0.00     0.234 C 
HETATM   14  C   UNL     1      42.828 -17.110   4.525  1.00  0.00    -0.051 A 
HETATM   15  C   UNL     1      43.000 -17.490   5.847  1.00  0.00     0.007 A 
HETATM   16  C   UNL     1      43.309 -17.902   3.484  1.00  0.00    -0.051 A 
HETATM   17  C   UNL     1      43.663 -18.691   6.114  1.00  0.00     0.001 A 
HETATM   18  C   UNL     1      44.146 -19.487   5.066  1.00  0.00     0.001 A 
HETATM   19  C   UNL     1      43.972 -19.092   3.739  1.00  0.00     0.007 A 
HETATM   20  O   UNL     1      43.716 -14.476   1.601  1.00  0.00    -0.272 OA
ENDBRANCH   3   7
BRANCH   1  21
HETATM   21  O   UNL     1      40.677 -11.276  -2.224  1.00  0.00    -0.339 OA
HETATM   22  C   UNL     1      41.003 -12.437  -2.986  1.00  0.00     0.211 C 
ENDBRANCH   1  21
BRANCH   6  23
HETATM   23  C   UNL     1      41.220  -8.893  -0.744  1.00  0.00     0.015 A 
HETATM   24  C   UNL     1      40.146  -7.988  -0.919  1.00  0.00     0.152 A 
HETATM   25  N   UNL     1      40.517  -6.847  -1.506  1.00  0.00    -0.187 NA
HETATM   26  N   UNL     1      41.836  -7.004  -1.691  1.00  0.00    -0.289 N 
HETATM   27  H   UNL     1      42.355  -6.243  -2.116  1.00  0.00     0.188 HD
HETATM   28  C   UNL     1      42.305  -8.212  -1.261  1.00  0.00     0.123 A 
ENDBRANCH   6  23
TORSDOF 3
ENDMDL
MODEL 4
REMARK VINA RESULT:      -8.7      1.129      1.898
REMARK  3 active torsions:
REMARK  status: ('A' for Active; 'I' for Inactive)
REMARK    1  A    between atoms: O_2  and  C_3 
REMARK    2  A    between atoms: C_5  and  N_15 
REMARK    3  A    between atoms: C_8  and  C_9 
ROOT
HETATM    1  C   UNL     1      39.281 -13.472  -1.636  1.00  0.00     0.177 A 
HETATM    2  N   UNL     1      40.166 -13.968  -0.740  1.00  0.00    -0.206 NA
HETATM    3  C   UNL     1      40.207 -13.472   0.506  1.00  0.00     0.135 A 
HETATM    4  C   UNL     1      39.353 -12.440   0.882  1.00  0.00     0.052 A 
HETATM    5  C   UNL     1      38.433 -11.936  -0.043  1.00  0.00     0.020 A 
HETATM    6  C   UNL     1      38.374 -12.454  -1.339  1.00  0.00     0.030 A 
ENDROOT
BRANCH   3   7
HETATM    7  N   UNL     1      41.142 -14.019   1.412  1.00  0.00    -0.302 N 
HETATM    8  C   UNL     1      42.509 -13.582   1.522  1.00  0.00     0.135 C 
HETATM    9  C   UNL     1      42.982 -14.189   2.832  1.00  0.00     0.040 C 
HETATM   10  C   UNL     1      42.182 -15.493   2.931  1.00  0.00     0.051 C 
HETATM   11  C   UNL     1      42.824 -16.647   2.118  1.00  0.00     0.058 C 
HETATM   12  C   UNL     1      41.990 -15.980   4.381  1.00  0.00     0.058 C 
HETATM   13  C   UNL     1      40.870 -15.099   2.266  1.00  0.00     0.234 C 
HETATM   14  C   UNL     1      43.318 -17.571   3.185  1.00  0.00    -0.051 A 
HETATM   15  C   UNL     1      44.093 -18.708   3.019  1.00  0.00     0.007 A 
HETATM   16  C   UNL     1      42.853 -17.199   4.445  1.00  0.00    -0.051 A 
HETATM   17  C   UNL     1      44.404 -19.474   4.145  1.00  0.00     0.001 A 
HETATM   18  C   UNL     1      43.936 -19.100   5.413  1.00  0.00     0.001 A 
HETATM   19  C   UNL     1      43.152 -17.956   5.568  1.00  0.00     0.007 A 
HETATM   20  O   UNL     1      39.822 -15.700   2.442  1.00  0.00    -0.272 OA
ENDBRANCH   3   7
BRANCH   1  21
HETATM   21  O   UNL     1      39.272 -14.024  -2.903  1.00  0.00    -0.339 OA
HETATM   22  C   UNL     1      38.699 -15.329  -2.946  1.00  0.00     0.211 C 
ENDBRANCH   1  21
BRANCH   6  23
HETATM   23  C   UNL     1      37.421 -11.931  -2.307  1.00  0.00     0.015 A 
HETATM   24  C   UNL     1      36.254 -12.500  -2.870  1.00  0.00     0.152 A 
HETATM   25  N   UNL     1      35.643 -11.685  -3.735  1.00  0.00    -0.187 NA
HETATM   26  N   UNL     1      36.402 -10.580  -3.714  1.00  0.00    -0.289 N 
HETATM   27  H   UNL     1      36.121  -9.794  -4.292  1.00  0.00     0.188 HD
HETATM   28  C   UNL     1      37.481 -10.677  -2.884  1.00  0.00     0.123 A 
ENDBRANCH   6  23
TORSDOF 3
ENDMDL
MODEL 5
REMARK VINA RESULT:      -8.6      7.113      9.239
REMARK  3 active torsions:
REMARK  status: ('A' for Active; 'I' for Inactive)
REMARK    1  A    between atoms: O_2  and  C_3 
REMARK    2  A    between atoms: C_5  and  N_15 
REMARK    3  A    between atoms: C_8  and  C_9 
ROOT
HETATM    1  C   UNL     1      43.084 -11.749   3.804  1.00  0.00     0.177 A 
HETATM    2  N   UNL     1      43.386 -10.929   4.837  1.00  0.00    -0.206 NA
HETATM    3  C   UNL     1      43.541 -11.434   6.071  1.00  0.00     0.135 A 
HETATM    4  C   UNL     1      43.381 -12.797   6.298  1.00  0.00     0.052 A 
HETATM    5  C   UNL     1      43.079 -13.645   5.227  1.00  0.00     0.020 A 
HETATM    6  C   UNL     1      42.927 -13.129   3.937  1.00  0.00     0.030 A 
ENDROOT
BRANCH   3   7
HETATM    7  N   UNL     1      43.859 -10.546   7.121  1.00  0.00    -0.302 N 
HETATM    8  C   UNL     1      45.178 -10.392   7.675  1.00  0.00     0.135 C 
HETATM    9  C   UNL     1      45.086  -9.111   8.487  1.00  0.00     0.040 C 
HETATM   10  C   UNL     1      43.630  -9.097   8.967  1.00  0.00     0.051 C 
HETATM   11  C   UNL     1      43.414  -9.963  10.236  1.00  0.00     0.058 C 
HETATM   12  C   UNL     1      43.100  -7.679   9.262  1.00  0.00     0.058 C 
HETATM   13  C   UNL     1      42.914  -9.758   7.797  1.00  0.00     0.234 C 
HETATM   14  C   UNL     1      43.145  -8.942  11.294  1.00  0.00    -0.051 A 
HETATM   15  C   UNL     1      43.012  -9.160  12.656  1.00  0.00     0.007 A 
HETATM   16  C   UNL     1      42.970  -7.670  10.751  1.00  0.00    -0.051 A 
HETATM   17  C   UNL     1      42.702  -8.073  13.478  1.00  0.00     0.001 A 
HETATM   18  C   UNL     1      42.526  -6.794  12.932  1.00  0.00     0.001 A 
HETATM   19  C   UNL     1      42.657  -6.587  11.558  1.00  0.00     0.007 A 
HETATM   20  O   UNL     1      41.718  -9.632   7.584  1.00  0.00    -0.272 OA
ENDBRANCH   3   7
BRANCH   1  21
HETATM   21  O   UNL     1      42.944 -11.181   2.552  1.00  0.00    -0.339 OA
HETATM   22  C   UNL     1      41.738 -10.434   2.402  1.00  0.00     0.211 C 
ENDBRANCH   1  21
BRANCH   6  23
HETATM   23  C   UNL     1      42.609 -14.006   2.819  1.00  0.00     0.015 A 
HETATM   24  C   UNL     1      41.368 -14.401   2.265  1.00  0.00     0.152 A 
HETATM   25  N   UNL     1      41.502 -15.231   1.227  1.00  0.00    -0.187 NA
HETATM   26  N   UNL     1      42.831 -15.355   1.094  1.00  0.00    -0.289 N 
HETATM   27  H   UNL     1      43.185 -15.937   0.343  1.00  0.00     0.188 HD
HETATM   28  C   UNL     1      43.538 -14.651   2.025  1.00  0.00     0.123 A 
ENDBRANCH   6  23
TORSDOF 3
ENDMDL
MODEL 6
REMARK VINA RESULT:      -8.4      7.618     10.216
REMARK  3 active torsions:
REMARK  status: ('A' for Active; 'I' for Inactive)
REMARK    1  A    between atoms: O_2  and  C_3 
REMARK    2  A    between atoms: C_5  and  N_15 
REMARK    3  A    between atoms: C_8  and  C_9 
ROOT
HETATM    1  C   UNL     1      43.475 -13.731   6.340  1.00  0.00     0.177 A 
HETATM    2  N   UNL     1      43.753 -12.682   7.149  1.00  0.00    -0.206 NA
HETATM    3  C   UNL     1      43.392 -11.442   6.786  1.00  0.00     0.135 A 
HETATM    4  C   UNL     1      42.741 -11.224   5.576  1.00  0.00     0.052 A 
HETATM    5  C   UNL     1      42.445 -12.311   4.746  1.00  0.00     0.020 A 
HETATM    6  C   UNL     1      42.807 -13.608   5.122  1.00  0.00     0.030 A 
ENDROOT
BRANCH   3   7
HETATM    7  N   UNL     1      43.698 -10.375   7.658  1.00  0.00    -0.302 N 
HETATM    8  C   UNL     1      45.035 -10.003   8.040  1.00  0.00     0.135 C 
HETATM    9  C   UNL     1      44.868  -8.629   8.665  1.00  0.00     0.040 C 
HETATM   10  C   UNL     1      43.469  -8.688   9.291  1.00  0.00     0.051 C 
HETATM   11  C   UNL     1      43.472  -9.366  10.686  1.00  0.00     0.058 C 
HETATM   12  C   UNL     1      42.807  -7.303   9.435  1.00  0.00     0.058 C 
HETATM   13  C   UNL     1      42.732  -9.592   8.311  1.00  0.00     0.234 C 
HETATM   14  C   UNL     1      43.182  -8.227  11.610  1.00  0.00    -0.051 A 
HETATM   15  C   UNL     1      43.199  -8.244  12.996  1.00  0.00     0.007 A 
HETATM   16  C   UNL     1      42.812  -7.078  10.913  1.00  0.00    -0.051 A 
HETATM   17  C   UNL     1      42.840  -7.081  13.682  1.00  0.00     0.001 A 
HETATM   18  C   UNL     1      42.467  -5.926  12.980  1.00  0.00     0.001 A 
HETATM   19  C   UNL     1      42.449  -5.921  11.584  1.00  0.00     0.007 A 
HETATM   20  O   UNL     1      41.516  -9.622   8.211  1.00  0.00    -0.272 OA
ENDBRANCH   3   7
BRANCH   1  21
HETATM   21  O   UNL     1      43.860 -14.989   6.764  1.00  0.00    -0.339 OA
HETATM   22  C   UNL     1      43.051 -15.501   7.822  1.00  0.00     0.211 C 
ENDBRANCH   1  21
BRANCH   6  23
HETATM   23  C   UNL     1      42.504 -14.742   4.261  1.00  0.00     0.015 A 
HETATM   24  C   UNL     1      43.199 -15.285   3.154  1.00  0.00     0.152 A 
HETATM   25  N   UNL     1      42.584 -16.346   2.624  1.00  0.00    -0.187 NA
HETATM   26  N   UNL     1      41.503 -16.503   3.402  1.00  0.00    -0.289 N 
HETATM   27  H   UNL     1      40.875 -17.274   3.201  1.00  0.00     0.188 HD
HETATM   28  C   UNL     1      41.403 -15.566   4.389  1.00  0.00     0.123 A 
ENDBRANCH   6  23
TORSDOF 3
ENDMDL
MODEL 7
REMARK VINA RESULT:      -8.3      5.309      6.926
REMARK  3 active torsions:
REMARK  status: ('A' for Active; 'I' for Inactive)
REMARK    1  A    between atoms: O_2  and  C_3 
REMARK    2  A    between atoms: C_5  and  N_15 
REMARK    3  A    between atoms: C_8  and  C_9 
ROOT
HETATM    1  C   UNL     1      40.837 -10.705   6.338  1.00  0.00     0.177 A 
HETATM    2  N   UNL     1      40.735 -12.002   5.965  1.00  0.00    -0.206 NA
HETATM    3  C   UNL     1      41.839 -12.701   5.660  1.00  0.00     0.135 A 
HETATM    4  C   UNL     1      43.091 -12.097   5.713  1.00  0.00     0.052 A 
HETATM    5  C   UNL     1      43.195 -10.759   6.107  1.00  0.00     0.020 A 
HETATM    6  C   UNL     1      42.052 -10.026   6.438  1.00  0.00     0.030 A 
ENDROOT
BRANCH   3   7
HETATM    7  N   UNL     1      41.691 -14.052   5.279  1.00  0.00    -0.302 N 
HETATM    8  C   UNL     1      40.875 -15.004   5.986  1.00  0.00     0.135 C 
HETATM    9  C   UNL     1      40.752 -16.169   5.019  1.00  0.00     0.040 C 
HETATM   10  C   UNL     1      42.080 -16.139   4.253  1.00  0.00     0.051 C 
HETATM   11  C   UNL     1      43.225 -16.848   5.023  1.00  0.00     0.058 C 
HETATM   12  C   UNL     1      41.987 -16.770   2.849  1.00  0.00     0.058 C 
HETATM   13  C   UNL     1      42.374 -14.646   4.207  1.00  0.00     0.234 C 
HETATM   14  C   UNL     1      43.469 -18.074   4.202  1.00  0.00    -0.051 A 
HETATM   15  C   UNL     1      44.305 -19.136   4.507  1.00  0.00     0.007 A 
HETATM   16  C   UNL     1      42.779 -18.030   2.992  1.00  0.00    -0.051 A 
HETATM   17  C   UNL     1      44.439 -20.168   3.575  1.00  0.00     0.001 A 
HETATM   18  C   UNL     1      43.746 -20.124   2.357  1.00  0.00     0.001 A 
HETATM   19  C   UNL     1      42.910 -19.047   2.058  1.00  0.00     0.007 A 
HETATM   20  O   UNL     1      43.130 -14.136   3.394  1.00  0.00    -0.272 OA
ENDBRANCH   3   7
BRANCH   1  21
HETATM   21  O   UNL     1      39.671 -10.033   6.650  1.00  0.00    -0.339 OA
HETATM   22  C   UNL     1      38.672 -10.131   5.636  1.00  0.00     0.211 C 
ENDBRANCH   1  21
BRANCH   6  23
HETATM   23  C   UNL     1      42.154  -8.633   6.847  1.00  0.00     0.015 A 
HETATM   24  C   UNL     1      42.811  -8.027   7.945  1.00  0.00     0.152 A 
HETATM   25  N   UNL     1      42.667  -6.699   7.969  1.00  0.00    -0.187 NA
HETATM   26  N   UNL     1      41.935  -6.443   6.874  1.00  0.00    -0.289 N 
HETATM   27  H   UNL     1      41.706  -5.477   6.666  1.00  0.00     0.188 HD
HETATM   28  C   UNL     1      41.595  -7.564   6.173  1.00  0.00     0.123 A 
ENDBRANCH   6  23
TORSDOF 3
ENDMDL
MODEL 8
REMARK VINA RESULT:      -8.1      5.418      8.869
REMARK  3 active torsions:
REMARK  status: ('A' for Active; 'I' for Inactive)
REMARK    1  A    between atoms: O_2  and  C_3 
REMARK    2  A    between atoms: C_5  and  N_15 
REMARK    3  A    between atoms: C_8  and  C_9 
ROOT
HETATM    1  C   UNL     1      43.616 -17.046   4.743  1.00  0.00     0.177 A 
HETATM    2  N   UNL     1      43.436 -15.729   4.997  1.00  0.00    -0.206 NA
HETATM    3  C   UNL     1      43.133 -14.888   3.996  1.00  0.00     0.135 A 
HETATM    4  C   UNL     1      43.014 -15.360   2.693  1.00  0.00     0.052 A 
HETATM    5  C   UNL     1      43.190 -16.723   2.434  1.00  0.00     0.020 A 
HETATM    6  C   UNL     1      43.494 -17.608   3.472  1.00  0.00     0.030 A 
ENDROOT
BRANCH   3   7
HETATM    7  N   UNL     1      42.951 -13.522   4.302  1.00  0.00    -0.302 N 
HETATM    8  C   UNL     1      43.492 -12.441   3.522  1.00  0.00     0.135 C 
HETATM    9  C   UNL     1      42.743 -11.218   4.022  1.00  0.00     0.040 C 
HETATM   10  C   UNL     1      42.466 -11.545   5.494  1.00  0.00     0.051 C 
HETATM   11  C   UNL     1      43.677 -11.227   6.411  1.00  0.00     0.058 C 
HETATM   12  C   UNL     1      41.234 -10.812   6.059  1.00  0.00     0.058 C 
HETATM   13  C   UNL     1      42.278 -13.055   5.442  1.00  0.00     0.234 C 
HETATM   14  C   UNL     1      43.195 -10.054   7.202  1.00  0.00    -0.051 A 
HETATM   15  C   UNL     1      43.929  -9.279   8.087  1.00  0.00     0.007 A 
HETATM   16  C   UNL     1      41.835  -9.823   7.007  1.00  0.00    -0.051 A 
HETATM   17  C   UNL     1      43.276  -8.255   8.777  1.00  0.00     0.001 A 
HETATM   18  C   UNL     1      41.907  -8.023   8.580  1.00  0.00     0.001 A 
HETATM   19  C   UNL     1      41.176  -8.813   7.691  1.00  0.00     0.007 A 
HETATM   20  O   UNL     1      41.689 -13.688   6.306  1.00  0.00    -0.272 OA
ENDBRANCH   3   7
BRANCH   1  21
HETATM   21  O   UNL     1      43.917 -17.870   5.810  1.00  0.00    -0.339 OA
HETATM   22  C   UNL     1      43.380 -17.410   7.049  1.00  0.00     0.211 C 
ENDBRANCH   1  21
BRANCH   6  23
HETATM   23  C   UNL     1      43.681 -19.027   3.208  1.00  0.00     0.015 A 
HETATM   24  C   UNL     1      43.547 -19.781   2.018  1.00  0.00     0.152 A 
HETATM   25  N   UNL     1      43.812 -21.079   2.192  1.00  0.00    -0.187 NA
HETATM   26  N   UNL     1      44.139 -21.161   3.489  1.00  0.00    -0.289 N 
HETATM   27  H   UNL     1      44.403 -22.068   3.861  1.00  0.00     0.188 HD
HETATM   28  C   UNL     1      44.069 -19.966   4.145  1.00  0.00     0.123 A 
ENDBRANCH   6  23
TORSDOF 3
ENDMDL
MODEL 9
REMARK VINA RESULT:      -8.0      3.993      8.887
REMARK  3 active torsions:
REMARK  status: ('A' for Active; 'I' for Inactive)
REMARK    1  A    between atoms: O_2  and  C_3 
REMARK    2  A    between atoms: C_5  and  N_15 
REMARK    3  A    between atoms: C_8  and  C_9 
ROOT
HETATM    1  C   UNL     1      42.883 -16.930   4.455  1.00  0.00     0.177 A 
HETATM    2  N   UNL     1      42.549 -15.621   4.369  1.00  0.00    -0.206 NA
HETATM    3  C   UNL     1      42.625 -14.985   3.190  1.00  0.00     0.135 A 
HETATM    4  C   UNL     1      43.058 -15.660   2.053  1.00  0.00     0.052 A 
HETATM    5  C   UNL     1      43.393 -17.015   2.141  1.00  0.00     0.020 A 
HETATM    6  C   UNL     1      43.305 -17.689   3.363  1.00  0.00     0.030 A 
ENDROOT
BRANCH   3   7
HETATM    7  N   UNL     1      42.265 -13.621   3.142  1.00  0.00    -0.302 N 
HETATM    8  C   UNL     1      43.198 -12.535   3.288  1.00  0.00     0.135 C 
HETATM    9  C   UNL     1      42.422 -11.319   2.811  1.00  0.00     0.040 C 
HETATM   10  C   UNL     1      40.974 -11.648   3.193  1.00  0.00     0.051 C 
HETATM   11  C   UNL     1      40.661 -11.316   4.677  1.00  0.00     0.058 C 
HETATM   12  C   UNL     1      39.933 -10.927   2.314  1.00  0.00     0.058 C 
HETATM   13  C   UNL     1      40.945 -13.160   3.016  1.00  0.00     0.234 C 
HETATM   14  C   UNL     1      39.735 -10.148   4.567  1.00  0.00    -0.051 A 
HETATM   15  C   UNL     1      39.246  -9.364   5.601  1.00  0.00     0.007 A 
HETATM   16  C   UNL     1      39.329  -9.932   3.251  1.00  0.00    -0.051 A 
HETATM   17  C   UNL     1      38.339  -8.347   5.295  1.00  0.00     0.001 A 
HETATM   18  C   UNL     1      37.931  -8.130   3.971  1.00  0.00     0.001 A 
HETATM   19  C   UNL     1      38.426  -8.927   2.938  1.00  0.00     0.007 A 
HETATM   20  O   UNL     1      39.916 -13.798   2.859  1.00  0.00    -0.272 OA
ENDBRANCH   3   7
BRANCH   1  21
HETATM   21  O   UNL     1      42.778 -17.541   5.689  1.00  0.00    -0.339 OA
HETATM   22  C   UNL     1      43.480 -16.851   6.723  1.00  0.00     0.211 C 
ENDBRANCH   1  21
BRANCH   6  23
HETATM   23  C   UNL     1      43.656 -19.098   3.461  1.00  0.00     0.015 A 
HETATM   24  C   UNL     1      43.487 -20.168   2.549  1.00  0.00     0.152 A 
HETATM   25  N   UNL     1      43.949 -21.330   3.020  1.00  0.00    -0.187 NA
HETATM   26  N   UNL     1      44.437 -21.007   4.227  1.00  0.00    -0.289 N 
HETATM   27  H   UNL     1      44.867 -21.740   4.782  1.00  0.00     0.188 HD
HETATM   28  C   UNL     1      44.280 -19.689   4.543  1.00  0.00     0.123 A 
ENDBRANCH   6  23
TORSDOF 3
ENDMDL
MODEL 10
REMARK VINA RESULT:      -7.9      2.581      8.914
REMARK  3 active torsions:
REMARK  status: ('A' for Active; 'I' for Inactive)
REMARK    1  A    between atoms: O_2  and  C_3 
REMARK    2  A    between atoms: C_5  and  N_15 
REMARK    3  A    between atoms: C_8  and  C_9 
ROOT
HETATM    1  C   UNL     1      41.705 -16.107   3.422  1.00  0.00     0.177 A 
HETATM    2  N   UNL     1      41.155 -14.970   2.938  1.00  0.00    -0.206 NA
HETATM    3  C   UNL     1      41.680 -14.380   1.853  1.00  0.00     0.135 A 
HETATM    4  C   UNL     1      42.796 -14.924   1.227  1.00  0.00     0.052 A 
HETATM    5  C   UNL     1      43.359 -16.105   1.724  1.00  0.00     0.020 A 
HETATM    6  C   UNL     1      42.811 -16.733   2.846  1.00  0.00     0.030 A 
ENDROOT
BRANCH   3   7
HETATM    7  N   UNL     1      41.074 -13.197   1.377  1.00  0.00    -0.302 N 
HETATM    8  C   UNL     1      41.365 -11.882   1.885  1.00  0.00     0.135 C 
HETATM    9  C   UNL     1      40.766 -10.949   0.846  1.00  0.00     0.040 C 
HETATM   10  C   UNL     1      39.563 -11.734   0.311  1.00  0.00     0.051 C 
HETATM   11  C   UNL     1      38.311 -11.592   1.218  1.00  0.00     0.058 C 
HETATM   12  C   UNL     1      39.162 -11.332  -1.122  1.00  0.00     0.058 C 
HETATM   13  C   UNL     1      40.067 -13.168   0.399  1.00  0.00     0.234 C 
HETATM   14  C   UNL     1      37.386 -10.769   0.380  1.00  0.00    -0.051 A 
HETATM   15  C   UNL     1      36.166 -10.231   0.757  1.00  0.00     0.007 A 
HETATM   16  C   UNL     1      37.860 -10.625  -0.923  1.00  0.00    -0.051 A 
HETATM   17  C   UNL     1      35.420  -9.535  -0.197  1.00  0.00     0.001 A 
HETATM   18  C   UNL     1      35.897  -9.390  -1.508  1.00  0.00     0.001 A 
HETATM   19  C   UNL     1      37.125  -9.940  -1.879  1.00  0.00     0.007 A 
HETATM   20  O   UNL     1      39.592 -14.087  -0.248  1.00  0.00    -0.272 OA
ENDBRANCH   3   7
BRANCH   1  21
HETATM   21  O   UNL     1      41.122 -16.681   4.536  1.00  0.00    -0.339 OA
HETATM   22  C   UNL     1      40.924 -15.760   5.608  1.00  0.00     0.211 C 
ENDBRANCH   1  21
BRANCH   6  23
HETATM   23  C   UNL     1      43.394 -17.961   3.369  1.00  0.00     0.015 A 
HETATM   24  C   UNL     1      43.988 -18.254   4.620  1.00  0.00     0.152 A 
HETATM   25  N   UNL     1      44.408 -19.519   4.712  1.00  0.00    -0.187 NA
HETATM   26  N   UNL     1      44.065 -20.050   3.530  1.00  0.00    -0.289 N 
HETATM   27  H   UNL     1      44.271 -21.031   3.367  1.00  0.00     0.188 HD
HETATM   28  C   UNL     1      43.464 -19.160   2.687  1.00  0.00     0.123 A 
ENDBRANCH   6  23
TORSDOF 3
ENDMDL
