MODEL 1
REMARK VINA RESULT:      -9.4      0.000      0.000
REMARK  1 active torsions:
REMARK  status: ('A' for Active; 'I' for Inactive)
REMARK       I    between atoms: N_9  and  C_10 
REMARK    1  A    between atoms: C_10  and  C_11 
ROOT
HETATM    1  C   UNL     1      43.958 -16.633   7.867  1.00  0.00     0.002 A 
HETATM    2  C   UNL     1      44.239 -17.212   6.630  1.00  0.00     0.031 A 
HETATM    3  C   UNL     1      43.474 -16.865   5.516  1.00  0.00     0.056 A 
HETATM    4  C   UNL     1      42.433 -15.926   5.611  1.00  0.00     0.036 A 
HETATM    5  N   UNL     1      41.595 -15.641   4.520  1.00  0.00    -0.273 NA
HETATM    6  C   UNL     1      42.168 -15.901   3.171  1.00  0.00     0.100 C 
HETATM    7  C   UNL     1      43.091 -14.741   2.744  1.00  0.00     0.055 C 
HETATM    8  C   UNL     1      42.331 -13.465   2.410  1.00  0.00     0.128 C 
HETATM    9  N   UNL     1      41.243 -13.713   1.472  1.00  0.00    -0.348 N 
HETATM   10  C   UNL     1      40.908 -12.672   0.598  1.00  0.00     0.253 C 
HETATM   11  O   UNL     1      41.450 -11.569   0.635  1.00  0.00    -0.267 OA
HETATM   12  C   UNL     1      40.296 -14.748   1.887  1.00  0.00     0.128 C 
HETATM   13  C   UNL     1      41.010 -16.062   2.168  1.00  0.00     0.055 C 
HETATM   14  C   UNL     1      43.029 -17.198   3.149  1.00  0.00     0.245 C 
HETATM   15  O   UNL     1      43.200 -17.885   2.141  1.00  0.00    -0.271 OA
HETATM   16  N   UNL     1      43.729 -17.493   4.292  1.00  0.00    -0.324 N 
HETATM   17  C   UNL     1      42.136 -15.392   6.870  1.00  0.00     0.026 A 
HETATM   18  C   UNL     1      42.903 -15.730   7.988  1.00  0.00     0.002 A 
HETATM   19  H   UNL     1      41.139 -14.739   4.617  1.00  0.00     0.129 HD
HETATM   20  H   UNL     1      44.366 -18.275   4.242  1.00  0.00     0.169 HD
ENDROOT
BRANCH  10  21
HETATM   21  C   UNL     1      39.873 -12.888  -0.443  1.00  0.00     0.034 A 
HETATM   22  C   UNL     1      40.054 -13.855  -1.443  1.00  0.00     0.051 A 
HETATM   23  C   UNL     1      39.048 -14.003  -2.408  1.00  0.00     0.085 A 
HETATM   24  C   UNL     1      37.934 -13.169  -2.373  1.00  0.00     0.062 A 
HETATM   25  N   UNL     1      38.962 -14.888  -3.454  1.00  0.00    -0.242 NA
HETATM   26  N   UNL     1      37.175 -13.576  -3.442  1.00  0.00    -0.349 N 
HETATM   27  C   UNL     1      37.751 -12.169  -1.417  1.00  0.00     0.033 A 
HETATM   28  H   UNL     1      36.292 -13.182  -3.727  1.00  0.00     0.167 HD
HETATM   29  C   UNL     1      37.828 -14.609  -4.054  1.00  0.00     0.208 A 
HETATM   30  C   UNL     1      38.753 -12.044  -0.447  1.00  0.00     0.019 A 
ENDBRANCH  10  21
TORSDOF 1
ENDMDL
MODEL 2
REMARK VINA RESULT:      -9.3      2.717      4.048
REMARK  1 active torsions:
REMARK  status: ('A' for Active; 'I' for Inactive)
REMARK       I    between atoms: N_9  and  C_10 
REMARK    1  A    between atoms: C_10  and  C_11 
ROOT
HETATM    1  C   UNL     1      43.998 -20.865   5.031  1.00  0.00     0.002 A 
HETATM    2  C   UNL     1      43.790 -19.633   5.651  1.00  0.00     0.031 A 
HETATM    3  C   UNL     1      43.594 -18.493   4.872  1.00  0.00     0.056 A 
HETATM    4  C   UNL     1      43.585 -18.562   3.468  1.00  0.00     0.036 A 
HETATM    5  N   UNL     1      43.485 -17.408   2.674  1.00  0.00    -0.273 NA
HETATM    6  C   UNL     1      42.834 -16.231   3.311  1.00  0.00     0.100 C 
HETATM    7  C   UNL     1      41.298 -16.374   3.266  1.00  0.00     0.055 C 
HETATM    8  C   UNL     1      40.723 -16.204   1.866  1.00  0.00     0.128 C 
HETATM    9  N   UNL     1      41.209 -14.988   1.225  1.00  0.00    -0.348 N 
HETATM   10  C   UNL     1      40.350 -14.363   0.315  1.00  0.00     0.253 C 
HETATM   11  O   UNL     1      39.253 -14.826   0.006  1.00  0.00    -0.267 OA
HETATM   12  C   UNL     1      42.666 -14.861   1.171  1.00  0.00     0.128 C 
HETATM   13  C   UNL     1      43.276 -14.959   2.562  1.00  0.00     0.055 C 
HETATM   14  C   UNL     1      43.233 -16.090   4.809  1.00  0.00     0.245 C 
HETATM   15  O   UNL     1      43.251 -15.015   5.410  1.00  0.00    -0.271 OA
HETATM   16  N   UNL     1      43.442 -17.254   5.504  1.00  0.00    -0.324 N 
HETATM   17  C   UNL     1      43.843 -19.798   2.864  1.00  0.00     0.026 A 
HETATM   18  C   UNL     1      44.033 -20.946   3.640  1.00  0.00     0.002 A 
HETATM   19  H   UNL     1      43.152 -17.618   1.738  1.00  0.00     0.129 HD
HETATM   20  H   UNL     1      43.598 -17.164   6.498  1.00  0.00     0.169 HD
ENDROOT
BRANCH  10  21
HETATM   21  C   UNL     1      40.743 -13.074  -0.304  1.00  0.00     0.034 A 
HETATM   22  C   UNL     1      41.073 -11.967   0.492  1.00  0.00     0.051 A 
HETATM   23  C   UNL     1      41.423 -10.772  -0.150  1.00  0.00     0.085 A 
HETATM   24  C   UNL     1      41.392 -10.704  -1.540  1.00  0.00     0.062 A 
HETATM   25  N   UNL     1      41.819  -9.572   0.389  1.00  0.00    -0.242 NA
HETATM   26  N   UNL     1      41.775  -9.416  -1.822  1.00  0.00    -0.349 N 
HETATM   27  C   UNL     1      41.023 -11.775  -2.355  1.00  0.00     0.033 A 
HETATM   28  H   UNL     1      41.857  -9.009  -2.741  1.00  0.00     0.167 HD
HETATM   29  C   UNL     1      42.025  -8.781  -0.638  1.00  0.00     0.208 A 
HETATM   30  C   UNL     1      40.695 -12.969  -1.703  1.00  0.00     0.019 A 
ENDBRANCH  10  21
TORSDOF 1
ENDMDL
MODEL 3
REMARK VINA RESULT:      -9.1      4.573      7.504
REMARK  1 active torsions:
REMARK  status: ('A' for Active; 'I' for Inactive)
REMARK       I    between atoms: N_9  and  C_10 
REMARK    1  A    between atoms: C_10  and  C_11 
ROOT
HETATM    1  C   UNL     1      40.074  -8.640   6.367  1.00  0.00     0.002 A 
HETATM    2  C   UNL     1      41.266  -9.176   6.851  1.00  0.00     0.031 A 
HETATM    3  C   UNL     1      41.588 -10.505   6.574  1.00  0.00     0.056 A 
HETATM    4  C   UNL     1      40.739 -11.313   5.798  1.00  0.00     0.036 A 
HETATM    5  N   UNL     1      41.005 -12.677   5.592  1.00  0.00    -0.273 NA
HETATM    6  C   UNL     1      42.430 -13.091   5.715  1.00  0.00     0.100 C 
HETATM    7  C   UNL     1      43.200 -12.763   4.419  1.00  0.00     0.055 C 
HETATM    8  C   UNL     1      42.817 -13.663   3.252  1.00  0.00     0.128 C 
HETATM    9  N   UNL     1      42.872 -15.073   3.616  1.00  0.00    -0.348 N 
HETATM   10  C   UNL     1      43.199 -15.979   2.600  1.00  0.00     0.253 C 
HETATM   11  O   UNL     1      43.380 -15.636   1.433  1.00  0.00    -0.267 OA
HETATM   12  C   UNL     1      42.080 -15.438   4.792  1.00  0.00     0.128 C 
HETATM   13  C   UNL     1      42.479 -14.604   6.000  1.00  0.00     0.055 C 
HETATM   14  C   UNL     1      43.151 -12.342   6.874  1.00  0.00     0.245 C 
HETATM   15  O   UNL     1      44.112 -12.806   7.489  1.00  0.00    -0.271 OA
HETATM   16  N   UNL     1      42.760 -11.049   7.111  1.00  0.00    -0.324 N 
HETATM   17  C   UNL     1      39.525 -10.771   5.361  1.00  0.00     0.026 A 
HETATM   18  C   UNL     1      39.201  -9.438   5.630  1.00  0.00     0.002 A 
HETATM   19  H   UNL     1      40.532 -13.037   4.769  1.00  0.00     0.129 HD
HETATM   20  H   UNL     1      43.298 -10.532   7.791  1.00  0.00     0.169 HD
ENDROOT
BRANCH  10  21
HETATM   21  C   UNL     1      43.362 -17.418   2.921  1.00  0.00     0.034 A 
HETATM   22  C   UNL     1      43.802 -17.825   4.189  1.00  0.00     0.051 A 
HETATM   23  C   UNL     1      43.951 -19.198   4.428  1.00  0.00     0.085 A 
HETATM   24  C   UNL     1      43.703 -20.105   3.402  1.00  0.00     0.062 A 
HETATM   25  N   UNL     1      44.324 -19.851   5.577  1.00  0.00    -0.242 NA
HETATM   26  N   UNL     1      43.949 -21.330   3.969  1.00  0.00    -0.349 N 
HETATM   27  C   UNL     1      43.309 -19.725   2.118  1.00  0.00     0.033 A 
HETATM   28  H   UNL     1      43.876 -22.224   3.507  1.00  0.00     0.167 HD
HETATM   29  C   UNL     1      44.312 -21.128   5.271  1.00  0.00     0.208 A 
HETATM   30  C   UNL     1      43.145 -18.353   1.897  1.00  0.00     0.019 A 
ENDBRANCH  10  21
TORSDOF 1
ENDMDL
MODEL 4
REMARK VINA RESULT:      -8.9      4.693      6.593
REMARK  1 active torsions:
REMARK  status: ('A' for Active; 'I' for Inactive)
REMARK       I    between atoms: N_9  and  C_10 
REMARK    1  A    between atoms: C_10  and  C_11 
ROOT
HETATM    1  C   UNL     1      43.987 -20.946   3.634  1.00  0.00     0.002 A 
HETATM    2  C   UNL     1      43.877 -20.412   4.917  1.00  0.00     0.031 A 
HETATM    3  C   UNL     1      43.691 -19.039   5.079  1.00  0.00     0.056 A 
HETATM    4  C   UNL     1      43.594 -18.181   3.970  1.00  0.00     0.036 A 
HETATM    5  N   UNL     1      43.503 -16.788   4.122  1.00  0.00    -0.273 NA
HETATM    6  C   UNL     1      42.949 -16.307   5.417  1.00  0.00     0.100 C 
HETATM    7  C   UNL     1      41.408 -16.389   5.409  1.00  0.00     0.055 C 
HETATM    8  C   UNL     1      40.759 -15.353   4.502  1.00  0.00     0.128 C 
HETATM    9  N   UNL     1      41.264 -14.011   4.764  1.00  0.00    -0.348 N 
HETATM   10  C   UNL     1      40.383 -12.946   4.545  1.00  0.00     0.253 C 
HETATM   11  O   UNL     1      39.249 -13.101   4.096  1.00  0.00    -0.267 OA
HETATM   12  C   UNL     1      42.720 -13.876   4.693  1.00  0.00     0.128 C 
HETATM   13  C   UNL     1      43.407 -14.852   5.637  1.00  0.00     0.055 C 
HETATM   14  C   UNL     1      43.444 -17.170   6.614  1.00  0.00     0.245 C 
HETATM   15  O   UNL     1      43.551 -16.742   7.764  1.00  0.00    -0.271 OA
HETATM   16  N   UNL     1      43.637 -18.507   6.372  1.00  0.00    -0.324 N 
HETATM   17  C   UNL     1      43.754 -18.730   2.693  1.00  0.00     0.026 A 
HETATM   18  C   UNL     1      43.935 -20.105   2.524  1.00  0.00     0.002 A 
HETATM   19  H   UNL     1      43.104 -16.341   3.302  1.00  0.00     0.129 HD
HETATM   20  H   UNL     1      43.857 -19.083   7.172  1.00  0.00     0.169 HD
ENDROOT
BRANCH  10  21
HETATM   21  C   UNL     1      40.802 -11.563   4.879  1.00  0.00     0.034 A 
HETATM   22  C   UNL     1      40.879 -11.140   6.214  1.00  0.00     0.051 A 
HETATM   23  C   UNL     1      41.265  -9.817   6.466  1.00  0.00     0.085 A 
HETATM   24  C   UNL     1      41.517  -8.959   5.400  1.00  0.00     0.062 A 
HETATM   25  N   UNL     1      41.453  -9.174   7.665  1.00  0.00    -0.242 NA
HETATM   26  N   UNL     1      41.855  -7.770   5.997  1.00  0.00    -0.349 N 
HETATM   27  C   UNL     1      41.403  -9.340   4.062  1.00  0.00     0.033 A 
HETATM   28  H   UNL     1      42.095  -6.914   5.521  1.00  0.00     0.167 HD
HETATM   29  C   UNL     1      41.808  -7.949   7.351  1.00  0.00     0.208 A 
HETATM   30  C   UNL     1      41.035 -10.669   3.823  1.00  0.00     0.019 A 
ENDBRANCH  10  21
TORSDOF 1
ENDMDL
MODEL 5
REMARK VINA RESULT:      -8.7      6.107      9.903
REMARK  1 active torsions:
REMARK  status: ('A' for Active; 'I' for Inactive)
REMARK       I    between atoms: N_9  and  C_10 
REMARK    1  A    between atoms: C_10  and  C_11 
ROOT
HETATM    1  C   UNL     1      43.161 -16.182   2.185  1.00  0.00     0.002 A 
HETATM    2  C   UNL     1      42.944 -14.847   1.847  1.00  0.00     0.031 A 
HETATM    3  C   UNL     1      42.856 -13.885   2.855  1.00  0.00     0.056 A 
HETATM    4  C   UNL     1      42.999 -14.234   4.208  1.00  0.00     0.036 A 
HETATM    5  N   UNL     1      42.818 -13.292   5.235  1.00  0.00    -0.273 NA
HETATM    6  C   UNL     1      43.038 -11.868   4.861  1.00  0.00     0.100 C 
HETATM    7  C   UNL     1      44.545 -11.540   4.851  1.00  0.00     0.055 C 
HETATM    8  C   UNL     1      45.156 -11.491   6.244  1.00  0.00     0.128 C 
HETATM    9  N   UNL     1      44.386 -10.641   7.144  1.00  0.00    -0.348 N 
HETATM   10  C   UNL     1      45.093  -9.982   8.156  1.00  0.00     0.253 C 
HETATM   11  O   UNL     1      46.299 -10.139   8.339  1.00  0.00    -0.267 OA
HETATM   12  C   UNL     1      42.966 -10.980   7.246  1.00  0.00     0.128 C 
HETATM   13  C   UNL     1      42.301 -10.974   5.878  1.00  0.00     0.055 C 
HETATM   14  C   UNL     1      42.494 -11.553   3.437  1.00  0.00     0.245 C 
HETATM   15  O   UNL     1      42.110 -10.436   3.086  1.00  0.00    -0.271 OA
HETATM   16  N   UNL     1      42.584 -12.558   2.507  1.00  0.00    -0.324 N 
HETATM   17  C   UNL     1      43.169 -15.585   4.530  1.00  0.00     0.026 A 
HETATM   18  C   UNL     1      43.264 -16.552   3.525  1.00  0.00     0.002 A 
HETATM   19  H   UNL     1      43.273 -13.577   6.097  1.00  0.00     0.129 HD
HETATM   20  H   UNL     1      42.328 -12.319   1.559  1.00  0.00     0.169 HD
ENDROOT
BRANCH  10  21
HETATM   21  C   UNL     1      44.387  -9.030   9.049  1.00  0.00     0.034 A 
HETATM   22  C   UNL     1      44.142  -9.354  10.392  1.00  0.00     0.051 A 
HETATM   23  C   UNL     1      43.457  -8.421  11.182  1.00  0.00     0.085 A 
HETATM   24  C   UNL     1      43.008  -7.234  10.610  1.00  0.00     0.062 A 
HETATM   25  N   UNL     1      43.129  -8.476  12.514  1.00  0.00    -0.242 NA
HETATM   26  N   UNL     1      42.388  -6.577  11.643  1.00  0.00    -0.349 N 
HETATM   27  C   UNL     1      43.197  -6.907   9.267  1.00  0.00     0.033 A 
HETATM   28  H   UNL     1      41.935  -5.677  11.587  1.00  0.00     0.167 HD
HETATM   29  C   UNL     1      42.491  -7.355  12.762  1.00  0.00     0.208 A 
HETATM   30  C   UNL     1      43.899  -7.838   8.492  1.00  0.00     0.019 A 
ENDBRANCH  10  21
TORSDOF 1
ENDMDL
MODEL 6
REMARK VINA RESULT:      -8.3      4.575      7.280
REMARK  1 active torsions:
REMARK  status: ('A' for Active; 'I' for Inactive)
REMARK       I    between atoms: N_9  and  C_10 
REMARK    1  A    between atoms: C_10  and  C_11 
ROOT
HETATM    1  C   UNL     1      43.956 -19.214   2.792  1.00  0.00     0.002 A 
HETATM    2  C   UNL     1      42.893 -18.509   2.228  1.00  0.00     0.031 A 
HETATM    3  C   UNL     1      42.394 -17.378   2.876  1.00  0.00     0.056 A 
HETATM    4  C   UNL     1      42.954 -16.923   4.081  1.00  0.00     0.036 A 
HETATM    5  N   UNL     1      42.400 -15.845   4.791  1.00  0.00    -0.273 NA
HETATM    6  C   UNL     1      41.606 -14.874   3.988  1.00  0.00     0.100 C 
HETATM    7  C   UNL     1      42.540 -13.889   3.255  1.00  0.00     0.055 C 
HETATM    8  C   UNL     1      43.211 -12.893   4.190  1.00  0.00     0.128 C 
HETATM    9  N   UNL     1      42.246 -12.234   5.062  1.00  0.00    -0.348 N 
HETATM   10  C   UNL     1      42.540 -10.925   5.461  1.00  0.00     0.253 C 
HETATM   11  O   UNL     1      43.585 -10.353   5.154  1.00  0.00    -0.267 OA
HETATM   12  C   UNL     1      41.401 -13.140   5.841  1.00  0.00     0.128 C 
HETATM   13  C   UNL     1      40.659 -14.112   4.935  1.00  0.00     0.055 C 
HETATM   14  C   UNL     1      40.752 -15.586   2.899  1.00  0.00     0.245 C 
HETATM   15  O   UNL     1      39.697 -15.130   2.454  1.00  0.00    -0.271 OA
HETATM   16  N   UNL     1      41.292 -16.712   2.329  1.00  0.00    -0.324 N 
HETATM   17  C   UNL     1      43.988 -17.671   4.655  1.00  0.00     0.026 A 
HETATM   18  C   UNL     1      44.497 -18.800   4.008  1.00  0.00     0.002 A 
HETATM   19  H   UNL     1      43.071 -15.419   5.422  1.00  0.00     0.129 HD
HETATM   20  H   UNL     1      40.786 -17.112   1.552  1.00  0.00     0.169 HD
ENDROOT
BRANCH  10  21
HETATM   21  C   UNL     1      41.559 -10.164   6.273  1.00  0.00     0.034 A 
HETATM   22  C   UNL     1      41.841  -9.824   7.604  1.00  0.00     0.051 A 
HETATM   23  C   UNL     1      40.869  -9.117   8.325  1.00  0.00     0.085 A 
HETATM   24  C   UNL     1      39.651  -8.814   7.723  1.00  0.00     0.062 A 
HETATM   25  N   UNL     1      40.911  -8.637   9.611  1.00  0.00    -0.242 NA
HETATM   26  N   UNL     1      38.954  -8.141   8.694  1.00  0.00    -0.349 N 
HETATM   27  C   UNL     1      39.327  -9.181   6.416  1.00  0.00     0.033 A 
HETATM   28  H   UNL     1      38.018  -7.775   8.607  1.00  0.00     0.167 HD
HETATM   29  C   UNL     1      39.749  -8.055   9.802  1.00  0.00     0.208 A 
HETATM   30  C   UNL     1      40.313  -9.870   5.700  1.00  0.00     0.019 A 
ENDBRANCH  10  21
TORSDOF 1
ENDMDL
MODEL 7
REMARK VINA RESULT:      -8.2     12.433     16.858
REMARK  1 active torsions:
REMARK  status: ('A' for Active; 'I' for Inactive)
REMARK       I    between atoms: N_9  and  C_10 
REMARK    1  A    between atoms: C_10  and  C_11 
ROOT
HETATM    1  C   UNL     1      42.234  -8.147   8.347  1.00  0.00     0.002 A 
HETATM    2  C   UNL     1      41.492  -9.095   9.050  1.00  0.00     0.031 A 
HETATM    3  C   UNL     1      41.408  -9.012  10.441  1.00  0.00     0.056 A 
HETATM    4  C   UNL     1      42.045  -7.978  11.148  1.00  0.00     0.036 A 
HETATM    5  N   UNL     1      42.047  -7.939  12.552  1.00  0.00    -0.273 NA
HETATM    6  C   UNL     1      40.927  -8.650  13.228  1.00  0.00     0.100 C 
HETATM    7  C   UNL     1      39.654  -7.779  13.223  1.00  0.00     0.055 C 
HETATM    8  C   UNL     1      39.745  -6.584  14.162  1.00  0.00     0.128 C 
HETATM    9  N   UNL     1      40.170  -6.977  15.499  1.00  0.00    -0.348 N 
HETATM   10  C   UNL     1      39.691  -6.212  16.569  1.00  0.00     0.253 C 
HETATM   11  O   UNL     1      38.989  -5.215  16.415  1.00  0.00    -0.267 OA
HETATM   12  C   UNL     1      41.424  -7.731  15.550  1.00  0.00     0.128 C 
HETATM   13  C   UNL     1      41.351  -8.973  14.674  1.00  0.00     0.055 C 
HETATM   14  C   UNL     1      40.569  -9.982  12.506  1.00  0.00     0.245 C 
HETATM   15  O   UNL     1      40.067 -10.952  13.076  1.00  0.00    -0.271 OA
HETATM   16  N   UNL     1      40.707 -10.000  11.141  1.00  0.00    -0.324 N 
HETATM   17  C   UNL     1      42.823  -7.065  10.429  1.00  0.00     0.026 A 
HETATM   18  C   UNL     1      42.905  -7.139   9.035  1.00  0.00     0.002 A 
HETATM   19  H   UNL     1      42.227  -7.004  12.906  1.00  0.00     0.129 HD
HETATM   20  H   UNL     1      40.376 -10.827  10.665  1.00  0.00     0.169 HD
ENDROOT
BRANCH  10  21
HETATM   21  C   UNL     1      40.011  -6.612  17.962  1.00  0.00     0.034 A 
HETATM   22  C   UNL     1      39.611  -7.861  18.459  1.00  0.00     0.051 A 
HETATM   23  C   UNL     1      39.929  -8.176  19.787  1.00  0.00     0.085 A 
HETATM   24  C   UNL     1      40.584  -7.237  20.578  1.00  0.00     0.062 A 
HETATM   25  N   UNL     1      39.690  -9.329  20.494  1.00  0.00    -0.242 NA
HETATM   26  N   UNL     1      40.726  -7.861  21.792  1.00  0.00    -0.349 N 
HETATM   27  C   UNL     1      40.953  -5.970  20.123  1.00  0.00     0.033 A 
HETATM   28  H   UNL     1      41.155  -7.467  22.616  1.00  0.00     0.167 HD
HETATM   29  C   UNL     1      40.181  -9.110  21.692  1.00  0.00     0.208 A 
HETATM   30  C   UNL     1      40.647  -5.675  18.790  1.00  0.00     0.019 A 
ENDBRANCH  10  21
TORSDOF 1
ENDMDL
MODEL 8
REMARK VINA RESULT:      -8.1      3.806      8.890
REMARK  1 active torsions:
REMARK  status: ('A' for Active; 'I' for Inactive)
REMARK       I    between atoms: N_9  and  C_10 
REMARK    1  A    between atoms: C_10  and  C_11 
ROOT
HETATM    1  C   UNL     1      37.722 -12.803  -2.464  1.00  0.00     0.002 A 
HETATM    2  C   UNL     1      38.481 -13.837  -1.919  1.00  0.00     0.031 A 
HETATM    3  C   UNL     1      39.325 -13.578  -0.839  1.00  0.00     0.056 A 
HETATM    4  C   UNL     1      39.412 -12.294  -0.274  1.00  0.00     0.036 A 
HETATM    5  N   UNL     1      40.327 -11.999   0.749  1.00  0.00    -0.273 NA
HETATM    6  C   UNL     1      40.767 -13.151   1.584  1.00  0.00     0.100 C 
HETATM    7  C   UNL     1      39.705 -13.481   2.652  1.00  0.00     0.055 C 
HETATM    8  C   UNL     1      39.624 -12.436   3.757  1.00  0.00     0.128 C 
HETATM    9  N   UNL     1      40.936 -12.141   4.319  1.00  0.00    -0.348 N 
HETATM   10  C   UNL     1      40.981 -11.769   5.668  1.00  0.00     0.253 C 
HETATM   11  O   UNL     1      39.971 -11.633   6.356  1.00  0.00    -0.267 OA
HETATM   12  C   UNL     1      41.949 -11.738   3.342  1.00  0.00     0.128 C 
HETATM   13  C   UNL     1      42.107 -12.789   2.253  1.00  0.00     0.055 C 
HETATM   14  C   UNL     1      40.969 -14.438   0.732  1.00  0.00     0.245 C 
HETATM   15  O   UNL     1      41.751 -15.340   1.035  1.00  0.00    -0.271 OA
HETATM   16  N   UNL     1      40.124 -14.610  -0.336  1.00  0.00    -0.324 N 
HETATM   17  C   UNL     1      38.678 -11.259  -0.865  1.00  0.00     0.026 A 
HETATM   18  C   UNL     1      37.826 -11.514  -1.944  1.00  0.00     0.002 A 
HETATM   19  H   UNL     1      40.055 -11.176   1.278  1.00  0.00     0.129 HD
HETATM   20  H   UNL     1      40.187 -15.492  -0.823  1.00  0.00     0.169 HD
ENDROOT
BRANCH  10  21
HETATM   21  C   UNL     1      42.290 -11.543   6.327  1.00  0.00     0.034 A 
HETATM   22  C   UNL     1      42.594 -10.305   6.912  1.00  0.00     0.051 A 
HETATM   23  C   UNL     1      43.853 -10.147   7.507  1.00  0.00     0.085 A 
HETATM   24  C   UNL     1      44.770 -11.193   7.465  1.00  0.00     0.062 A 
HETATM   25  N   UNL     1      44.377  -9.065   8.172  1.00  0.00    -0.242 NA
HETATM   26  N   UNL     1      45.871 -10.702   8.120  1.00  0.00    -0.349 N 
HETATM   27  C   UNL     1      44.510 -12.419   6.850  1.00  0.00     0.033 A 
HETATM   28  H   UNL     1      46.739 -11.193   8.273  1.00  0.00     0.167 HD
HETATM   29  C   UNL     1      45.587  -9.429   8.529  1.00  0.00     0.208 A 
HETATM   30  C   UNL     1      43.243 -12.572   6.276  1.00  0.00     0.019 A 
ENDBRANCH  10  21
TORSDOF 1
ENDMDL
MODEL 9
REMARK VINA RESULT:      -8.0      4.961      8.031
REMARK  1 active torsions:
REMARK  status: ('A' for Active; 'I' for Inactive)
REMARK       I    between atoms: N_9  and  C_10 
REMARK    1  A    between atoms: C_10  and  C_11 
ROOT
HETATM    1  C   UNL     1      41.283  -6.324   6.713  1.00  0.00     0.002 A 
HETATM    2  C   UNL     1      41.242  -6.889   5.439  1.00  0.00     0.031 A 
HETATM    3  C   UNL     1      41.608  -8.224   5.264  1.00  0.00     0.056 A 
HETATM    4  C   UNL     1      42.002  -9.020   6.353  1.00  0.00     0.036 A 
HETATM    5  N   UNL     1      42.463 -10.335   6.176  1.00  0.00    -0.273 NA
HETATM    6  C   UNL     1      41.997 -11.031   4.946  1.00  0.00     0.100 C 
HETATM    7  C   UNL     1      40.567 -11.577   5.143  1.00  0.00     0.055 C 
HETATM    8  C   UNL     1      40.508 -12.764   6.094  1.00  0.00     0.128 C 
HETATM    9  N   UNL     1      41.475 -13.794   5.736  1.00  0.00    -0.348 N 
HETATM   10  C   UNL     1      41.133 -15.118   6.032  1.00  0.00     0.253 C 
HETATM   11  O   UNL     1      40.096 -15.424   6.620  1.00  0.00    -0.267 OA
HETATM   12  C   UNL     1      42.858 -13.328   5.626  1.00  0.00     0.128 C 
HETATM   13  C   UNL     1      42.972 -12.182   4.632  1.00  0.00     0.055 C 
HETATM   14  C   UNL     1      41.951 -10.071   3.721  1.00  0.00     0.245 C 
HETATM   15  O   UNL     1      42.080 -10.447   2.555  1.00  0.00    -0.271 OA
HETATM   16  N   UNL     1      41.616  -8.764   3.973  1.00  0.00    -0.324 N 
HETATM   17  C   UNL     1      42.081  -8.422   7.616  1.00  0.00     0.026 A 
HETATM   18  C   UNL     1      41.710  -7.087   7.799  1.00  0.00     0.002 A 
HETATM   19  H   UNL     1      42.382 -10.884   7.027  1.00  0.00     0.129 HD
HETATM   20  H   UNL     1      41.485  -8.168   3.168  1.00  0.00     0.169 HD
ENDROOT
BRANCH  10  21
HETATM   21  C   UNL     1      42.030 -16.223   5.613  1.00  0.00     0.034 A 
HETATM   22  C   UNL     1      42.191 -16.540   4.256  1.00  0.00     0.051 A 
HETATM   23  C   UNL     1      43.040 -17.603   3.922  1.00  0.00     0.085 A 
HETATM   24  C   UNL     1      43.657 -18.333   4.934  1.00  0.00     0.062 A 
HETATM   25  N   UNL     1      43.395 -18.085   2.686  1.00  0.00    -0.242 NA
HETATM   26  N   UNL     1      44.392 -19.280   4.264  1.00  0.00    -0.349 N 
HETATM   27  C   UNL     1      43.479 -18.069   6.292  1.00  0.00     0.033 A 
HETATM   28  H   UNL     1      44.966 -19.994   4.687  1.00  0.00     0.167 HD
HETATM   29  C   UNL     1      44.207 -19.089   2.924  1.00  0.00     0.208 A 
HETATM   30  C   UNL     1      42.644 -16.993   6.613  1.00  0.00     0.019 A 
ENDBRANCH  10  21
TORSDOF 1
ENDMDL
MODEL 10
REMARK VINA RESULT:      -8.0      4.678      8.248
REMARK  1 active torsions:
REMARK  status: ('A' for Active; 'I' for Inactive)
REMARK       I    between atoms: N_9  and  C_10 
REMARK    1  A    between atoms: C_10  and  C_11 
ROOT
HETATM    1  C   UNL     1      43.441 -18.995   2.398  1.00  0.00     0.002 A 
HETATM    2  C   UNL     1      42.412 -18.071   2.220  1.00  0.00     0.031 A 
HETATM    3  C   UNL     1      42.261 -17.023   3.129  1.00  0.00     0.056 A 
HETATM    4  C   UNL     1      43.139 -16.868   4.215  1.00  0.00     0.036 A 
HETATM    5  N   UNL     1      42.940 -15.876   5.188  1.00  0.00    -0.273 NA
HETATM    6  C   UNL     1      42.162 -14.683   4.755  1.00  0.00     0.100 C 
HETATM    7  C   UNL     1      43.062 -13.707   3.969  1.00  0.00     0.055 C 
HETATM    8  C   UNL     1      44.077 -12.991   4.849  1.00  0.00     0.128 C 
HETATM    9  N   UNL     1      43.449 -12.384   6.016  1.00  0.00    -0.348 N 
HETATM   10  C   UNL     1      44.036 -11.218   6.520  1.00  0.00     0.253 C 
HETATM   11  O   UNL     1      45.068 -10.736   6.055  1.00  0.00    -0.267 OA
HETATM   12  C   UNL     1      42.657 -13.302   6.836  1.00  0.00     0.128 C 
HETATM   13  C   UNL     1      41.585 -13.991   6.006  1.00  0.00     0.055 C 
HETATM   14  C   UNL     1      40.983 -15.072   3.815  1.00  0.00     0.245 C 
HETATM   15  O   UNL     1      39.948 -14.413   3.712  1.00  0.00    -0.271 OA
HETATM   16  N   UNL     1      41.192 -16.134   2.971  1.00  0.00    -0.324 N 
HETATM   17  C   UNL     1      44.136 -17.833   4.404  1.00  0.00     0.026 A 
HETATM   18  C   UNL     1      44.296 -18.881   3.493  1.00  0.00     0.002 A 
HETATM   19  H   UNL     1      43.795 -15.660   5.692  1.00  0.00     0.129 HD
HETATM   20  H   UNL     1      40.469 -16.319   2.291  1.00  0.00     0.169 HD
ENDROOT
BRANCH  10  21
HETATM   21  C   UNL     1      43.397 -10.498   7.648  1.00  0.00     0.034 A 
HETATM   22  C   UNL     1      42.250  -9.718   7.443  1.00  0.00     0.051 A 
HETATM   23  C   UNL     1      41.699  -9.049   8.545  1.00  0.00     0.085 A 
HETATM   24  C   UNL     1      42.321  -9.143   9.786  1.00  0.00     0.062 A 
HETATM   25  N   UNL     1      40.575  -8.265   8.620  1.00  0.00    -0.242 NA
HETATM   26  N   UNL     1      41.538  -8.378  10.613  1.00  0.00    -0.349 N 
HETATM   27  C   UNL     1      43.489  -9.874  10.009  1.00  0.00     0.033 A 
HETATM   28  H   UNL     1      41.697  -8.212  11.596  1.00  0.00     0.167 HD
HETATM   29  C   UNL     1      40.503  -7.879   9.873  1.00  0.00     0.208 A 
HETATM   30  C   UNL     1      44.018 -10.553   8.905  1.00  0.00     0.019 A 
ENDBRANCH  10  21
TORSDOF 1
ENDMDL
