MODEL 1
REMARK VINA RESULT:      -8.3      0.000      0.000
REMARK  4 active torsions:
REMARK  status: ('A' for Active; 'I' for Inactive)
REMARK    1  A    between atoms: C_8  and  N_9 
REMARK    2  A    between atoms: C_11  and  C_12 
REMARK    3  A    between atoms: C_13  and  O_14 
REMARK    4  A    between atoms: O_14  and  C_15 
ROOT
HETATM    1  C   UNL     1      44.182 -18.632   3.146  1.00  0.00     0.002 A 
HETATM    2  C   UNL     1      44.323 -17.820   4.278  1.00  0.00     0.034 A 
HETATM    3  C   UNL     1      43.361 -16.829   4.518  1.00  0.00     0.103 A 
HETATM    4  C   UNL     1      42.300 -16.676   3.631  1.00  0.00     0.083 A 
HETATM    5  N   UNL     1      41.601 -15.626   4.161  1.00  0.00    -0.151 N 
HETATM    6  C   UNL     1      42.189 -15.217   5.330  1.00  0.00     0.734 A 
HETATM    7  N   UNL     1      41.675 -14.235   6.105  1.00  0.00    -0.033 NA
HETATM    8  C   UNL     1      40.542 -13.723   5.786  1.00  0.00     0.193 C 
HETATM    9  N   UNL     1      39.805 -14.070   4.650  1.00  0.00    -0.338 N 
HETATM   10  C   UNL     1      40.383 -15.004   3.686  1.00  0.00     0.246 C 
HETATM   11  N   UNL     1      43.277 -15.924   5.546  1.00  0.00    -0.060 NA
HETATM   12  C   UNL     1      42.135 -17.476   2.495  1.00  0.00     0.033 A 
HETATM   13  C   UNL     1      43.105 -18.461   2.273  1.00  0.00     0.002 A 
HETATM   14  H   UNL     1      38.943 -13.603   4.421  1.00  0.00     0.164 HD
ENDROOT
BRANCH  10  15
HETATM   15  C   UNL     1      40.544 -14.252   2.366  1.00  0.00     0.020 A 
HETATM   16  C   UNL     1      41.331 -13.077   2.329  1.00  0.00     0.085 A 
HETATM   17  C   UNL     1      41.454 -12.352   1.139  1.00  0.00     0.039 A 
HETATM   18  C   UNL     1      40.832 -12.800  -0.028  1.00  0.00     0.022 A 
HETATM   19  C   UNL     1      40.098 -13.979  -0.013  1.00  0.00     0.011 A 
HETATM   20 BR   UNL     1      39.273 -14.592  -1.598  1.00  0.00    -0.051 Br
HETATM   21  C   UNL     1      39.958 -14.708   1.166  1.00  0.00     0.033 A 
BRANCH  16  22
HETATM   22  O   UNL     1      41.952 -12.750   3.506  1.00  0.00    -0.289 OA
BRANCH  22  23
HETATM   23  C   UNL     1      43.328 -12.386   3.455  1.00  0.00     0.505 C 
HETATM   24  F   UNL     1      43.820 -12.368   4.715  1.00  0.00    -0.184 F 
HETATM   25  F   UNL     1      43.963 -13.384   2.794  1.00  0.00    -0.184 F 
ENDBRANCH  22  23
ENDBRANCH  16  22
ENDBRANCH  10  15
BRANCH   8  26
HETATM   26  N   UNL     1      39.935 -12.770   6.523  1.00  0.00    -0.272 NA
HETATM   27  H   UNL     1      38.953 -12.688   6.264  1.00  0.00     0.127 HD
HETATM   28  H   UNL     1      40.378 -11.861   6.530  1.00  0.00     0.127 HD
ENDBRANCH   8  26
TORSDOF 4
ENDMDL
MODEL 2
REMARK VINA RESULT:      -8.1      3.489      5.028
REMARK  4 active torsions:
REMARK  status: ('A' for Active; 'I' for Inactive)
REMARK    1  A    between atoms: C_8  and  N_9 
REMARK    2  A    between atoms: C_11  and  C_12 
REMARK    3  A    between atoms: C_13  and  O_14 
REMARK    4  A    between atoms: O_14  and  C_15 
ROOT
HETATM    1  C   UNL     1      42.309 -15.650   1.165  1.00  0.00     0.002 A 
HETATM    2  C   UNL     1      43.184 -16.474   1.882  1.00  0.00     0.034 A 
HETATM    3  C   UNL     1      43.247 -16.337   3.276  1.00  0.00     0.103 A 
HETATM    4  C   UNL     1      42.444 -15.391   3.907  1.00  0.00     0.083 A 
HETATM    5  N   UNL     1      42.784 -15.525   5.225  1.00  0.00    -0.151 N 
HETATM    6  C   UNL     1      43.700 -16.536   5.370  1.00  0.00     0.734 A 
HETATM    7  N   UNL     1      44.169 -16.933   6.574  1.00  0.00    -0.033 NA
HETATM    8  C   UNL     1      43.674 -16.408   7.636  1.00  0.00     0.193 C 
HETATM    9  N   UNL     1      42.704 -15.401   7.647  1.00  0.00    -0.338 N 
HETATM   10  C   UNL     1      42.276 -14.813   6.379  1.00  0.00     0.246 C 
HETATM   11  N   UNL     1      44.009 -17.021   4.188  1.00  0.00    -0.060 NA
HETATM   12  C   UNL     1      41.559 -14.559   3.213  1.00  0.00     0.033 A 
HETATM   13  C   UNL     1      41.511 -14.711   1.823  1.00  0.00     0.002 A 
HETATM   14  H   UNL     1      42.382 -14.991   8.508  1.00  0.00     0.164 HD
ENDROOT
BRANCH  10  15
HETATM   15  C   UNL     1      42.657 -13.335   6.413  1.00  0.00     0.020 A 
HETATM   16  C   UNL     1      41.673 -12.358   6.129  1.00  0.00     0.085 A 
HETATM   17  C   UNL     1      42.014 -11.001   6.114  1.00  0.00     0.039 A 
HETATM   18  C   UNL     1      43.317 -10.598   6.413  1.00  0.00     0.022 A 
HETATM   19  C   UNL     1      44.278 -11.546   6.740  1.00  0.00     0.011 A 
HETATM   20 BR   UNL     1      46.036 -10.995   7.161  1.00  0.00    -0.051 Br
HETATM   21  C   UNL     1      43.957 -12.902   6.751  1.00  0.00     0.033 A 
BRANCH  16  22
HETATM   22  O   UNL     1      40.411 -12.845   5.910  1.00  0.00    -0.289 OA
BRANCH  22  23
HETATM   23  C   UNL     1      39.498 -12.028   5.184  1.00  0.00     0.505 C 
HETATM   24  F   UNL     1      38.966 -12.758   4.177  1.00  0.00    -0.184 F 
HETATM   25  F   UNL     1      38.489 -11.731   6.038  1.00  0.00    -0.184 F 
ENDBRANCH  22  23
ENDBRANCH  16  22
ENDBRANCH  10  15
BRANCH   8  26
HETATM   26  N   UNL     1      44.050 -16.773   8.879  1.00  0.00    -0.272 NA
HETATM   27  H   UNL     1      43.674 -16.129   9.572  1.00  0.00     0.127 HD
HETATM   28  H   UNL     1      45.042 -16.910   9.023  1.00  0.00     0.127 HD
ENDBRANCH   8  26
TORSDOF 4
ENDMDL
MODEL 3
REMARK VINA RESULT:      -7.8     15.281     16.908
REMARK  4 active torsions:
REMARK  status: ('A' for Active; 'I' for Inactive)
REMARK    1  A    between atoms: C_8  and  N_9 
REMARK    2  A    between atoms: C_11  and  C_12 
REMARK    3  A    between atoms: C_13  and  O_14 
REMARK    4  A    between atoms: O_14  and  C_15 
ROOT
HETATM    1  C   UNL     1      43.791 -33.918  -3.398  1.00  0.00     0.002 A 
HETATM    2  C   UNL     1      43.404 -34.151  -2.073  1.00  0.00     0.034 A 
HETATM    3  C   UNL     1      43.466 -33.090  -1.159  1.00  0.00     0.103 A 
HETATM    4  C   UNL     1      43.909 -31.842  -1.587  1.00  0.00     0.083 A 
HETATM    5  N   UNL     1      43.860 -31.087  -0.448  1.00  0.00    -0.151 N 
HETATM    6  C   UNL     1      43.360 -31.836   0.587  1.00  0.00     0.734 A 
HETATM    7  N   UNL     1      43.141 -31.328   1.821  1.00  0.00    -0.033 NA
HETATM    8  C   UNL     1      43.320 -30.072   2.015  1.00  0.00     0.193 C 
HETATM    9  N   UNL     1      43.782 -29.176   1.046  1.00  0.00    -0.338 N 
HETATM   10  C   UNL     1      44.194 -29.691  -0.259  1.00  0.00     0.246 C 
HETATM   11  N   UNL     1      43.140 -33.065   0.174  1.00  0.00    -0.060 NA
HETATM   12  C   UNL     1      44.299 -31.584  -2.906  1.00  0.00     0.033 A 
HETATM   13  C   UNL     1      44.229 -32.655  -3.804  1.00  0.00     0.002 A 
HETATM   14  H   UNL     1      43.949 -28.208   1.263  1.00  0.00     0.164 HD
ENDROOT
BRANCH  10  15
HETATM   15  C   UNL     1      45.681 -29.382  -0.419  1.00  0.00     0.020 A 
HETATM   16  C   UNL     1      46.098 -28.490  -1.436  1.00  0.00     0.085 A 
HETATM   17  C   UNL     1      47.460 -28.229  -1.625  1.00  0.00     0.039 A 
HETATM   18  C   UNL     1      48.414 -28.816  -0.792  1.00  0.00     0.022 A 
HETATM   19  C   UNL     1      48.010 -29.655   0.240  1.00  0.00     0.011 A 
HETATM   20 BR   UNL     1      49.303 -30.434   1.376  1.00  0.00    -0.051 Br
HETATM   21  C   UNL     1      46.659 -29.933   0.436  1.00  0.00     0.033 A 
BRANCH  16  22
HETATM   22  O   UNL     1      45.088 -27.915  -2.161  1.00  0.00    -0.289 OA
BRANCH  22  23
HETATM   23  C   UNL     1      45.042 -28.173  -3.561  1.00  0.00     0.505 C 
HETATM   24  F   UNL     1      43.810 -28.633  -3.879  1.00  0.00    -0.184 F 
HETATM   25  F   UNL     1      45.191 -26.975  -4.176  1.00  0.00    -0.184 F 
ENDBRANCH  22  23
ENDBRANCH  16  22
ENDBRANCH  10  15
BRANCH   8  26
HETATM   26  N   UNL     1      43.085 -29.472   3.200  1.00  0.00    -0.272 NA
HETATM   27  H   UNL     1      43.814 -29.707   3.872  1.00  0.00     0.127 HD
HETATM   28  H   UNL     1      42.169 -29.622   3.602  1.00  0.00     0.127 HD
ENDBRANCH   8  26
TORSDOF 4
ENDMDL
MODEL 4
REMARK VINA RESULT:      -7.8      3.617      4.688
REMARK  4 active torsions:
REMARK  status: ('A' for Active; 'I' for Inactive)
REMARK    1  A    between atoms: C_8  and  N_9 
REMARK    2  A    between atoms: C_11  and  C_12 
REMARK    3  A    between atoms: C_13  and  O_14 
REMARK    4  A    between atoms: O_14  and  C_15 
ROOT
HETATM    1  C   UNL     1      43.305 -16.007   2.846  1.00  0.00     0.002 A 
HETATM    2  C   UNL     1      42.962 -14.993   3.747  1.00  0.00     0.034 A 
HETATM    3  C   UNL     1      41.954 -14.088   3.389  1.00  0.00     0.103 A 
HETATM    4  C   UNL     1      41.324 -14.218   2.155  1.00  0.00     0.083 A 
HETATM    5  N   UNL     1      40.441 -13.174   2.145  1.00  0.00    -0.151 N 
HETATM    6  C   UNL     1      40.507 -12.495   3.335  1.00  0.00     0.734 A 
HETATM    7  N   UNL     1      39.699 -11.453   3.630  1.00  0.00    -0.033 NA
HETATM    8  C   UNL     1      38.768 -11.136   2.805  1.00  0.00     0.193 C 
HETATM    9  N   UNL     1      38.551 -11.764   1.575  1.00  0.00    -0.338 N 
HETATM   10  C   UNL     1      39.490 -12.788   1.123  1.00  0.00     0.246 C 
HETATM   11  N   UNL     1      41.442 -13.026   4.092  1.00  0.00    -0.060 NA
HETATM   12  C   UNL     1      41.646 -15.225   1.238  1.00  0.00     0.033 A 
HETATM   13  C   UNL     1      42.655 -16.119   1.614  1.00  0.00     0.002 A 
HETATM   14  H   UNL     1      37.834 -11.446   0.943  1.00  0.00     0.164 HD
ENDROOT
BRANCH  10  15
HETATM   15  C   UNL     1      40.136 -12.275  -0.163  1.00  0.00     0.020 A 
HETATM   16  C   UNL     1      40.067 -13.064  -1.335  1.00  0.00     0.085 A 
HETATM   17  C   UNL     1      40.689 -12.631  -2.511  1.00  0.00     0.039 A 
HETATM   18  C   UNL     1      41.352 -11.402  -2.547  1.00  0.00     0.022 A 
HETATM   19  C   UNL     1      41.383 -10.598  -1.414  1.00  0.00     0.011 A 
HETATM   20 BR   UNL     1      42.265  -8.929  -1.472  1.00  0.00    -0.051 Br
HETATM   21  C   UNL     1      40.776 -11.020  -0.233  1.00  0.00     0.033 A 
BRANCH  16  22
HETATM   22  O   UNL     1      39.343 -14.222  -1.220  1.00  0.00    -0.289 OA
BRANCH  22  23
HETATM   23  C   UNL     1      38.894 -14.849  -2.418  1.00  0.00     0.505 C 
HETATM   24  F   UNL     1      38.658 -16.156  -2.163  1.00  0.00    -0.184 F 
HETATM   25  F   UNL     1      37.702 -14.281  -2.722  1.00  0.00    -0.184 F 
ENDBRANCH  22  23
ENDBRANCH  16  22
ENDBRANCH  10  15
BRANCH   8  26
HETATM   26  N   UNL     1      37.890 -10.139   3.037  1.00  0.00    -0.272 NA
HETATM   27  H   UNL     1      37.653  -9.660   2.169  1.00  0.00     0.127 HD
HETATM   28  H   UNL     1      38.151  -9.471   3.751  1.00  0.00     0.127 HD
ENDBRANCH   8  26
TORSDOF 4
ENDMDL
MODEL 5
REMARK VINA RESULT:      -7.8      3.040      4.488
REMARK  4 active torsions:
REMARK  status: ('A' for Active; 'I' for Inactive)
REMARK    1  A    between atoms: C_8  and  N_9 
REMARK    2  A    between atoms: C_11  and  C_12 
REMARK    3  A    between atoms: C_13  and  O_14 
REMARK    4  A    between atoms: O_14  and  C_15 
ROOT
HETATM    1  C   UNL     1      43.429 -17.319   6.955  1.00  0.00     0.002 A 
HETATM    2  C   UNL     1      42.653 -17.531   5.809  1.00  0.00     0.034 A 
HETATM    3  C   UNL     1      42.494 -16.475   4.900  1.00  0.00     0.103 A 
HETATM    4  C   UNL     1      43.106 -15.252   5.159  1.00  0.00     0.083 A 
HETATM    5  N   UNL     1      42.719 -14.480   4.097  1.00  0.00    -0.151 N 
HETATM    6  C   UNL     1      41.962 -15.227   3.230  1.00  0.00     0.734 A 
HETATM    7  N   UNL     1      41.494 -14.738   2.059  1.00  0.00    -0.033 NA
HETATM    8  C   UNL     1      41.844 -13.558   1.695  1.00  0.00     0.193 C 
HETATM    9  N   UNL     1      42.646 -12.699   2.453  1.00  0.00    -0.338 N 
HETATM   10  C   UNL     1      43.047 -13.103   3.798  1.00  0.00     0.246 C 
HETATM   11  N   UNL     1      41.797 -16.436   3.720  1.00  0.00    -0.060 NA
HETATM   12  C   UNL     1      43.890 -15.017   6.294  1.00  0.00     0.033 A 
HETATM   13  C   UNL     1      44.036 -16.083   7.189  1.00  0.00     0.002 A 
HETATM   14  H   UNL     1      42.853 -11.764   2.141  1.00  0.00     0.164 HD
ENDROOT
BRANCH  10  15
HETATM   15  C   UNL     1      42.443 -12.095   4.774  1.00  0.00     0.020 A 
HETATM   16  C   UNL     1      43.296 -11.209   5.473  1.00  0.00     0.085 A 
HETATM   17  C   UNL     1      42.764 -10.309   6.403  1.00  0.00     0.039 A 
HETATM   18  C   UNL     1      41.385 -10.252   6.620  1.00  0.00     0.022 A 
HETATM   19  C   UNL     1      40.536 -11.084   5.903  1.00  0.00     0.011 A 
HETATM   20 BR   UNL     1      38.670 -10.991   6.188  1.00  0.00    -0.051 Br
HETATM   21  C   UNL     1      41.051 -11.992   4.980  1.00  0.00     0.033 A 
BRANCH  16  22
HETATM   22  O   UNL     1      44.624 -11.296   5.148  1.00  0.00    -0.289 OA
BRANCH  22  23
HETATM   23  C   UNL     1      45.575 -11.253   6.208  1.00  0.00     0.505 C 
HETATM   24  F   UNL     1      45.251 -12.196   7.121  1.00  0.00    -0.184 F 
HETATM   25  F   UNL     1      46.765 -11.612   5.668  1.00  0.00    -0.184 F 
ENDBRANCH  22  23
ENDBRANCH  16  22
ENDBRANCH  10  15
BRANCH   8  26
HETATM   26  N   UNL     1      41.461 -13.008   0.526  1.00  0.00    -0.272 NA
HETATM   27  H   UNL     1      41.535 -13.685  -0.232  1.00  0.00     0.127 HD
HETATM   28  H   UNL     1      41.913 -12.140   0.271  1.00  0.00     0.127 HD
ENDBRANCH   8  26
TORSDOF 4
ENDMDL
MODEL 6
REMARK VINA RESULT:      -7.7      4.044      5.659
REMARK  4 active torsions:
REMARK  status: ('A' for Active; 'I' for Inactive)
REMARK    1  A    between atoms: C_8  and  N_9 
REMARK    2  A    between atoms: C_11  and  C_12 
REMARK    3  A    between atoms: C_13  and  O_14 
REMARK    4  A    between atoms: O_14  and  C_15 
ROOT
HETATM    1  C   UNL     1      42.077 -16.425   6.870  1.00  0.00     0.002 A 
HETATM    2  C   UNL     1      41.471 -16.157   5.637  1.00  0.00     0.034 A 
HETATM    3  C   UNL     1      41.707 -14.918   5.027  1.00  0.00     0.103 A 
HETATM    4  C   UNL     1      42.531 -13.991   5.658  1.00  0.00     0.083 A 
HETATM    5  N   UNL     1      42.508 -12.922   4.804  1.00  0.00    -0.151 N 
HETATM    6  C   UNL     1      41.754 -13.224   3.699  1.00  0.00     0.734 A 
HETATM    7  N   UNL     1      41.608 -12.375   2.657  1.00  0.00    -0.033 NA
HETATM    8  C   UNL     1      42.272 -11.277   2.654  1.00  0.00     0.193 C 
HETATM    9  N   UNL     1      43.113 -10.855   3.688  1.00  0.00    -0.338 N 
HETATM   10  C   UNL     1      43.186 -11.648   4.913  1.00  0.00     0.246 C 
HETATM   11  N   UNL     1      41.240 -14.427   3.834  1.00  0.00    -0.060 NA
HETATM   12  C   UNL     1      43.151 -14.236   6.889  1.00  0.00     0.033 A 
HETATM   13  C   UNL     1      42.902 -15.479   7.481  1.00  0.00     0.002 A 
HETATM   14  H   UNL     1      43.576  -9.961   3.656  1.00  0.00     0.164 HD
ENDROOT
BRANCH  10  15
HETATM   15  C   UNL     1      42.676 -10.769   6.053  1.00  0.00     0.020 A 
HETATM   16  C   UNL     1      43.455 -10.632   7.226  1.00  0.00     0.085 A 
HETATM   17  C   UNL     1      42.984  -9.865   8.298  1.00  0.00     0.039 A 
HETATM   18  C   UNL     1      41.759  -9.202   8.205  1.00  0.00     0.022 A 
HETATM   19  C   UNL     1      41.009  -9.291   7.038  1.00  0.00     0.011 A 
HETATM   20 BR   UNL     1      39.360  -8.377   6.910  1.00  0.00    -0.051 Br
HETATM   21  C   UNL     1      41.460 -10.057   5.966  1.00  0.00     0.033 A 
BRANCH  16  22
HETATM   22  O   UNL     1      44.669 -11.268   7.200  1.00  0.00    -0.289 OA
BRANCH  22  23
HETATM   23  C   UNL     1      45.815 -10.535   7.623  1.00  0.00     0.505 C 
HETATM   24  F   UNL     1      45.998 -10.740   8.948  1.00  0.00    -0.184 F 
HETATM   25  F   UNL     1      46.876 -11.084   6.985  1.00  0.00    -0.184 F 
ENDBRANCH  22  23
ENDBRANCH  16  22
ENDBRANCH  10  15
BRANCH   8  26
HETATM   26  N   UNL     1      42.221 -10.392   1.638  1.00  0.00    -0.272 NA
HETATM   27  H   UNL     1      43.039 -10.486   1.038  1.00  0.00     0.127 HD
HETATM   28  H   UNL     1      42.079  -9.424   1.896  1.00  0.00     0.127 HD
ENDBRANCH   8  26
TORSDOF 4
ENDMDL
MODEL 7
REMARK VINA RESULT:      -7.6      4.274      6.962
REMARK  4 active torsions:
REMARK  status: ('A' for Active; 'I' for Inactive)
REMARK    1  A    between atoms: C_8  and  N_9 
REMARK    2  A    between atoms: C_11  and  C_12 
REMARK    3  A    between atoms: C_13  and  O_14 
REMARK    4  A    between atoms: O_14  and  C_15 
ROOT
HETATM    1  C   UNL     1      42.074  -8.716  -1.119  1.00  0.00     0.002 A 
HETATM    2  C   UNL     1      42.046  -9.585  -2.216  1.00  0.00     0.034 A 
HETATM    3  C   UNL     1      41.329 -10.785  -2.105  1.00  0.00     0.103 A 
HETATM    4  C   UNL     1      40.670 -11.080  -0.915  1.00  0.00     0.083 A 
HETATM    5  N   UNL     1      40.118 -12.307  -1.162  1.00  0.00    -0.151 N 
HETATM    6  C   UNL     1      40.391 -12.691  -2.450  1.00  0.00     0.734 A 
HETATM    7  N   UNL     1      39.916 -13.835  -2.991  1.00  0.00    -0.033 NA
HETATM    8  C   UNL     1      39.100 -14.552  -2.306  1.00  0.00     0.193 C 
HETATM    9  N   UNL     1      38.696 -14.266  -0.999  1.00  0.00    -0.338 N 
HETATM   10  C   UNL     1      39.301 -13.134  -0.300  1.00  0.00     0.246 C 
HETATM   11  N   UNL     1      41.150 -11.785  -3.027  1.00  0.00    -0.060 NA
HETATM   12  C   UNL     1      40.680 -10.227   0.193  1.00  0.00     0.033 A 
HETATM   13  C   UNL     1      41.400  -9.034   0.062  1.00  0.00     0.002 A 
HETATM   14  H   UNL     1      38.089 -14.887  -0.489  1.00  0.00     0.164 HD
ENDROOT
BRANCH  10  15
HETATM   15  C   UNL     1      40.045 -13.694   0.910  1.00  0.00     0.020 A 
HETATM   16  C   UNL     1      39.662 -13.286   2.210  1.00  0.00     0.085 A 
HETATM   17  C   UNL     1      40.360 -13.756   3.328  1.00  0.00     0.039 A 
HETATM   18  C   UNL     1      41.416 -14.657   3.173  1.00  0.00     0.022 A 
HETATM   19  C   UNL     1      41.768 -15.100   1.904  1.00  0.00     0.011 A 
HETATM   20 BR   UNL     1      43.185 -16.333   1.701  1.00  0.00    -0.051 Br
HETATM   21  C   UNL     1      41.088 -14.636   0.781  1.00  0.00     0.033 A 
BRANCH  16  22
HETATM   22  O   UNL     1      38.577 -12.451   2.266  1.00  0.00    -0.289 OA
BRANCH  22  23
HETATM   23  C   UNL     1      38.654 -11.314   3.120  1.00  0.00     0.505 C 
HETATM   24  F   UNL     1      39.932 -10.871   3.141  1.00  0.00    -0.184 F 
HETATM   25  F   UNL     1      37.907 -10.346   2.536  1.00  0.00    -0.184 F 
ENDBRANCH  22  23
ENDBRANCH  16  22
ENDBRANCH  10  15
BRANCH   8  26
HETATM   26  N   UNL     1      38.544 -15.686  -2.781  1.00  0.00    -0.272 NA
HETATM   27  H   UNL     1      37.715 -15.474  -3.334  1.00  0.00     0.127 HD
HETATM   28  H   UNL     1      38.342 -16.404  -2.098  1.00  0.00     0.127 HD
ENDBRANCH   8  26
TORSDOF 4
ENDMDL
MODEL 8
REMARK VINA RESULT:      -7.3      7.957     10.747
REMARK  4 active torsions:
REMARK  status: ('A' for Active; 'I' for Inactive)
REMARK    1  A    between atoms: C_8  and  N_9 
REMARK    2  A    between atoms: C_11  and  C_12 
REMARK    3  A    between atoms: C_13  and  O_14 
REMARK    4  A    between atoms: O_14  and  C_15 
ROOT
HETATM    1  C   UNL     1      41.426  -3.816  11.571  1.00  0.00     0.002 A 
HETATM    2  C   UNL     1      40.370  -4.466  12.220  1.00  0.00     0.034 A 
HETATM    3  C   UNL     1      40.367  -5.867  12.261  1.00  0.00     0.103 A 
HETATM    4  C   UNL     1      41.405  -6.572  11.658  1.00  0.00     0.083 A 
HETATM    5  N   UNL     1      41.060  -7.878  11.872  1.00  0.00    -0.151 N 
HETATM    6  C   UNL     1      39.906  -7.941  12.612  1.00  0.00     0.734 A 
HETATM    7  N   UNL     1      39.364  -9.107  13.028  1.00  0.00    -0.033 NA
HETATM    8  C   UNL     1      39.999 -10.200  12.803  1.00  0.00     0.193 C 
HETATM    9  N   UNL     1      41.205 -10.289  12.102  1.00  0.00    -0.338 N 
HETATM   10  C   UNL     1      41.758  -9.085  11.485  1.00  0.00     0.246 C 
HETATM   11  N   UNL     1      39.460  -6.723  12.833  1.00  0.00    -0.060 NA
HETATM   12  C   UNL     1      42.473  -5.945  11.006  1.00  0.00     0.033 A 
HETATM   13  C   UNL     1      42.458  -4.546  10.976  1.00  0.00     0.002 A 
HETATM   14  H   UNL     1      41.638 -11.178  11.913  1.00  0.00     0.164 HD
ENDROOT
BRANCH  10  15
HETATM   15  C   UNL     1      41.793  -9.325   9.977  1.00  0.00     0.020 A 
HETATM   16  C   UNL     1      42.920  -9.959   9.401  1.00  0.00     0.085 A 
HETATM   17  C   UNL     1      42.988 -10.148   8.016  1.00  0.00     0.039 A 
HETATM   18  C   UNL     1      41.932  -9.745   7.196  1.00  0.00     0.022 A 
HETATM   19  C   UNL     1      40.801  -9.165   7.758  1.00  0.00     0.011 A 
HETATM   20 BR   UNL     1      39.367  -8.637   6.646  1.00  0.00    -0.051 Br
HETATM   21  C   UNL     1      40.721  -8.962   9.134  1.00  0.00     0.033 A 
BRANCH  16  22
HETATM   22  O   UNL     1      43.875 -10.375  10.290  1.00  0.00    -0.289 OA
BRANCH  22  23
HETATM   23  C   UNL     1      45.178  -9.811  10.182  1.00  0.00     0.505 C 
HETATM   24  F   UNL     1      45.865 -10.479   9.227  1.00  0.00    -0.184 F 
HETATM   25  F   UNL     1      45.009  -8.542   9.736  1.00  0.00    -0.184 F 
ENDBRANCH  22  23
ENDBRANCH  16  22
ENDBRANCH  10  15
BRANCH   8  26
HETATM   26  N   UNL     1      39.555 -11.404  13.218  1.00  0.00    -0.272 NA
HETATM   27  H   UNL     1      38.854 -11.295  13.950  1.00  0.00     0.127 HD
HETATM   28  H   UNL     1      40.263 -12.068  13.501  1.00  0.00     0.127 HD
ENDBRANCH   8  26
TORSDOF 4
ENDMDL
MODEL 9
REMARK VINA RESULT:      -7.3      3.514      4.958
REMARK  4 active torsions:
REMARK  status: ('A' for Active; 'I' for Inactive)
REMARK    1  A    between atoms: C_8  and  N_9 
REMARK    2  A    between atoms: C_11  and  C_12 
REMARK    3  A    between atoms: C_13  and  O_14 
REMARK    4  A    between atoms: O_14  and  C_15 
ROOT
HETATM    1  C   UNL     1      42.116 -16.616   3.312  1.00  0.00     0.002 A 
HETATM    2  C   UNL     1      41.420 -16.158   2.187  1.00  0.00     0.034 A 
HETATM    3  C   UNL     1      41.445 -14.787   1.893  1.00  0.00     0.103 A 
HETATM    4  C   UNL     1      42.154 -13.922   2.722  1.00  0.00     0.083 A 
HETATM    5  N   UNL     1      41.935 -12.698   2.152  1.00  0.00    -0.151 N 
HETATM    6  C   UNL     1      41.181 -12.840   1.015  1.00  0.00     0.734 A 
HETATM    7  N   UNL     1      40.864 -11.800   0.211  1.00  0.00    -0.033 NA
HETATM    8  C   UNL     1      41.360 -10.644   0.468  1.00  0.00     0.193 C 
HETATM    9  N   UNL     1      42.179 -10.357   1.564  1.00  0.00    -0.338 N 
HETATM   10  C   UNL     1      42.424 -11.398   2.560  1.00  0.00     0.246 C 
HETATM   11  N   UNL     1      40.855 -14.104   0.860  1.00  0.00    -0.060 NA
HETATM   12  C   UNL     1      42.860 -14.356   3.849  1.00  0.00     0.033 A 
HETATM   13  C   UNL     1      42.824 -15.727   4.125  1.00  0.00     0.002 A 
HETATM   14  H   UNL     1      42.504  -9.421   1.745  1.00  0.00     0.164 HD
ENDROOT
BRANCH  10  15
HETATM   15  C   UNL     1      41.846 -10.904   3.884  1.00  0.00     0.020 A 
HETATM   16  C   UNL     1      42.683 -10.831   5.022  1.00  0.00     0.085 A 
HETATM   17  C   UNL     1      42.160 -10.422   6.254  1.00  0.00     0.039 A 
HETATM   18  C   UNL     1      40.819 -10.049   6.362  1.00  0.00     0.022 A 
HETATM   19  C   UNL     1      40.001 -10.071   5.239  1.00  0.00     0.011 A 
HETATM   20 BR   UNL     1      38.191  -9.548   5.385  1.00  0.00    -0.051 Br
HETATM   21  C   UNL     1      40.504 -10.484   4.007  1.00  0.00     0.033 A 
BRANCH  16  22
HETATM   22  O   UNL     1      43.996 -11.156   4.805  1.00  0.00    -0.289 OA
BRANCH  22  23
HETATM   23  C   UNL     1      44.817 -11.411   5.941  1.00  0.00     0.505 C 
HETATM   24  F   UNL     1      44.586 -12.672   6.372  1.00  0.00    -0.184 F 
HETATM   25  F   UNL     1      46.099 -11.367   5.504  1.00  0.00    -0.184 F 
ENDBRANCH  22  23
ENDBRANCH  16  22
ENDBRANCH  10  15
BRANCH   8  26
HETATM   26  N   UNL     1      41.132  -9.561  -0.303  1.00  0.00    -0.272 NA
HETATM   27  H   UNL     1      41.655  -8.758   0.042  1.00  0.00     0.127 HD
HETATM   28  H   UNL     1      40.162  -9.316  -0.452  1.00  0.00     0.127 HD
ENDBRANCH   8  26
TORSDOF 4
ENDMDL
MODEL 10
REMARK VINA RESULT:      -7.2      3.552      5.917
REMARK  4 active torsions:
REMARK  status: ('A' for Active; 'I' for Inactive)
REMARK    1  A    between atoms: C_8  and  N_9 
REMARK    2  A    between atoms: C_11  and  C_12 
REMARK    3  A    between atoms: C_13  and  O_14 
REMARK    4  A    between atoms: O_14  and  C_15 
ROOT
HETATM    1  C   UNL     1      40.444 -10.092   0.711  1.00  0.00     0.002 A 
HETATM    2  C   UNL     1      39.284 -10.023   1.493  1.00  0.00     0.034 A 
HETATM    3  C   UNL     1      39.387 -10.264   2.870  1.00  0.00     0.103 A 
HETATM    4  C   UNL     1      40.629 -10.564   3.422  1.00  0.00     0.083 A 
HETATM    5  N   UNL     1      40.343 -10.756   4.746  1.00  0.00    -0.151 N 
HETATM    6  C   UNL     1      39.010 -10.526   4.973  1.00  0.00     0.734 A 
HETATM    7  N   UNL     1      38.457 -10.580   6.206  1.00  0.00    -0.033 NA
HETATM    8  C   UNL     1      39.221 -10.764   7.221  1.00  0.00     0.193 C 
HETATM    9  N   UNL     1      40.602 -10.969   7.149  1.00  0.00    -0.338 N 
HETATM   10  C   UNL     1      41.235 -11.087   5.837  1.00  0.00     0.246 C 
HETATM   11  N   UNL     1      38.412 -10.250   3.835  1.00  0.00    -0.060 NA
HETATM   12  C   UNL     1      41.802 -10.635   2.663  1.00  0.00     0.033 A 
HETATM   13  C   UNL     1      41.679 -10.392   1.290  1.00  0.00     0.002 A 
HETATM   14  H   UNL     1      41.148 -11.156   7.973  1.00  0.00     0.164 HD
ENDROOT
BRANCH  10  15
HETATM   15  C   UNL     1      41.834 -12.489   5.746  1.00  0.00     0.020 A 
HETATM   16  C   UNL     1      43.079 -12.753   6.364  1.00  0.00     0.085 A 
HETATM   17  C   UNL     1      43.663 -14.020   6.254  1.00  0.00     0.039 A 
HETATM   18  C   UNL     1      43.005 -15.042   5.566  1.00  0.00     0.022 A 
HETATM   19  C   UNL     1      41.760 -14.806   4.998  1.00  0.00     0.011 A 
HETATM   20 BR   UNL     1      40.866 -16.197   4.083  1.00  0.00    -0.051 Br
HETATM   21  C   UNL     1      41.169 -13.547   5.090  1.00  0.00     0.033 A 
BRANCH  16  22
HETATM   22  O   UNL     1      43.617 -11.708   7.068  1.00  0.00    -0.289 OA
BRANCH  22  23
HETATM   23  C   UNL     1      45.035 -11.629   7.165  1.00  0.00     0.505 C 
HETATM   24  F   UNL     1      45.519 -11.067   6.035  1.00  0.00    -0.184 F 
HETATM   25  F   UNL     1      45.302 -10.774   8.182  1.00  0.00    -0.184 F 
ENDBRANCH  22  23
ENDBRANCH  16  22
ENDBRANCH  10  15
BRANCH   8  26
HETATM   26  N   UNL     1      38.762 -10.790   8.489  1.00  0.00    -0.272 NA
HETATM   27  H   UNL     1      37.849 -10.342   8.549  1.00  0.00     0.127 HD
HETATM   28  H   UNL     1      39.384 -10.423   9.197  1.00  0.00     0.127 HD
ENDBRANCH   8  26
TORSDOF 4
ENDMDL
