MODEL 1
REMARK VINA RESULT:      -8.0      0.000      0.000
REMARK  4 active torsions:
REMARK  status: ('A' for Active; 'I' for Inactive)
REMARK    1  A    between atoms: C_3  and  N_4 
REMARK       I    between atoms: N_4  and  C_5 
REMARK    2  A    between atoms: C_5  and  C_6 
REMARK    3  A    between atoms: C_14  and  C_15 
REMARK       I    between atoms: C_15  and  N_16 
REMARK    4  A    between atoms: N_16  and  C_17 
ROOT
HETATM    1  C   UNL     1      42.544 -11.011   3.782  1.00  0.00     0.003 A 
HETATM    2  C   UNL     1      42.738 -10.519   5.077  1.00  0.00     0.029 A 
HETATM    3  C   UNL     1      42.761 -11.386   6.171  1.00  0.00     0.036 A 
HETATM    4  C   UNL     1      42.587 -12.757   5.956  1.00  0.00     0.046 A 
HETATM    5  C   UNL     1      42.372 -13.251   4.662  1.00  0.00     0.034 A 
HETATM    6  C   UNL     1      42.360 -12.377   3.570  1.00  0.00     0.017 A 
ENDROOT
BRANCH   5   7
HETATM    7  C   UNL     1      42.182 -14.714   4.482  1.00  0.00     0.257 C 
HETATM    8  N   UNL     1      43.230 -15.355   3.867  1.00  0.00    -0.307 N 
HETATM    9  H   UNL     1      43.987 -14.813   3.473  1.00  0.00     0.170 HD
HETATM   10  O   UNL     1      41.127 -15.220   4.846  1.00  0.00    -0.267 OA
BRANCH   8  11
HETATM   11  C   UNL     1      43.365 -16.714   3.591  1.00  0.00     0.130 A 
HETATM   12  N   UNL     1      44.034 -17.391   4.550  1.00  0.00    -0.242 NA
HETATM   13  C   UNL     1      44.212 -18.723   4.363  1.00  0.00     0.142 A 
HETATM   14  C   UNL     1      43.738 -19.419   3.264  1.00  0.00     0.051 A 
HETATM   15 CL   UNL     1      44.000 -21.105   3.103  1.00  0.00    -0.083 Cl
HETATM   16  C   UNL     1      43.043 -18.710   2.295  1.00  0.00     0.029 A 
HETATM   17  C   UNL     1      42.853 -17.337   2.459  1.00  0.00     0.052 A 
ENDBRANCH   8  11
ENDBRANCH   5   7
BRANCH   3  18
HETATM   18  N   UNL     1      42.938 -10.963   7.499  1.00  0.00    -0.322 N 
HETATM   19  C   UNL     1      44.085 -10.989   8.268  1.00  0.00     0.276 C 
HETATM   20  O   UNL     1      45.182 -11.424   7.936  1.00  0.00    -0.266 OA
HETATM   21  H   UNL     1      42.138 -10.567   7.990  1.00  0.00     0.169 HD
BRANCH  19  22
HETATM   22  C   UNL     1      43.857 -10.407   9.604  1.00  0.00     0.146 A 
HETATM   23  N   UNL     1      43.815 -11.173  10.718  1.00  0.00    -0.170 NA
HETATM   24  N   UNL     1      43.579 -10.294  11.709  1.00  0.00    -0.289 N 
HETATM   25  H   UNL     1      43.501 -10.646  12.657  1.00  0.00     0.188 HD
HETATM   26  C   UNL     1      43.475  -9.004  11.283  1.00  0.00     0.112 A 
HETATM   27  C   UNL     1      43.650  -9.040   9.921  1.00  0.00     0.058 A 
ENDBRANCH  19  22
ENDBRANCH   3  18
TORSDOF 4
ENDMDL
MODEL 2
REMARK VINA RESULT:      -7.8      2.906      4.063
REMARK  4 active torsions:
REMARK  status: ('A' for Active; 'I' for Inactive)
REMARK    1  A    between atoms: C_3  and  N_4 
REMARK       I    between atoms: N_4  and  C_5 
REMARK    2  A    between atoms: C_5  and  C_6 
REMARK    3  A    between atoms: C_14  and  C_15 
REMARK       I    between atoms: C_15  and  N_16 
REMARK    4  A    between atoms: N_16  and  C_17 
ROOT
HETATM    1  C   UNL     1      46.399 -10.564   7.713  1.00  0.00     0.003 A 
HETATM    2  C   UNL     1      45.575 -10.244   8.797  1.00  0.00     0.029 A 
HETATM    3  C   UNL     1      44.197 -10.458   8.729  1.00  0.00     0.036 A 
HETATM    4  C   UNL     1      43.649 -11.000   7.561  1.00  0.00     0.046 A 
HETATM    5  C   UNL     1      44.471 -11.303   6.467  1.00  0.00     0.034 A 
HETATM    6  C   UNL     1      45.852 -11.094   6.546  1.00  0.00     0.017 A 
ENDROOT
BRANCH   5   7
HETATM    7  C   UNL     1      43.845 -11.868   5.243  1.00  0.00     0.257 C 
HETATM    8  N   UNL     1      43.157 -13.040   5.441  1.00  0.00    -0.307 N 
HETATM    9  H   UNL     1      43.211 -13.507   6.336  1.00  0.00     0.170 HD
HETATM   10  O   UNL     1      44.013 -11.290   4.176  1.00  0.00    -0.267 OA
BRANCH   8  11
HETATM   11  C   UNL     1      42.442 -13.787   4.507  1.00  0.00     0.130 A 
HETATM   12  N   UNL     1      41.208 -13.293   4.259  1.00  0.00    -0.242 NA
HETATM   13  C   UNL     1      40.440 -13.959   3.361  1.00  0.00     0.142 A 
HETATM   14  C   UNL     1      40.852 -15.094   2.682  1.00  0.00     0.051 A 
HETATM   15 CL   UNL     1      39.824 -15.875   1.556  1.00  0.00    -0.083 Cl
HETATM   16  C   UNL     1      42.126 -15.579   2.940  1.00  0.00     0.029 A 
HETATM   17  C   UNL     1      42.935 -14.918   3.867  1.00  0.00     0.052 A 
ENDBRANCH   8  11
ENDBRANCH   5   7
BRANCH   3  18
HETATM   18  N   UNL     1      43.306 -10.150   9.771  1.00  0.00    -0.322 N 
HETATM   19  C   UNL     1      43.325 -10.585  11.082  1.00  0.00     0.276 C 
HETATM   20  O   UNL     1      44.127 -11.365  11.584  1.00  0.00    -0.266 OA
HETATM   21  H   UNL     1      42.536  -9.513   9.574  1.00  0.00     0.169 HD
BRANCH  19  22
HETATM   22  C   UNL     1      42.230  -9.989  11.869  1.00  0.00     0.146 A 
HETATM   23  N   UNL     1      40.997  -9.801  11.348  1.00  0.00    -0.170 NA
HETATM   24  N   UNL     1      40.302  -9.234  12.351  1.00  0.00    -0.289 N 
HETATM   25  H   UNL     1      39.330  -8.993  12.189  1.00  0.00     0.188 HD
HETATM   26  C   UNL     1      41.030  -9.056  13.489  1.00  0.00     0.112 A 
HETATM   27  C   UNL     1      42.288  -9.536  13.212  1.00  0.00     0.058 A 
ENDBRANCH  19  22
ENDBRANCH   3  18
TORSDOF 4
ENDMDL
MODEL 3
REMARK VINA RESULT:      -7.7      3.668      8.528
REMARK  4 active torsions:
REMARK  status: ('A' for Active; 'I' for Inactive)
REMARK    1  A    between atoms: C_3  and  N_4 
REMARK       I    between atoms: N_4  and  C_5 
REMARK    2  A    between atoms: C_5  and  C_6 
REMARK    3  A    between atoms: C_14  and  C_15 
REMARK       I    between atoms: C_15  and  N_16 
REMARK    4  A    between atoms: N_16  and  C_17 
ROOT
HETATM    1  C   UNL     1      40.438 -14.591   2.213  1.00  0.00     0.003 A 
HETATM    2  C   UNL     1      40.908 -15.878   2.495  1.00  0.00     0.029 A 
HETATM    3  C   UNL     1      42.021 -16.063   3.319  1.00  0.00     0.036 A 
HETATM    4  C   UNL     1      42.660 -14.943   3.860  1.00  0.00     0.046 A 
HETATM    5  C   UNL     1      42.203 -13.652   3.563  1.00  0.00     0.034 A 
HETATM    6  C   UNL     1      41.082 -13.475   2.745  1.00  0.00     0.017 A 
ENDROOT
BRANCH   5   7
HETATM    7  C   UNL     1      42.920 -12.491   4.154  1.00  0.00     0.257 C 
HETATM    8  N   UNL     1      43.242 -12.633   5.481  1.00  0.00    -0.307 N 
HETATM    9  H   UNL     1      42.886 -13.424   6.001  1.00  0.00     0.170 HD
HETATM   10  O   UNL     1      43.129 -11.510   3.450  1.00  0.00    -0.267 OA
BRANCH   8  11
HETATM   11  C   UNL     1      43.936 -11.743   6.298  1.00  0.00     0.130 A 
HETATM   12  N   UNL     1      43.128 -10.901   6.980  1.00  0.00    -0.242 NA
HETATM   13  C   UNL     1      43.720  -9.999   7.802  1.00  0.00     0.142 A 
HETATM   14  C   UNL     1      45.089  -9.904   7.987  1.00  0.00     0.051 A 
HETATM   15 CL   UNL     1      45.760  -8.738   9.049  1.00  0.00    -0.083 Cl
HETATM   16  C   UNL     1      45.903 -10.784   7.289  1.00  0.00     0.029 A 
HETATM   17  C   UNL     1      45.320 -11.718   6.430  1.00  0.00     0.052 A 
ENDBRANCH   8  11
ENDBRANCH   5   7
BRANCH   3  18
HETATM   18  N   UNL     1      42.557 -17.323   3.635  1.00  0.00    -0.322 N 
HETATM   19  C   UNL     1      43.326 -18.157   2.848  1.00  0.00     0.276 C 
HETATM   20  O   UNL     1      43.667 -17.962   1.687  1.00  0.00    -0.266 OA
HETATM   21  H   UNL     1      42.387 -17.699   4.567  1.00  0.00     0.169 HD
BRANCH  19  22
HETATM   22  C   UNL     1      43.726 -19.376   3.577  1.00  0.00     0.146 A 
HETATM   23  N   UNL     1      43.735 -20.591   2.984  1.00  0.00    -0.170 NA
HETATM   24  N   UNL     1      44.135 -21.426   3.960  1.00  0.00    -0.289 N 
HETATM   25  H   UNL     1      44.215 -22.415   3.746  1.00  0.00     0.188 HD
HETATM   26  C   UNL     1      44.388 -20.802   5.144  1.00  0.00     0.112 A 
HETATM   27  C   UNL     1      44.134 -19.469   4.932  1.00  0.00     0.058 A 
ENDBRANCH  19  22
ENDBRANCH   3  18
TORSDOF 4
ENDMDL
MODEL 4
REMARK VINA RESULT:      -7.7      5.029      9.397
REMARK  4 active torsions:
REMARK  status: ('A' for Active; 'I' for Inactive)
REMARK    1  A    between atoms: C_3  and  N_4 
REMARK       I    between atoms: N_4  and  C_5 
REMARK    2  A    between atoms: C_5  and  C_6 
REMARK    3  A    between atoms: C_14  and  C_15 
REMARK       I    between atoms: C_15  and  N_16 
REMARK    4  A    between atoms: N_16  and  C_17 
ROOT
HETATM    1  C   UNL     1      42.626 -16.193   3.034  1.00  0.00     0.003 A 
HETATM    2  C   UNL     1      41.874 -16.045   1.863  1.00  0.00     0.029 A 
HETATM    3  C   UNL     1      41.628 -14.778   1.331  1.00  0.00     0.036 A 
HETATM    4  C   UNL     1      42.146 -13.654   1.985  1.00  0.00     0.046 A 
HETATM    5  C   UNL     1      42.883 -13.798   3.168  1.00  0.00     0.034 A 
HETATM    6  C   UNL     1      43.133 -15.072   3.689  1.00  0.00     0.017 A 
ENDROOT
BRANCH   5   7
HETATM    7  C   UNL     1      43.405 -12.575   3.833  1.00  0.00     0.257 C 
HETATM    8  N   UNL     1      43.540 -12.678   5.196  1.00  0.00    -0.307 N 
HETATM    9  H   UNL     1      43.179 -13.492   5.674  1.00  0.00     0.170 HD
HETATM   10  O   UNL     1      43.633 -11.585   3.147  1.00  0.00    -0.267 OA
BRANCH   8  11
HETATM   11  C   UNL     1      44.031 -11.725   6.087  1.00  0.00     0.130 A 
HETATM   12  N   UNL     1      43.067 -10.929   6.600  1.00  0.00    -0.242 NA
HETATM   13  C   UNL     1      43.455  -9.970   7.479  1.00  0.00     0.142 A 
HETATM   14  C   UNL     1      44.766  -9.777   7.883  1.00  0.00     0.051 A 
HETATM   15 CL   UNL     1      45.175  -8.546   9.003  1.00  0.00    -0.083 Cl
HETATM   16  C   UNL     1      45.739 -10.612   7.355  1.00  0.00     0.029 A 
HETATM   17  C   UNL     1      45.368 -11.602   6.442  1.00  0.00     0.052 A 
ENDBRANCH   8  11
ENDBRANCH   5   7
BRANCH   3  18
HETATM   18  N   UNL     1      40.872 -14.551   0.169  1.00  0.00    -0.322 N 
HETATM   19  C   UNL     1      39.838 -13.656  -0.028  1.00  0.00     0.276 C 
HETATM   20  O   UNL     1      39.358 -12.895   0.803  1.00  0.00    -0.266 OA
HETATM   21  H   UNL     1      41.095 -15.092  -0.664  1.00  0.00     0.169 HD
BRANCH  19  22
HETATM   22  C   UNL     1      39.339 -13.700  -1.415  1.00  0.00     0.146 A 
HETATM   23  N   UNL     1      39.184 -12.578  -2.154  1.00  0.00    -0.170 NA
HETATM   24  N   UNL     1      38.707 -13.025  -3.330  1.00  0.00    -0.289 N 
HETATM   25  H   UNL     1      38.506 -12.348  -4.058  1.00  0.00     0.188 HD
HETATM   26  C   UNL     1      38.554 -14.378  -3.379  1.00  0.00     0.112 A 
HETATM   27  C   UNL     1      38.956 -14.850  -2.153  1.00  0.00     0.058 A 
ENDBRANCH  19  22
ENDBRANCH   3  18
TORSDOF 4
ENDMDL
MODEL 5
REMARK VINA RESULT:      -7.6      4.289      8.837
REMARK  4 active torsions:
REMARK  status: ('A' for Active; 'I' for Inactive)
REMARK    1  A    between atoms: C_3  and  N_4 
REMARK       I    between atoms: N_4  and  C_5 
REMARK    2  A    between atoms: C_5  and  C_6 
REMARK    3  A    between atoms: C_14  and  C_15 
REMARK       I    between atoms: C_15  and  N_16 
REMARK    4  A    between atoms: N_16  and  C_17 
ROOT
HETATM    1  C   UNL     1      43.270 -17.428   4.094  1.00  0.00     0.003 A 
HETATM    2  C   UNL     1      42.692 -16.966   2.906  1.00  0.00     0.029 A 
HETATM    3  C   UNL     1      42.342 -15.622   2.762  1.00  0.00     0.036 A 
HETATM    4  C   UNL     1      42.577 -14.740   3.822  1.00  0.00     0.046 A 
HETATM    5  C   UNL     1      43.138 -15.204   5.020  1.00  0.00     0.034 A 
HETATM    6  C   UNL     1      43.495 -16.550   5.153  1.00  0.00     0.017 A 
ENDROOT
BRANCH   5   7
HETATM    7  C   UNL     1      43.361 -14.233   6.123  1.00  0.00     0.257 C 
HETATM    8  N   UNL     1      43.788 -12.993   5.716  1.00  0.00    -0.307 N 
HETATM    9  H   UNL     1      44.038 -12.842   4.748  1.00  0.00     0.170 HD
HETATM   10  O   UNL     1      43.193 -14.606   7.278  1.00  0.00    -0.267 OA
BRANCH   8  11
HETATM   11  C   UNL     1      44.048 -11.871   6.501  1.00  0.00     0.130 A 
HETATM   12  N   UNL     1      42.951 -11.118   6.737  1.00  0.00    -0.242 NA
HETATM   13  C   UNL     1      43.113 -10.004   7.495  1.00  0.00     0.142 A 
HETATM   14  C   UNL     1      44.322  -9.612   8.043  1.00  0.00     0.051 A 
HETATM   15 CL   UNL     1      44.444  -8.192   8.996  1.00  0.00    -0.083 Cl
HETATM   16  C   UNL     1      45.435 -10.404   7.801  1.00  0.00     0.029 A 
HETATM   17  C   UNL     1      45.298 -11.552   7.017  1.00  0.00     0.052 A 
ENDBRANCH   8  11
ENDBRANCH   5   7
BRANCH   3  18
HETATM   18  N   UNL     1      41.747 -15.090   1.606  1.00  0.00    -0.322 N 
HETATM   19  C   UNL     1      40.406 -14.902   1.332  1.00  0.00     0.276 C 
HETATM   20  O   UNL     1      39.461 -15.200   2.054  1.00  0.00    -0.266 OA
HETATM   21  H   UNL     1      42.355 -14.777   0.851  1.00  0.00     0.169 HD
BRANCH  19  22
HETATM   22  C   UNL     1      40.203 -14.268   0.016  1.00  0.00     0.146 A 
HETATM   23  N   UNL     1      40.673 -13.031  -0.261  1.00  0.00    -0.170 NA
HETATM   24  N   UNL     1      40.282 -12.810  -1.529  1.00  0.00    -0.289 N 
HETATM   25  H   UNL     1      40.522 -11.924  -1.960  1.00  0.00     0.188 HD
HETATM   26  C   UNL     1      39.590 -13.847  -2.076  1.00  0.00     0.112 A 
HETATM   27  C   UNL     1      39.520 -14.813  -1.102  1.00  0.00     0.058 A 
ENDBRANCH  19  22
ENDBRANCH   3  18
TORSDOF 4
ENDMDL
MODEL 6
REMARK VINA RESULT:      -7.6      3.640      4.691
REMARK  4 active torsions:
REMARK  status: ('A' for Active; 'I' for Inactive)
REMARK    1  A    between atoms: C_3  and  N_4 
REMARK       I    between atoms: N_4  and  C_5 
REMARK    2  A    between atoms: C_5  and  C_6 
REMARK    3  A    between atoms: C_14  and  C_15 
REMARK       I    between atoms: C_15  and  N_16 
REMARK    4  A    between atoms: N_16  and  C_17 
ROOT
HETATM    1  C   UNL     1      43.510 -16.042   5.581  1.00  0.00     0.003 A 
HETATM    2  C   UNL     1      43.910 -15.062   6.497  1.00  0.00     0.029 A 
HETATM    3  C   UNL     1      43.417 -13.760   6.405  1.00  0.00     0.036 A 
HETATM    4  C   UNL     1      42.513 -13.445   5.384  1.00  0.00     0.046 A 
HETATM    5  C   UNL     1      42.126 -14.419   4.453  1.00  0.00     0.034 A 
HETATM    6  C   UNL     1      42.618 -15.725   4.558  1.00  0.00     0.017 A 
ENDROOT
BRANCH   5   7
HETATM    7  C   UNL     1      41.172 -14.037   3.380  1.00  0.00     0.257 C 
HETATM    8  N   UNL     1      41.652 -14.198   2.103  1.00  0.00    -0.307 N 
HETATM    9  H   UNL     1      42.625 -14.435   1.961  1.00  0.00     0.170 HD
HETATM   10  O   UNL     1      40.078 -13.586   3.699  1.00  0.00    -0.267 OA
BRANCH   8  11
HETATM   11  C   UNL     1      40.992 -13.961   0.899  1.00  0.00     0.130 A 
HETATM   12  N   UNL     1      41.251 -12.742   0.378  1.00  0.00    -0.242 NA
HETATM   13  C   UNL     1      40.649 -12.426  -0.796  1.00  0.00     0.142 A 
HETATM   14  C   UNL     1      39.807 -13.280  -1.487  1.00  0.00     0.051 A 
HETATM   15 CL   UNL     1      39.088 -12.809  -2.970  1.00  0.00    -0.083 Cl
HETATM   16  C   UNL     1      39.562 -14.533  -0.944  1.00  0.00     0.029 A 
HETATM   17  C   UNL     1      40.163 -14.881   0.268  1.00  0.00     0.052 A 
ENDBRANCH   8  11
ENDBRANCH   5   7
BRANCH   3  18
HETATM   18  N   UNL     1      43.782 -12.722   7.279  1.00  0.00    -0.322 N 
HETATM   19  C   UNL     1      44.768 -11.767   7.122  1.00  0.00     0.276 C 
HETATM   20  O   UNL     1      45.546 -11.663   6.180  1.00  0.00    -0.266 OA
HETATM   21  H   UNL     1      43.265 -12.620   8.150  1.00  0.00     0.169 HD
BRANCH  19  22
HETATM   22  C   UNL     1      44.798 -10.825   8.256  1.00  0.00     0.146 A 
HETATM   23  N   UNL     1      44.133 -11.073   9.407  1.00  0.00    -0.170 NA
HETATM   24  N   UNL     1      44.392  -9.996  10.171  1.00  0.00    -0.289 N 
HETATM   25  H   UNL     1      43.986  -9.955  11.100  1.00  0.00     0.188 HD
HETATM   26  C   UNL     1      45.194  -9.076   9.566  1.00  0.00     0.112 A 
HETATM   27  C   UNL     1      45.478  -9.582   8.321  1.00  0.00     0.058 A 
ENDBRANCH  19  22
ENDBRANCH   3  18
TORSDOF 4
ENDMDL
MODEL 7
REMARK VINA RESULT:      -7.5      4.749      9.935
REMARK  4 active torsions:
REMARK  status: ('A' for Active; 'I' for Inactive)
REMARK    1  A    between atoms: C_3  and  N_4 
REMARK       I    between atoms: N_4  and  C_5 
REMARK    2  A    between atoms: C_5  and  C_6 
REMARK    3  A    between atoms: C_14  and  C_15 
REMARK       I    between atoms: C_15  and  N_16 
REMARK    4  A    between atoms: N_16  and  C_17 
ROOT
HETATM    1  C   UNL     1      46.126  -9.488   7.892  1.00  0.00     0.003 A 
HETATM    2  C   UNL     1      45.622 -10.715   7.449  1.00  0.00     0.029 A 
HETATM    3  C   UNL     1      44.425 -11.219   7.961  1.00  0.00     0.036 A 
HETATM    4  C   UNL     1      43.733 -10.478   8.926  1.00  0.00     0.046 A 
HETATM    5  C   UNL     1      44.246  -9.258   9.386  1.00  0.00     0.034 A 
HETATM    6  C   UNL     1      45.441  -8.755   8.860  1.00  0.00     0.017 A 
ENDROOT
BRANCH   5   7
HETATM    7  C   UNL     1      43.481  -8.509  10.418  1.00  0.00     0.257 C 
HETATM    8  N   UNL     1      43.500  -9.078  11.669  1.00  0.00    -0.307 N 
HETATM    9  H   UNL     1      43.905  -9.996  11.795  1.00  0.00     0.170 HD
HETATM   10  O   UNL     1      42.879  -7.496  10.084  1.00  0.00    -0.267 OA
BRANCH   8  11
HETATM   11  C   UNL     1      42.913  -8.602  12.839  1.00  0.00     0.130 A 
HETATM   12  N   UNL     1      41.835  -9.320  13.226  1.00  0.00    -0.242 NA
HETATM   13  C   UNL     1      41.199  -8.927  14.358  1.00  0.00     0.142 A 
HETATM   14  C   UNL     1      41.600  -7.854  15.136  1.00  0.00     0.051 A 
HETATM   15 CL   UNL     1      40.746  -7.423  16.559  1.00  0.00    -0.083 Cl
HETATM   16  C   UNL     1      42.716  -7.136  14.731  1.00  0.00     0.029 A 
HETATM   17  C   UNL     1      43.384  -7.515  13.564  1.00  0.00     0.052 A 
ENDBRANCH   8  11
ENDBRANCH   5   7
BRANCH   3  18
HETATM   18  N   UNL     1      43.865 -12.448   7.574  1.00  0.00    -0.322 N 
HETATM   19  C   UNL     1      43.485 -12.865   6.313  1.00  0.00     0.276 C 
HETATM   20  O   UNL     1      43.540 -12.213   5.277  1.00  0.00    -0.266 OA
HETATM   21  H   UNL     1      43.715 -13.157   8.290  1.00  0.00     0.169 HD
BRANCH  19  22
HETATM   22  C   UNL     1      42.980 -14.251   6.329  1.00  0.00     0.146 A 
HETATM   23  N   UNL     1      42.770 -14.921   7.484  1.00  0.00    -0.170 NA
HETATM   24  N   UNL     1      42.333 -16.129   7.085  1.00  0.00    -0.289 N 
HETATM   25  H   UNL     1      42.109 -16.820   7.794  1.00  0.00     0.188 HD
HETATM   26  C   UNL     1      42.248 -16.261   5.732  1.00  0.00     0.112 A 
HETATM   27  C   UNL     1      42.661 -15.060   5.208  1.00  0.00     0.058 A 
ENDBRANCH  19  22
ENDBRANCH   3  18
TORSDOF 4
ENDMDL
MODEL 8
REMARK VINA RESULT:      -7.5      5.536      8.090
REMARK  4 active torsions:
REMARK  status: ('A' for Active; 'I' for Inactive)
REMARK    1  A    between atoms: C_3  and  N_4 
REMARK       I    between atoms: N_4  and  C_5 
REMARK    2  A    between atoms: C_5  and  C_6 
REMARK    3  A    between atoms: C_14  and  C_15 
REMARK       I    between atoms: C_15  and  N_16 
REMARK    4  A    between atoms: N_16  and  C_17 
ROOT
HETATM    1  C   UNL     1      39.167 -14.179  -2.598  1.00  0.00     0.003 A 
HETATM    2  C   UNL     1      39.752 -12.927  -2.816  1.00  0.00     0.029 A 
HETATM    3  C   UNL     1      40.602 -12.364  -1.862  1.00  0.00     0.036 A 
HETATM    4  C   UNL     1      40.862 -13.069  -0.682  1.00  0.00     0.046 A 
HETATM    5  C   UNL     1      40.261 -14.315  -0.453  1.00  0.00     0.034 A 
HETATM    6  C   UNL     1      39.419 -14.877  -1.418  1.00  0.00     0.017 A 
ENDROOT
BRANCH   5   7
HETATM    7  C   UNL     1      40.560 -15.024   0.819  1.00  0.00     0.257 C 
HETATM    8  N   UNL     1      41.898 -15.205   1.073  1.00  0.00    -0.307 N 
HETATM    9  H   UNL     1      42.578 -14.973   0.362  1.00  0.00     0.170 HD
HETATM   10  O   UNL     1      39.625 -15.418   1.506  1.00  0.00    -0.267 OA
BRANCH   8  11
HETATM   11  C   UNL     1      42.490 -15.798   2.186  1.00  0.00     0.130 A 
HETATM   12  N   UNL     1      42.571 -14.971   3.252  1.00  0.00    -0.242 NA
HETATM   13  C   UNL     1      43.135 -15.467   4.382  1.00  0.00     0.142 A 
HETATM   14  C   UNL     1      43.612 -16.761   4.505  1.00  0.00     0.051 A 
HETATM   15 CL   UNL     1      44.307 -17.314   5.971  1.00  0.00    -0.083 Cl
HETATM   16  C   UNL     1      43.509 -17.599   3.404  1.00  0.00     0.029 A 
HETATM   17  C   UNL     1      42.940 -17.112   2.226  1.00  0.00     0.052 A 
ENDBRANCH   8  11
ENDBRANCH   5   7
BRANCH   3  18
HETATM   18  N   UNL     1      41.214 -11.108  -2.005  1.00  0.00    -0.322 N 
HETATM   19  C   UNL     1      40.888  -9.912  -1.394  1.00  0.00     0.276 C 
HETATM   20  O   UNL     1      39.961  -9.715  -0.617  1.00  0.00    -0.266 OA
HETATM   21  H   UNL     1      42.018 -11.031  -2.625  1.00  0.00     0.169 HD
BRANCH  19  22
HETATM   22  C   UNL     1      41.813  -8.832  -1.783  1.00  0.00     0.146 A 
HETATM   23  N   UNL     1      42.928  -8.555  -1.069  1.00  0.00    -0.170 NA
HETATM   24  N   UNL     1      43.485  -7.520  -1.724  1.00  0.00    -0.289 N 
HETATM   25  H   UNL     1      44.349  -7.130  -1.362  1.00  0.00     0.188 HD
HETATM   26  C   UNL     1      42.784  -7.127  -2.824  1.00  0.00     0.112 A 
HETATM   27  C   UNL     1      41.692  -7.958  -2.894  1.00  0.00     0.058 A 
ENDBRANCH  19  22
ENDBRANCH   3  18
TORSDOF 4
ENDMDL
MODEL 9
REMARK VINA RESULT:      -7.5      3.909      9.009
REMARK  4 active torsions:
REMARK  status: ('A' for Active; 'I' for Inactive)
REMARK    1  A    between atoms: C_3  and  N_4 
REMARK       I    between atoms: N_4  and  C_5 
REMARK    2  A    between atoms: C_5  and  C_6 
REMARK    3  A    between atoms: C_14  and  C_15 
REMARK       I    between atoms: C_15  and  N_16 
REMARK    4  A    between atoms: N_16  and  C_17 
ROOT
HETATM    1  C   UNL     1      42.557 -11.618   4.717  1.00  0.00     0.003 A 
HETATM    2  C   UNL     1      42.723 -12.999   4.570  1.00  0.00     0.029 A 
HETATM    3  C   UNL     1      43.280 -13.762   5.598  1.00  0.00     0.036 A 
HETATM    4  C   UNL     1      43.669 -13.126   6.782  1.00  0.00     0.046 A 
HETATM    5  C   UNL     1      43.523 -11.739   6.925  1.00  0.00     0.034 A 
HETATM    6  C   UNL     1      42.955 -10.984   5.893  1.00  0.00     0.017 A 
ENDROOT
BRANCH   5   7
HETATM    7  C   UNL     1      43.959 -11.105   8.196  1.00  0.00     0.257 C 
HETATM    8  N   UNL     1      42.965 -10.449   8.879  1.00  0.00    -0.307 N 
HETATM    9  H   UNL     1      42.059 -10.325   8.447  1.00  0.00     0.170 HD
HETATM   10  O   UNL     1      45.140 -11.178   8.514  1.00  0.00    -0.267 OA
BRANCH   8  11
HETATM   11  C   UNL     1      43.051  -9.791  10.105  1.00  0.00     0.130 A 
HETATM   12  N   UNL     1      43.006  -8.445   9.994  1.00  0.00    -0.242 NA
HETATM   13  C   UNL     1      43.084  -7.723  11.140  1.00  0.00     0.142 A 
HETATM   14  C   UNL     1      43.192  -8.285  12.401  1.00  0.00     0.051 A 
HETATM   15 CL   UNL     1      43.279  -7.303  13.803  1.00  0.00    -0.083 Cl
HETATM   16  C   UNL     1      43.224  -9.668  12.497  1.00  0.00     0.029 A 
HETATM   17  C   UNL     1      43.153 -10.435  11.332  1.00  0.00     0.052 A 
ENDBRANCH   8  11
ENDBRANCH   5   7
BRANCH   3  18
HETATM   18  N   UNL     1      43.489 -15.148   5.517  1.00  0.00    -0.322 N 
HETATM   19  C   UNL     1      42.895 -16.156   6.252  1.00  0.00     0.276 C 
HETATM   20  O   UNL     1      42.076 -16.022   7.155  1.00  0.00    -0.266 OA
HETATM   21  H   UNL     1      44.151 -15.497   4.827  1.00  0.00     0.169 HD
BRANCH  19  22
HETATM   22  C   UNL     1      43.360 -17.488   5.824  1.00  0.00     0.146 A 
HETATM   23  N   UNL     1      43.232 -18.577   6.615  1.00  0.00    -0.170 NA
HETATM   24  N   UNL     1      43.776 -19.572   5.891  1.00  0.00    -0.289 N 
HETATM   25  H   UNL     1      43.798 -20.504   6.291  1.00  0.00     0.188 HD
HETATM   26  C   UNL     1      44.240 -19.172   4.674  1.00  0.00     0.112 A 
HETATM   27  C   UNL     1      43.986 -17.825   4.596  1.00  0.00     0.058 A 
ENDBRANCH  19  22
ENDBRANCH   3  18
TORSDOF 4
ENDMDL
MODEL 10
REMARK VINA RESULT:      -7.2      4.924      8.069
REMARK  4 active torsions:
REMARK  status: ('A' for Active; 'I' for Inactive)
REMARK    1  A    between atoms: C_3  and  N_4 
REMARK       I    between atoms: N_4  and  C_5 
REMARK    2  A    between atoms: C_5  and  C_6 
REMARK    3  A    between atoms: C_14  and  C_15 
REMARK       I    between atoms: C_15  and  N_16 
REMARK    4  A    between atoms: N_16  and  C_17 
ROOT
HETATM    1  C   UNL     1      43.171 -13.418   5.796  1.00  0.00     0.003 A 
HETATM    2  C   UNL     1      43.426 -14.793   5.826  1.00  0.00     0.029 A 
HETATM    3  C   UNL     1      43.122 -15.597   4.726  1.00  0.00     0.036 A 
HETATM    4  C   UNL     1      42.559 -15.008   3.588  1.00  0.00     0.046 A 
HETATM    5  C   UNL     1      42.284 -13.634   3.563  1.00  0.00     0.034 A 
HETATM    6  C   UNL     1      42.600 -12.834   4.666  1.00  0.00     0.017 A 
ENDROOT
BRANCH   5   7
HETATM    7  C   UNL     1      41.676 -13.053   2.336  1.00  0.00     0.257 C 
HETATM    8  N   UNL     1      40.678 -13.813   1.777  1.00  0.00    -0.307 N 
HETATM    9  H   UNL     1      40.497 -14.742   2.133  1.00  0.00     0.170 HD
HETATM   10  O   UNL     1      42.120 -11.996   1.905  1.00  0.00    -0.267 OA
BRANCH   8  11
HETATM   11  C   UNL     1      39.902 -13.524   0.656  1.00  0.00     0.130 A 
HETATM   12  N   UNL     1      39.180 -12.389   0.784  1.00  0.00    -0.242 NA
HETATM   13  C   UNL     1      38.394 -12.031  -0.262  1.00  0.00     0.142 A 
HETATM   14  C   UNL     1      38.305 -12.748  -1.443  1.00  0.00     0.051 A 
HETATM   15 CL   UNL     1      37.292 -12.226  -2.723  1.00  0.00    -0.083 Cl
HETATM   16  C   UNL     1      39.063 -13.904  -1.561  1.00  0.00     0.029 A 
HETATM   17  C   UNL     1      39.874 -14.301  -0.496  1.00  0.00     0.052 A 
ENDBRANCH   8  11
ENDBRANCH   5   7
BRANCH   3  18
HETATM   18  N   UNL     1      43.338 -16.984   4.688  1.00  0.00    -0.322 N 
HETATM   19  C   UNL     1      43.625 -17.785   3.600  1.00  0.00     0.276 C 
HETATM   20  O   UNL     1      43.718 -17.429   2.431  1.00  0.00    -0.266 OA
HETATM   21  H   UNL     1      43.297 -17.503   5.564  1.00  0.00     0.169 HD
BRANCH  19  22
HETATM   22  C   UNL     1      43.825 -19.191   3.997  1.00  0.00     0.146 A 
HETATM   23  N   UNL     1      43.803 -20.198   3.094  1.00  0.00    -0.170 NA
HETATM   24  N   UNL     1      44.006 -21.303   3.834  1.00  0.00    -0.289 N 
HETATM   25  H   UNL     1      44.026 -22.202   3.363  1.00  0.00     0.188 HD
HETATM   26  C   UNL     1      44.162 -21.051   5.164  1.00  0.00     0.112 A 
HETATM   27  C   UNL     1      44.051 -19.689   5.306  1.00  0.00     0.058 A 
ENDBRANCH  19  22
ENDBRANCH   3  18
TORSDOF 4
ENDMDL
