MODEL 1
REMARK VINA RESULT:      -8.7      0.000      0.000
REMARK  6 active torsions:
REMARK  status: ('A' for Active; 'I' for Inactive)
REMARK    1  A    between atoms: C_2  and  O_3 
REMARK    2  A    between atoms: C_2  and  C_4 
REMARK    3  A    between atoms: C_6  and  N_7 
REMARK       I    between atoms: N_7  and  C_8 
REMARK    4  A    between atoms: C_8  and  C_9 
REMARK    5  A    between atoms: C_14  and  C_15 
REMARK    6  A    between atoms: C_21  and  C_22 
ROOT
HETATM    1  C   UNL     1      42.438 -13.575   5.552  1.00  0.00     0.148 A 
HETATM    2  N   UNL     1      42.860 -14.570   4.739  1.00  0.00    -0.165 NA
HETATM    3  N   UNL     1      41.830 -14.749   3.892  1.00  0.00    -0.240 N 
HETATM    4  C   UNL     1      40.804 -13.861   4.082  1.00  0.00     0.123 A 
HETATM    5  N   UNL     1      39.697 -13.881   3.309  1.00  0.00    -0.364 N 
HETATM    6  C   UNL     1      39.610 -14.729   2.120  1.00  0.00     0.143 C 
HETATM    7  C   UNL     1      40.420 -16.017   2.342  1.00  0.00     0.068 C 
HETATM    8  C   UNL     1      41.858 -15.718   2.809  1.00  0.00     0.221 C 
HETATM    9  C   UNL     1      41.168 -13.083   5.148  1.00  0.00     0.089 A 
HETATM   10  H   UNL     1      39.026 -13.115   3.342  1.00  0.00     0.162 HD
ENDROOT
BRANCH   1  11
HETATM   11  C   UNL     1      43.230 -13.116   6.709  1.00  0.00     0.276 C 
HETATM   12  N   UNL     1      43.454 -11.754   6.674  1.00  0.00    -0.322 N 
HETATM   13  H   UNL     1      43.005 -11.289   5.888  1.00  0.00     0.169 HD
HETATM   14  O   UNL     1      43.630 -13.905   7.558  1.00  0.00    -0.266 OA
BRANCH  12  15
HETATM   15  C   UNL     1      44.234 -10.974   7.546  1.00  0.00     0.035 A 
HETATM   16  C   UNL     1      43.803 -10.548   8.805  1.00  0.00     0.039 A 
HETATM   17  C   UNL     1      44.640  -9.789   9.642  1.00  0.00    -0.028 A 
HETATM   18  C   UNL     1      45.921  -9.446   9.188  1.00  0.00     0.010 A 
HETATM   19  C   UNL     1      46.360  -9.866   7.933  1.00  0.00     0.003 A 
HETATM   20  C   UNL     1      45.522 -10.628   7.119  1.00  0.00     0.029 A 
BRANCH  17  21
HETATM   21  C   UNL     1      44.144  -9.343  11.001  1.00  0.00     0.147 C 
HETATM   22  C   UNL     1      43.413 -10.453  11.741  1.00  0.00     0.044 C 
BRANCH  21  23
HETATM   23  O   UNL     1      43.266  -8.225  10.862  1.00  0.00    -0.391 OA
HETATM   24  H   UNL     1      43.829  -7.435  10.792  1.00  0.00     0.210 HD
ENDBRANCH  21  23
ENDBRANCH  17  21
ENDBRANCH  12  15
ENDBRANCH   1  11
BRANCH   8  25
HETATM   25  C   UNL     1      42.545 -17.005   3.207  1.00  0.00     0.409 C 
HETATM   26  F   UNL     1      43.881 -16.982   3.009  1.00  0.00    -0.169 F 
HETATM   27  F   UNL     1      42.312 -17.341   4.496  1.00  0.00    -0.169 F 
HETATM   28  F   UNL     1      42.071 -18.031   2.449  1.00  0.00    -0.169 F 
ENDBRANCH   8  25
BRANCH   6  29
HETATM   29  C   UNL     1      39.992 -14.058   0.838  1.00  0.00     0.075 A 
HETATM   30  O   UNL     1      39.676 -14.731  -0.308  1.00  0.00    -0.325 OA
HETATM   31  C   UNL     1      40.085 -13.962  -1.349  1.00  0.00     0.142 A 
HETATM   32  C   UNL     1      40.669 -12.805  -0.890  1.00  0.00     0.027 A 
HETATM   33  C   UNL     1      40.611 -12.865   0.523  1.00  0.00     0.037 A 
ENDBRANCH   6  29
TORSDOF 6
ENDMDL
MODEL 2
REMARK VINA RESULT:      -8.7      5.668      7.682
REMARK  6 active torsions:
REMARK  status: ('A' for Active; 'I' for Inactive)
REMARK    1  A    between atoms: C_2  and  O_3 
REMARK    2  A    between atoms: C_2  and  C_4 
REMARK    3  A    between atoms: C_6  and  N_7 
REMARK       I    between atoms: N_7  and  C_8 
REMARK    4  A    between atoms: C_8  and  C_9 
REMARK    5  A    between atoms: C_14  and  C_15 
REMARK    6  A    between atoms: C_21  and  C_22 
ROOT
HETATM    1  C   UNL     1      40.603 -14.214   1.697  1.00  0.00     0.148 A 
HETATM    2  N   UNL     1      40.633 -14.269   0.346  1.00  0.00    -0.165 NA
HETATM    3  N   UNL     1      40.168 -13.065  -0.033  1.00  0.00    -0.240 N 
HETATM    4  C   UNL     1      39.916 -12.220   1.016  1.00  0.00     0.123 A 
HETATM    5  N   UNL     1      39.464 -10.963   0.820  1.00  0.00    -0.364 N 
HETATM    6  C   UNL     1      39.388 -10.377  -0.518  1.00  0.00     0.143 C 
HETATM    7  C   UNL     1      39.081 -11.476  -1.548  1.00  0.00     0.068 C 
HETATM    8  C   UNL     1      40.055 -12.665  -1.426  1.00  0.00     0.221 C 
HETATM    9  C   UNL     1      40.191 -12.933   2.151  1.00  0.00     0.089 A 
HETATM   10  H   UNL     1      39.448 -10.291   1.587  1.00  0.00     0.162 HD
ENDROOT
BRANCH   1  11
HETATM   11  C   UNL     1      40.943 -15.378   2.538  1.00  0.00     0.276 C 
HETATM   12  N   UNL     1      42.305 -15.609   2.572  1.00  0.00    -0.322 N 
HETATM   13  H   UNL     1      42.846 -14.922   2.053  1.00  0.00     0.169 HD
HETATM   14  O   UNL     1      40.072 -16.033   3.098  1.00  0.00    -0.266 OA
BRANCH  12  15
HETATM   15  C   UNL     1      42.996 -16.668   3.187  1.00  0.00     0.035 A 
HETATM   16  C   UNL     1      43.201 -17.914   2.588  1.00  0.00     0.039 A 
HETATM   17  C   UNL     1      43.923 -18.926   3.244  1.00  0.00    -0.028 A 
HETATM   18  C   UNL     1      44.427 -18.675   4.528  1.00  0.00     0.010 A 
HETATM   19  C   UNL     1      44.227 -17.435   5.134  1.00  0.00     0.003 A 
HETATM   20  C   UNL     1      43.518 -16.437   4.464  1.00  0.00     0.029 A 
BRANCH  17  21
HETATM   21  C   UNL     1      44.130 -20.265   2.569  1.00  0.00     0.147 C 
HETATM   22  C   UNL     1      43.185 -20.470   1.395  1.00  0.00     0.044 C 
BRANCH  21  23
HETATM   23  O   UNL     1      43.936 -21.324   3.507  1.00  0.00    -0.391 OA
HETATM   24  H   UNL     1      44.621 -21.989   3.322  1.00  0.00     0.210 HD
ENDBRANCH  21  23
ENDBRANCH  17  21
ENDBRANCH  12  15
ENDBRANCH   1  11
BRANCH   8  25
HETATM   25  C   UNL     1      39.592 -13.798  -2.314  1.00  0.00     0.409 C 
HETATM   26  F   UNL     1      40.609 -14.505  -2.852  1.00  0.00    -0.169 F 
HETATM   27  F   UNL     1      38.770 -14.658  -1.672  1.00  0.00    -0.169 F 
HETATM   28  F   UNL     1      38.886 -13.299  -3.364  1.00  0.00    -0.169 F 
ENDBRANCH   8  25
BRANCH   6  29
HETATM   29  C   UNL     1      40.581  -9.568  -0.920  1.00  0.00     0.075 A 
HETATM   30  O   UNL     1      40.542  -9.026  -2.174  1.00  0.00    -0.325 OA
HETATM   31  C   UNL     1      41.693  -8.326  -2.342  1.00  0.00     0.142 A 
HETATM   32  C   UNL     1      42.479  -8.416  -1.217  1.00  0.00     0.027 A 
HETATM   33  C   UNL     1      41.762  -9.219  -0.297  1.00  0.00     0.037 A 
ENDBRANCH   6  29
TORSDOF 6
ENDMDL
MODEL 3
REMARK VINA RESULT:      -8.5      2.785      3.573
REMARK  6 active torsions:
REMARK  status: ('A' for Active; 'I' for Inactive)
REMARK    1  A    between atoms: C_2  and  O_3 
REMARK    2  A    between atoms: C_2  and  C_4 
REMARK    3  A    between atoms: C_6  and  N_7 
REMARK       I    between atoms: N_7  and  C_8 
REMARK    4  A    between atoms: C_8  and  C_9 
REMARK    5  A    between atoms: C_14  and  C_15 
REMARK    6  A    between atoms: C_21  and  C_22 
ROOT
HETATM    1  C   UNL     1      43.283 -12.907   5.279  1.00  0.00     0.148 A 
HETATM    2  N   UNL     1      42.607 -13.887   5.920  1.00  0.00    -0.165 NA
HETATM    3  N   UNL     1      42.212 -14.704   4.926  1.00  0.00    -0.240 N 
HETATM    4  C   UNL     1      42.671 -14.327   3.691  1.00  0.00     0.123 A 
HETATM    5  N   UNL     1      42.388 -15.043   2.582  1.00  0.00    -0.364 N 
HETATM    6  C   UNL     1      41.731 -16.347   2.660  1.00  0.00     0.143 C 
HETATM    7  C   UNL     1      40.769 -16.371   3.859  1.00  0.00     0.068 C 
HETATM    8  C   UNL     1      41.465 -15.929   5.162  1.00  0.00     0.221 C 
HETATM    9  C   UNL     1      43.372 -13.168   3.885  1.00  0.00     0.089 A 
HETATM   10  H   UNL     1      42.874 -14.856   1.706  1.00  0.00     0.162 HD
ENDROOT
BRANCH   1  11
HETATM   11  C   UNL     1      43.817 -11.728   5.988  1.00  0.00     0.276 C 
HETATM   12  N   UNL     1      43.778 -11.889   7.360  1.00  0.00    -0.322 N 
HETATM   13  H   UNL     1      43.431 -12.800   7.651  1.00  0.00     0.169 HD
HETATM   14  O   UNL     1      44.216 -10.745   5.375  1.00  0.00    -0.266 OA
BRANCH  12  15
HETATM   15  C   UNL     1      44.113 -10.959   8.359  1.00  0.00     0.035 A 
HETATM   16  C   UNL     1      43.217 -10.508   9.332  1.00  0.00     0.039 A 
HETATM   17  C   UNL     1      43.619  -9.593  10.322  1.00  0.00    -0.028 A 
HETATM   18  C   UNL     1      44.939  -9.121  10.312  1.00  0.00     0.010 A 
HETATM   19  C   UNL     1      45.839  -9.565   9.345  1.00  0.00     0.003 A 
HETATM   20  C   UNL     1      45.428 -10.482   8.376  1.00  0.00     0.029 A 
BRANCH  17  21
HETATM   21  C   UNL     1      42.626  -9.124  11.364  1.00  0.00     0.147 C 
HETATM   22  C   UNL     1      43.300  -8.392  12.515  1.00  0.00     0.044 C 
BRANCH  21  23
HETATM   23  O   UNL     1      41.898 -10.235  11.887  1.00  0.00    -0.391 OA
HETATM   24  H   UNL     1      42.376 -10.531  12.681  1.00  0.00     0.210 HD
ENDBRANCH  21  23
ENDBRANCH  17  21
ENDBRANCH  12  15
ENDBRANCH   1  11
BRANCH   8  25
HETATM   25  C   UNL     1      40.439 -15.775   6.263  1.00  0.00     0.409 C 
HETATM   26  F   UNL     1      39.882 -14.545   6.304  1.00  0.00    -0.169 F 
HETATM   27  F   UNL     1      39.447 -16.689   6.179  1.00  0.00    -0.169 F 
HETATM   28  F   UNL     1      41.033 -15.958   7.472  1.00  0.00    -0.169 F 
ENDBRANCH   8  25
BRANCH   6  29
HETATM   29  C   UNL     1      42.659 -17.521   2.679  1.00  0.00     0.075 A 
HETATM   30  O   UNL     1      42.241 -18.627   1.995  1.00  0.00    -0.325 OA
HETATM   31  C   UNL     1      43.215 -19.564   2.118  1.00  0.00     0.142 A 
HETATM   32  C   UNL     1      44.252 -19.082   2.881  1.00  0.00     0.027 A 
HETATM   33  C   UNL     1      43.896 -17.761   3.245  1.00  0.00     0.037 A 
ENDBRANCH   6  29
TORSDOF 6
ENDMDL
MODEL 4
REMARK VINA RESULT:      -8.4      3.577      9.069
REMARK  6 active torsions:
REMARK  status: ('A' for Active; 'I' for Inactive)
REMARK    1  A    between atoms: C_2  and  O_3 
REMARK    2  A    between atoms: C_2  and  C_4 
REMARK    3  A    between atoms: C_6  and  N_7 
REMARK       I    between atoms: N_7  and  C_8 
REMARK    4  A    between atoms: C_8  and  C_9 
REMARK    5  A    between atoms: C_14  and  C_15 
REMARK    6  A    between atoms: C_21  and  C_22 
ROOT
HETATM    1  C   UNL     1      42.252 -11.636   6.204  1.00  0.00     0.148 A 
HETATM    2  N   UNL     1      43.476 -11.547   6.772  1.00  0.00    -0.165 NA
HETATM    3  N   UNL     1      43.414 -10.409   7.489  1.00  0.00    -0.240 N 
HETATM    4  C   UNL     1      42.180  -9.813   7.463  1.00  0.00     0.123 A 
HETATM    5  N   UNL     1      41.930  -8.673   8.143  1.00  0.00    -0.364 N 
HETATM    6  C   UNL     1      42.903  -8.113   9.081  1.00  0.00     0.143 C 
HETATM    7  C   UNL     1      44.328  -8.426   8.598  1.00  0.00     0.068 C 
HETATM    8  C   UNL     1      44.518  -9.927   8.302  1.00  0.00     0.221 C 
HETATM    9  C   UNL     1      41.403 -10.584   6.642  1.00  0.00     0.089 A 
HETATM   10  H   UNL     1      40.975  -8.337   8.260  1.00  0.00     0.162 HD
ENDROOT
BRANCH   1  11
HETATM   11  C   UNL     1      41.909 -12.700   5.242  1.00  0.00     0.276 C 
HETATM   12  N   UNL     1      43.011 -13.455   4.891  1.00  0.00    -0.322 N 
HETATM   13  H   UNL     1      43.861 -13.183   5.381  1.00  0.00     0.169 HD
HETATM   14  O   UNL     1      40.764 -12.835   4.826  1.00  0.00    -0.266 OA
BRANCH  12  15
HETATM   15  C   UNL     1      43.097 -14.489   3.943  1.00  0.00     0.035 A 
HETATM   16  C   UNL     1      43.233 -15.840   4.276  1.00  0.00     0.039 A 
HETATM   17  C   UNL     1      43.289 -16.831   3.281  1.00  0.00    -0.028 A 
HETATM   18  C   UNL     1      43.223 -16.445   1.935  1.00  0.00     0.010 A 
HETATM   19  C   UNL     1      43.087 -15.100   1.593  1.00  0.00     0.003 A 
HETATM   20  C   UNL     1      43.022 -14.129   2.593  1.00  0.00     0.029 A 
BRANCH  17  21
HETATM   21  C   UNL     1      43.437 -18.286   3.673  1.00  0.00     0.147 C 
HETATM   22  C   UNL     1      44.085 -18.452   5.039  1.00  0.00     0.044 C 
BRANCH  21  23
HETATM   23  O   UNL     1      44.221 -18.980   2.702  1.00  0.00    -0.391 OA
HETATM   24  H   UNL     1      45.136 -18.665   2.807  1.00  0.00     0.210 HD
ENDBRANCH  21  23
ENDBRANCH  17  21
ENDBRANCH  12  15
ENDBRANCH   1  11
BRANCH   8  25
HETATM   25  C   UNL     1      45.860 -10.152   7.641  1.00  0.00     0.409 C 
HETATM   26  F   UNL     1      46.581 -11.138   8.219  1.00  0.00    -0.169 F 
HETATM   27  F   UNL     1      45.750 -10.424   6.321  1.00  0.00    -0.169 F 
HETATM   28  F   UNL     1      46.616  -9.026   7.742  1.00  0.00    -0.169 F 
ENDBRANCH   8  25
BRANCH   6  29
HETATM   29  C   UNL     1      42.708  -8.520  10.508  1.00  0.00     0.075 A 
HETATM   30  O   UNL     1      41.505  -9.091  10.810  1.00  0.00    -0.325 OA
HETATM   31  C   UNL     1      41.529  -9.400  12.131  1.00  0.00     0.142 A 
HETATM   32  C   UNL     1      42.729  -9.027  12.690  1.00  0.00     0.027 A 
HETATM   33  C   UNL     1      43.493  -8.458  11.643  1.00  0.00     0.037 A 
ENDBRANCH   6  29
TORSDOF 6
ENDMDL
MODEL 5
REMARK VINA RESULT:      -8.2      5.158      6.831
REMARK  6 active torsions:
REMARK  status: ('A' for Active; 'I' for Inactive)
REMARK    1  A    between atoms: C_2  and  O_3 
REMARK    2  A    between atoms: C_2  and  C_4 
REMARK    3  A    between atoms: C_6  and  N_7 
REMARK       I    between atoms: N_7  and  C_8 
REMARK    4  A    between atoms: C_8  and  C_9 
REMARK    5  A    between atoms: C_14  and  C_15 
REMARK    6  A    between atoms: C_21  and  C_22 
ROOT
HETATM    1  C   UNL     1      41.032 -13.663   1.192  1.00  0.00     0.148 A 
HETATM    2  N   UNL     1      40.877 -13.762  -0.148  1.00  0.00    -0.165 NA
HETATM    3  N   UNL     1      39.730 -13.102  -0.387  1.00  0.00    -0.240 N 
HETATM    4  C   UNL     1      39.188 -12.522   0.731  1.00  0.00     0.123 A 
HETATM    5  N   UNL     1      38.048 -11.802   0.673  1.00  0.00    -0.364 N 
HETATM    6  C   UNL     1      37.427 -11.453  -0.604  1.00  0.00     0.143 C 
HETATM    7  C   UNL     1      37.686 -12.571  -1.628  1.00  0.00     0.068 C 
HETATM    8  C   UNL     1      39.183 -12.927  -1.722  1.00  0.00     0.221 C 
HETATM    9  C   UNL     1      40.010 -12.863   1.770  1.00  0.00     0.089 A 
HETATM   10  H   UNL     1      37.751 -11.234   1.466  1.00  0.00     0.162 HD
ENDROOT
BRANCH   1  11
HETATM   11  C   UNL     1      42.130 -14.340   1.908  1.00  0.00     0.276 C 
HETATM   12  N   UNL     1      41.820 -15.654   2.204  1.00  0.00    -0.322 N 
HETATM   13  H   UNL     1      40.914 -15.947   1.846  1.00  0.00     0.169 HD
HETATM   14  O   UNL     1      43.163 -13.747   2.194  1.00  0.00    -0.266 OA
BRANCH  12  15
HETATM   15  C   UNL     1      42.569 -16.582   2.948  1.00  0.00     0.035 A 
HETATM   16  C   UNL     1      42.903 -16.410   4.294  1.00  0.00     0.039 A 
HETATM   17  C   UNL     1      43.634 -17.388   4.992  1.00  0.00    -0.028 A 
HETATM   18  C   UNL     1      44.044 -18.542   4.310  1.00  0.00     0.010 A 
HETATM   19  C   UNL     1      43.716 -18.722   2.968  1.00  0.00     0.003 A 
HETATM   20  C   UNL     1      42.979 -17.748   2.292  1.00  0.00     0.029 A 
BRANCH  17  21
HETATM   21  C   UNL     1      43.981 -17.173   6.450  1.00  0.00     0.147 C 
HETATM   22  C   UNL     1      42.827 -16.565   7.233  1.00  0.00     0.044 C 
BRANCH  21  23
HETATM   23  O   UNL     1      45.118 -16.317   6.565  1.00  0.00    -0.391 OA
HETATM   24  H   UNL     1      44.778 -15.427   6.761  1.00  0.00     0.210 HD
ENDBRANCH  21  23
ENDBRANCH  17  21
ENDBRANCH  12  15
ENDBRANCH   1  11
BRANCH   8  25
HETATM   25  C   UNL     1      39.362 -14.158  -2.583  1.00  0.00     0.409 C 
HETATM   26  F   UNL     1      40.629 -14.324  -3.020  1.00  0.00    -0.169 F 
HETATM   27  F   UNL     1      38.977 -15.291  -1.954  1.00  0.00    -0.169 F 
HETATM   28  F   UNL     1      38.591 -14.053  -3.699  1.00  0.00    -0.169 F 
ENDBRANCH   8  25
BRANCH   6  29
HETATM   29  C   UNL     1      37.812 -10.114  -1.148  1.00  0.00     0.075 A 
HETATM   30  O   UNL     1      38.418  -9.262  -0.268  1.00  0.00    -0.325 OA
HETATM   31  C   UNL     1      38.701  -8.121  -0.947  1.00  0.00     0.142 A 
HETATM   32  C   UNL     1      38.277  -8.221  -2.252  1.00  0.00     0.027 A 
HETATM   33  C   UNL     1      37.703  -9.508  -2.384  1.00  0.00     0.037 A 
ENDBRANCH   6  29
TORSDOF 6
ENDMDL
MODEL 6
REMARK VINA RESULT:      -8.0      3.818      9.511
REMARK  6 active torsions:
REMARK  status: ('A' for Active; 'I' for Inactive)
REMARK    1  A    between atoms: C_2  and  O_3 
REMARK    2  A    between atoms: C_2  and  C_4 
REMARK    3  A    between atoms: C_6  and  N_7 
REMARK       I    between atoms: N_7  and  C_8 
REMARK    4  A    between atoms: C_8  and  C_9 
REMARK    5  A    between atoms: C_14  and  C_15 
REMARK    6  A    between atoms: C_21  and  C_22 
ROOT
HETATM    1  C   UNL     1      42.507 -10.826   6.768  1.00  0.00     0.148 A 
HETATM    2  N   UNL     1      43.510 -10.820   7.675  1.00  0.00    -0.165 NA
HETATM    3  N   UNL     1      43.132  -9.880   8.560  1.00  0.00    -0.240 N 
HETATM    4  C   UNL     1      41.899  -9.343   8.298  1.00  0.00     0.123 A 
HETATM    5  N   UNL     1      41.353  -8.401   9.096  1.00  0.00    -0.364 N 
HETATM    6  C   UNL     1      41.964  -8.031  10.373  1.00  0.00     0.143 C 
HETATM    7  C   UNL     1      43.492  -8.167  10.274  1.00  0.00     0.068 C 
HETATM    8  C   UNL     1      43.912  -9.552   9.743  1.00  0.00     0.221 C 
HETATM    9  C   UNL     1      41.465  -9.938   7.145  1.00  0.00     0.089 A 
HETATM   10  H   UNL     1      40.373  -8.139   8.995  1.00  0.00     0.162 HD
ENDROOT
BRANCH   1  11
HETATM   11  C   UNL     1      42.556 -11.656   5.548  1.00  0.00     0.276 C 
HETATM   12  N   UNL     1      42.094 -12.938   5.776  1.00  0.00    -0.322 N 
HETATM   13  H   UNL     1      41.759 -13.084   6.726  1.00  0.00     0.169 HD
HETATM   14  O   UNL     1      42.986 -11.207   4.492  1.00  0.00    -0.266 OA
BRANCH  12  15
HETATM   15  C   UNL     1      42.071 -14.029   4.891  1.00  0.00     0.035 A 
HETATM   16  C   UNL     1      41.041 -14.267   3.977  1.00  0.00     0.039 A 
HETATM   17  C   UNL     1      41.087 -15.365   3.099  1.00  0.00    -0.028 A 
HETATM   18  C   UNL     1      42.182 -16.237   3.163  1.00  0.00     0.010 A 
HETATM   19  C   UNL     1      43.215 -16.008   4.071  1.00  0.00     0.003 A 
HETATM   20  C   UNL     1      43.159 -14.908   4.928  1.00  0.00     0.029 A 
BRANCH  17  21
HETATM   21  C   UNL     1      39.956 -15.596   2.119  1.00  0.00     0.147 C 
HETATM   22  C   UNL     1      40.336 -15.207   0.698  1.00  0.00     0.044 C 
BRANCH  21  23
HETATM   23  O   UNL     1      38.806 -14.846   2.510  1.00  0.00    -0.391 OA
HETATM   24  H   UNL     1      38.039 -15.275   2.093  1.00  0.00     0.210 HD
ENDBRANCH  21  23
ENDBRANCH  17  21
ENDBRANCH  12  15
ENDBRANCH   1  11
BRANCH   8  25
HETATM   25  C   UNL     1      45.400  -9.566   9.473  1.00  0.00     0.409 C 
HETATM   26  F   UNL     1      45.775  -8.704   8.503  1.00  0.00    -0.169 F 
HETATM   27  F   UNL     1      46.131  -9.303  10.580  1.00  0.00    -0.169 F 
HETATM   28  F   UNL     1      45.777 -10.801   9.044  1.00  0.00    -0.169 F 
ENDBRANCH   8  25
BRANCH   6  29
HETATM   29  C   UNL     1      41.426  -8.760  11.563  1.00  0.00     0.075 A 
HETATM   30  O   UNL     1      41.960  -8.412  12.771  1.00  0.00    -0.325 OA
HETATM   31  C   UNL     1      41.338  -9.164  13.715  1.00  0.00     0.142 A 
HETATM   32  C   UNL     1      40.416 -10.001  13.131  1.00  0.00     0.027 A 
HETATM   33  C   UNL     1      40.471  -9.742  11.741  1.00  0.00     0.037 A 
ENDBRANCH   6  29
TORSDOF 6
ENDMDL
MODEL 7
REMARK VINA RESULT:      -8.0      5.687      7.901
REMARK  6 active torsions:
REMARK  status: ('A' for Active; 'I' for Inactive)
REMARK    1  A    between atoms: C_2  and  O_3 
REMARK    2  A    between atoms: C_2  and  C_4 
REMARK    3  A    between atoms: C_6  and  N_7 
REMARK       I    between atoms: N_7  and  C_8 
REMARK    4  A    between atoms: C_8  and  C_9 
REMARK    5  A    between atoms: C_14  and  C_15 
REMARK    6  A    between atoms: C_21  and  C_22 
ROOT
HETATM    1  C   UNL     1      40.440 -14.167   0.830  1.00  0.00     0.148 A 
HETATM    2  N   UNL     1      40.307 -12.851   1.111  1.00  0.00    -0.165 NA
HETATM    3  N   UNL     1      40.164 -12.279  -0.099  1.00  0.00    -0.240 N 
HETATM    4  C   UNL     1      40.124 -13.181  -1.130  1.00  0.00     0.123 A 
HETATM    5  N   UNL     1      39.964 -12.785  -2.411  1.00  0.00    -0.364 N 
HETATM    6  C   UNL     1      39.649 -11.397  -2.749  1.00  0.00     0.143 C 
HETATM    7  C   UNL     1      40.303 -10.454  -1.726  1.00  0.00     0.068 C 
HETATM    8  C   UNL     1      39.958 -10.851  -0.277  1.00  0.00     0.221 C 
HETATM    9  C   UNL     1      40.296 -14.414  -0.562  1.00  0.00     0.089 A 
HETATM   10  H   UNL     1      39.760 -13.464  -3.143  1.00  0.00     0.162 HD
ENDROOT
BRANCH   1  11
HETATM   11  C   UNL     1      40.721 -15.169   1.876  1.00  0.00     0.276 C 
HETATM   12  N   UNL     1      42.077 -15.369   2.048  1.00  0.00    -0.322 N 
HETATM   13  H   UNL     1      42.653 -14.769   1.463  1.00  0.00     0.169 HD
HETATM   14  O   UNL     1      39.813 -15.736   2.472  1.00  0.00    -0.266 OA
BRANCH  12  15
HETATM   15  C   UNL     1      42.724 -16.299   2.880  1.00  0.00     0.035 A 
HETATM   16  C   UNL     1      43.027 -17.608   2.494  1.00  0.00     0.039 A 
HETATM   17  C   UNL     1      43.699 -18.485   3.364  1.00  0.00    -0.028 A 
HETATM   18  C   UNL     1      44.052 -18.033   4.643  1.00  0.00     0.010 A 
HETATM   19  C   UNL     1      43.754 -16.729   5.037  1.00  0.00     0.003 A 
HETATM   20  C   UNL     1      43.097 -15.867   4.158  1.00  0.00     0.029 A 
BRANCH  17  21
HETATM   21  C   UNL     1      44.014 -19.897   2.917  1.00  0.00     0.147 C 
HETATM   22  C   UNL     1      43.228 -20.298   1.678  1.00  0.00     0.044 C 
BRANCH  21  23
HETATM   23  O   UNL     1      43.725 -20.822   3.966  1.00  0.00    -0.391 OA
HETATM   24  H   UNL     1      42.938 -21.322   3.687  1.00  0.00     0.210 HD
ENDBRANCH  21  23
ENDBRANCH  17  21
ENDBRANCH  12  15
ENDBRANCH   1  11
BRANCH   8  25
HETATM   25  C   UNL     1      40.780 -10.026   0.688  1.00  0.00     0.409 C 
HETATM   26  F   UNL     1      40.184  -9.857   1.888  1.00  0.00    -0.169 F 
HETATM   27  F   UNL     1      42.012 -10.544   0.895  1.00  0.00    -0.169 F 
HETATM   28  F   UNL     1      40.965  -8.777   0.182  1.00  0.00    -0.169 F 
ENDBRANCH   8  25
BRANCH   6  29
HETATM   29  C   UNL     1      38.191 -11.103  -2.911  1.00  0.00     0.075 A 
HETATM   30  O   UNL     1      37.882  -9.907  -3.494  1.00  0.00    -0.325 OA
HETATM   31  C   UNL     1      36.528  -9.835  -3.564  1.00  0.00     0.142 A 
HETATM   32  C   UNL     1      35.959 -10.964  -3.024  1.00  0.00     0.027 A 
HETATM   33  C   UNL     1      37.031 -11.785  -2.601  1.00  0.00     0.037 A 
ENDBRANCH   6  29
TORSDOF 6
ENDMDL
MODEL 8
REMARK VINA RESULT:      -7.9      2.759      9.284
REMARK  6 active torsions:
REMARK  status: ('A' for Active; 'I' for Inactive)
REMARK    1  A    between atoms: C_2  and  O_3 
REMARK    2  A    between atoms: C_2  and  C_4 
REMARK    3  A    between atoms: C_6  and  N_7 
REMARK       I    between atoms: N_7  and  C_8 
REMARK    4  A    between atoms: C_8  and  C_9 
REMARK    5  A    between atoms: C_14  and  C_15 
REMARK    6  A    between atoms: C_21  and  C_22 
ROOT
HETATM    1  C   UNL     1      41.264 -11.545   5.785  1.00  0.00     0.148 A 
HETATM    2  N   UNL     1      42.500 -11.924   6.182  1.00  0.00    -0.165 NA
HETATM    3  N   UNL     1      42.933 -10.883   6.915  1.00  0.00    -0.240 N 
HETATM    4  C   UNL     1      41.998  -9.892   7.066  1.00  0.00     0.123 A 
HETATM    5  N   UNL     1      42.253  -8.781   7.789  1.00  0.00    -0.364 N 
HETATM    6  C   UNL     1      43.469  -8.654   8.593  1.00  0.00     0.143 C 
HETATM    7  C   UNL     1      44.620  -9.415   7.915  1.00  0.00     0.068 C 
HETATM    8  C   UNL     1      44.227 -10.867   7.576  1.00  0.00     0.221 C 
HETATM    9  C   UNL     1      40.903 -10.293   6.349  1.00  0.00     0.089 A 
HETATM   10  H   UNL     1      41.502  -8.140   8.039  1.00  0.00     0.162 HD
ENDROOT
BRANCH   1  11
HETATM   11  C   UNL     1      40.450 -12.362   4.865  1.00  0.00     0.276 C 
HETATM   12  N   UNL     1      41.208 -12.898   3.842  1.00  0.00    -0.322 N 
HETATM   13  H   UNL     1      42.199 -12.679   3.915  1.00  0.00     0.169 HD
HETATM   14  O   UNL     1      39.243 -12.495   5.032  1.00  0.00    -0.266 OA
BRANCH  12  15
HETATM   15  C   UNL     1      40.777 -13.649   2.734  1.00  0.00     0.035 A 
HETATM   16  C   UNL     1      40.618 -13.119   1.451  1.00  0.00     0.039 A 
HETATM   17  C   UNL     1      40.206 -13.928   0.377  1.00  0.00    -0.028 A 
HETATM   18  C   UNL     1      39.937 -15.283   0.613  1.00  0.00     0.010 A 
HETATM   19  C   UNL     1      40.093 -15.820   1.890  1.00  0.00     0.003 A 
HETATM   20  C   UNL     1      40.514 -15.007   2.943  1.00  0.00     0.029 A 
BRANCH  17  21
HETATM   21  C   UNL     1      40.043 -13.325  -1.002  1.00  0.00     0.147 C 
HETATM   22  C   UNL     1      39.682 -14.369  -2.049  1.00  0.00     0.044 C 
BRANCH  21  23
HETATM   23  O   UNL     1      41.249 -12.672  -1.400  1.00  0.00    -0.391 OA
HETATM   24  H   UNL     1      41.194 -11.760  -1.066  1.00  0.00     0.210 HD
ENDBRANCH  21  23
ENDBRANCH  17  21
ENDBRANCH  12  15
ENDBRANCH   1  11
BRANCH   8  25
HETATM   25  C   UNL     1      45.310 -11.506   6.736  1.00  0.00     0.409 C 
HETATM   26  F   UNL     1      45.237 -12.854   6.706  1.00  0.00    -0.169 F 
HETATM   27  F   UNL     1      45.315 -11.052   5.462  1.00  0.00    -0.169 F 
HETATM   28  F   UNL     1      46.531 -11.208   7.257  1.00  0.00    -0.169 F 
ENDBRANCH   8  25
BRANCH   6  29
HETATM   29  C   UNL     1      43.320  -9.053  10.027  1.00  0.00     0.075 A 
HETATM   30  O   UNL     1      43.094  -8.037  10.912  1.00  0.00    -0.325 OA
HETATM   31  C   UNL     1      42.973  -8.597  12.142  1.00  0.00     0.142 A 
HETATM   32  C   UNL     1      43.128  -9.961  12.066  1.00  0.00     0.027 A 
HETATM   33  C   UNL     1      43.352 -10.259  10.700  1.00  0.00     0.037 A 
ENDBRANCH   6  29
TORSDOF 6
ENDMDL
MODEL 9
REMARK VINA RESULT:      -7.8      3.059      4.249
REMARK  6 active torsions:
REMARK  status: ('A' for Active; 'I' for Inactive)
REMARK    1  A    between atoms: C_2  and  O_3 
REMARK    2  A    between atoms: C_2  and  C_4 
REMARK    3  A    between atoms: C_6  and  N_7 
REMARK       I    between atoms: N_7  and  C_8 
REMARK    4  A    between atoms: C_8  and  C_9 
REMARK    5  A    between atoms: C_14  and  C_15 
REMARK    6  A    between atoms: C_21  and  C_22 
ROOT
HETATM    1  C   UNL     1      42.582 -10.987   5.912  1.00  0.00     0.148 A 
HETATM    2  N   UNL     1      41.449 -11.651   5.587  1.00  0.00    -0.165 NA
HETATM    3  N   UNL     1      41.785 -12.327   4.473  1.00  0.00    -0.240 N 
HETATM    4  C   UNL     1      43.101 -12.182   4.119  1.00  0.00     0.123 A 
HETATM    5  N   UNL     1      43.616 -12.806   3.038  1.00  0.00    -0.364 N 
HETATM    6  C   UNL     1      42.850 -13.805   2.293  1.00  0.00     0.143 C 
HETATM    7  C   UNL     1      41.355 -13.450   2.338  1.00  0.00     0.068 C 
HETATM    8  C   UNL     1      40.864 -13.214   3.781  1.00  0.00     0.221 C 
HETATM    9  C   UNL     1      43.646 -11.323   5.034  1.00  0.00     0.089 A 
HETATM   10  H   UNL     1      44.623 -12.834   2.886  1.00  0.00     0.162 HD
ENDROOT
BRANCH   1  11
HETATM   11  C   UNL     1      42.636 -10.031   7.034  1.00  0.00     0.276 C 
HETATM   12  N   UNL     1      43.097 -10.622   8.195  1.00  0.00    -0.322 N 
HETATM   13  H   UNL     1      43.360 -11.598   8.075  1.00  0.00     0.169 HD
HETATM   14  O   UNL     1      42.282  -8.866   6.894  1.00  0.00    -0.266 OA
BRANCH  12  15
HETATM   15  C   UNL     1      43.201 -10.062   9.480  1.00  0.00     0.035 A 
HETATM   16  C   UNL     1      42.154 -10.037  10.405  1.00  0.00     0.039 A 
HETATM   17  C   UNL     1      42.328  -9.483  11.685  1.00  0.00    -0.028 A 
HETATM   18  C   UNL     1      43.573  -8.934  12.022  1.00  0.00     0.010 A 
HETATM   19  C   UNL     1      44.623  -8.954  11.106  1.00  0.00     0.003 A 
HETATM   20  C   UNL     1      44.438  -9.518   9.843  1.00  0.00     0.029 A 
BRANCH  17  21
HETATM   21  C   UNL     1      41.175  -9.472  12.666  1.00  0.00     0.147 C 
HETATM   22  C   UNL     1      41.587  -8.953  14.035  1.00  0.00     0.044 C 
BRANCH  21  23
HETATM   23  O   UNL     1      40.641 -10.788  12.813  1.00  0.00    -0.391 OA
HETATM   24  H   UNL     1      40.208 -10.817  13.684  1.00  0.00     0.210 HD
ENDBRANCH  21  23
ENDBRANCH  17  21
ENDBRANCH  12  15
ENDBRANCH   1  11
BRANCH   8  25
HETATM   25  C   UNL     1      39.452 -12.673   3.758  1.00  0.00     0.409 C 
HETATM   26  F   UNL     1      38.849 -12.702   4.966  1.00  0.00    -0.169 F 
HETATM   27  F   UNL     1      39.387 -11.409   3.282  1.00  0.00    -0.169 F 
HETATM   28  F   UNL     1      38.681 -13.436   2.936  1.00  0.00    -0.169 F 
ENDBRANCH   8  25
BRANCH   6  29
HETATM   29  C   UNL     1      43.088 -15.222   2.711  1.00  0.00     0.075 A 
HETATM   30  O   UNL     1      43.304 -15.425   4.045  1.00  0.00    -0.325 OA
HETATM   31  C   UNL     1      43.481 -16.760   4.222  1.00  0.00     0.142 A 
HETATM   32  C   UNL     1      43.392 -17.420   3.019  1.00  0.00     0.027 A 
HETATM   33  C   UNL     1      43.138 -16.428   2.041  1.00  0.00     0.037 A 
ENDBRANCH   6  29
TORSDOF 6
ENDMDL
MODEL 10
REMARK VINA RESULT:      -7.7      3.963      9.639
REMARK  6 active torsions:
REMARK  status: ('A' for Active; 'I' for Inactive)
REMARK    1  A    between atoms: C_2  and  O_3 
REMARK    2  A    between atoms: C_2  and  C_4 
REMARK    3  A    between atoms: C_6  and  N_7 
REMARK       I    between atoms: N_7  and  C_8 
REMARK    4  A    between atoms: C_8  and  C_9 
REMARK    5  A    between atoms: C_14  and  C_15 
REMARK    6  A    between atoms: C_21  and  C_22 
ROOT
HETATM    1  C   UNL     1      42.209 -10.405   6.673  1.00  0.00     0.148 A 
HETATM    2  N   UNL     1      43.213 -10.536   7.569  1.00  0.00    -0.165 NA
HETATM    3  N   UNL     1      42.880  -9.674   8.548  1.00  0.00    -0.240 N 
HETATM    4  C   UNL     1      41.672  -9.059   8.349  1.00  0.00     0.123 A 
HETATM    5  N   UNL     1      41.171  -8.178   9.241  1.00  0.00    -0.364 N 
HETATM    6  C   UNL     1      41.800  -7.967  10.545  1.00  0.00     0.143 C 
HETATM    7  C   UNL     1      43.320  -8.161  10.423  1.00  0.00     0.068 C 
HETATM    8  C   UNL     1      43.676  -9.503   9.752  1.00  0.00     0.221 C 
HETATM    9  C   UNL     1      41.209  -9.514   7.144  1.00  0.00     0.089 A 
HETATM   10  H   UNL     1      40.204  -7.864   9.173  1.00  0.00     0.162 HD
ENDROOT
BRANCH   1  11
HETATM   11  C   UNL     1      42.219 -11.109   5.375  1.00  0.00     0.276 C 
HETATM   12  N   UNL     1      41.277 -12.118   5.328  1.00  0.00    -0.322 N 
HETATM   13  H   UNL     1      40.709 -12.182   6.170  1.00  0.00     0.169 HD
HETATM   14  O   UNL     1      43.009 -10.799   4.491  1.00  0.00    -0.266 OA
BRANCH  12  15
HETATM   15  C   UNL     1      41.050 -13.055   4.305  1.00  0.00     0.035 A 
HETATM   16  C   UNL     1      41.918 -14.110   4.011  1.00  0.00     0.039 A 
HETATM   17  C   UNL     1      41.623 -15.030   2.989  1.00  0.00    -0.028 A 
HETATM   18  C   UNL     1      40.444 -14.866   2.250  1.00  0.00     0.010 A 
HETATM   19  C   UNL     1      39.573 -13.817   2.535  1.00  0.00     0.003 A 
HETATM   20  C   UNL     1      39.874 -12.919   3.560  1.00  0.00     0.029 A 
BRANCH  17  21
HETATM   21  C   UNL     1      42.583 -16.164   2.695  1.00  0.00     0.147 C 
HETATM   22  C   UNL     1      43.462 -15.875   1.487  1.00  0.00     0.044 C 
BRANCH  21  23
HETATM   23  O   UNL     1      41.860 -17.372   2.460  1.00  0.00    -0.391 OA
HETATM   24  H   UNL     1      40.963 -17.233   2.809  1.00  0.00     0.210 HD
ENDBRANCH  21  23
ENDBRANCH  17  21
ENDBRANCH  12  15
ENDBRANCH   1  11
BRANCH   8  25
HETATM   25  C   UNL     1      45.161  -9.556   9.473  1.00  0.00     0.409 C 
HETATM   26  F   UNL     1      45.575 -10.754   9.007  1.00  0.00    -0.169 F 
HETATM   27  F   UNL     1      45.561  -8.601   8.602  1.00  0.00    -0.169 F 
HETATM   28  F   UNL     1      45.853  -9.342  10.625  1.00  0.00    -0.169 F 
ENDBRANCH   8  25
BRANCH   6  29
HETATM   29  C   UNL     1      41.231  -8.789  11.659  1.00  0.00     0.075 A 
HETATM   30  O   UNL     1      41.692  -8.499  12.912  1.00  0.00    -0.325 OA
HETATM   31  C   UNL     1      41.053  -9.330  13.774  1.00  0.00     0.142 A 
HETATM   32  C   UNL     1      40.194 -10.160  13.094  1.00  0.00     0.027 A 
HETATM   33  C   UNL     1      40.307  -9.812  11.727  1.00  0.00     0.037 A 
ENDBRANCH   6  29
TORSDOF 6
ENDMDL
